MODEL 1
REMARK VINA RESULT:      -7.5      0.000      0.000
REMARK  Name = 
REMARK  10 active torsions:
REMARK  status: ('A' for Active; 'I' for Inactive)
REMARK    1  A    between atoms: C_2  and  C_4
REMARK    2  A    between atoms: C_6  and  N_7
REMARK    3  A    between atoms: C_8  and  C_10
REMARK    4  A    between atoms: C_16  and  C_18
REMARK    5  A    between atoms: C_18  and  N_19
REMARK    6  A    between atoms: C_18  and  C_20
REMARK    7  A    between atoms: C_20  and  C_21
REMARK    8  A    between atoms: C_21  and  C_22
REMARK    9  A    between atoms: C_22  and  N_23
REMARK   10  A    between atoms: N_26  and  N_27
REMARK                            x       y       z     vdW  Elec       q    Type
REMARK                         _______ _______ _______ _____ _____    ______ ____
ROOT
ATOM      1  C   UNL     1       6.655   4.167  16.120  0.00  0.00    +0.000 C 
ATOM      2  C   UNL     1       6.841   4.831  14.750  0.00  0.00    +0.000 C 
ATOM      3  C   UNL     1       5.733   4.235  13.888  0.00  0.00    +0.000 C 
ATOM      4  C   UNL     1       4.604   3.952  14.893  0.00  0.00    +0.000 C 
ATOM      5  N   UNL     1       5.192   4.097  16.220  0.00  0.00    +0.000 N 
ATOM      6  C   UNL     1       4.543   3.772  17.397  0.00  0.00    +0.000 C 
ATOM      7  O   UNL     1       5.110   3.893  18.486  0.00  0.00    +0.000 OA
ENDROOT
BRANCH   1   9
ATOM      8  N   UNL     1       7.990   4.257  18.198  0.00  0.00    +0.000 N 
ATOM      9  C   UNL     1       7.503   4.954  17.133  0.00  0.00    +0.000 C 
ATOM     10  O   UNL     1       7.582   6.181  17.103  0.00  0.00    +0.000 OA
ATOM     11  H   UNL     1       8.633   4.787  18.777  0.00  0.00    +0.000 HD
ATOM     12  H   UNL     1       8.275   3.302  18.012  0.00  0.00    +0.000 HD
ENDBRANCH   1   9
BRANCH   3  13
ATOM     13  N   UNL     1       6.184   3.038  13.187  0.00  0.00    +0.000 N 
ATOM     14  C   UNL     1       5.663   2.708  11.936  0.00  0.00    +0.000 C 
ATOM     15  O   UNL     1       4.714   3.334  11.458  0.00  0.00    +0.000 OA
ATOM     16  H   UNL     1       7.054   2.589  13.464  0.00  0.00    +0.000 HD
BRANCH  14  17
ATOM     17  C   UNL     1       6.340   1.507  11.238  0.00  0.00    +0.000 C 
ATOM     18  F   UNL     1       7.697   1.655  11.189  0.00  0.00    +0.000 F 
ATOM     19  F   UNL     1       6.105   0.333  11.885  0.00  0.00    +0.000 F 
ATOM     20  F   UNL     1       5.924   1.344   9.954  0.00  0.00    +0.000 F 
ENDBRANCH  14  17
ENDBRANCH   3  13
BRANCH   6  21
ATOM     21  C   UNL     1       3.088   3.237  17.297  0.00  0.00    +0.000 C 
BRANCH  21  22
ATOM     22  N   UNL     1       2.116   4.329  17.477  0.00  0.00    +0.000 NA
ATOM     23  H   UNL     1       1.529   4.385  16.642  0.00  0.00    +0.000 HD
ATOM     24  H   UNL     1       2.610   5.217  17.541  0.00  0.00    +0.000 HD
ENDBRANCH  21  22
BRANCH  21  25
ATOM     25  C   UNL     1       2.883   2.082  18.292  0.00  0.00    +0.000 C 
BRANCH  25  26
ATOM     26  C   UNL     1       1.759   2.303  19.312  0.00  0.00    +0.000 C 
BRANCH  26  27
ATOM     27  C   UNL     1       2.296   2.995  20.563  0.00  0.00    +0.000 C 
BRANCH  27  28
ATOM     28  N   UNL     1       1.511   4.203  20.802  0.00  0.00    +0.000 NA
ATOM     29  C   UNL     1       2.064   5.353  20.576  0.00  0.00    +0.000 C 
ATOM     30  N   UNL     1       3.342   5.521  20.150  0.00  0.00    +0.000 N 
ATOM     31  N   UNL     1       1.269   6.439  20.753  0.00  0.00    +0.000 N 
ATOM     32  H   UNL     1       3.988   4.759  20.300  0.00  0.00    +0.000 HD
ATOM     33  H   UNL     1       3.765   6.434  20.317  0.00  0.00    +0.000 HD
ATOM     34  H   UNL     1       0.321   6.215  21.009  0.00  0.00    +0.000 HD
BRANCH  31  35
ATOM     35  N   UNL     1       1.624   7.722  20.637  0.00  0.00    +0.000 N 
ATOM     36  O   UNL     1       1.524   8.473  21.606  0.00  0.00    +0.000 OA
ATOM     37  O   UNL     1       1.987   8.028  19.502  0.00  0.00    +0.000 OA
ENDBRANCH  31  35
ENDBRANCH  27  28
ENDBRANCH  26  27
ENDBRANCH  25  26
ENDBRANCH  21  25
ENDBRANCH   6  21
TORSDOF 10
ENDMDL
MODEL 2
REMARK VINA RESULT:      -7.1      4.184      6.137
REMARK  Name = 
REMARK  10 active torsions:
REMARK  status: ('A' for Active; 'I' for Inactive)
REMARK    1  A    between atoms: C_2  and  C_4
REMARK    2  A    between atoms: C_6  and  N_7
REMARK    3  A    between atoms: C_8  and  C_10
REMARK    4  A    between atoms: C_16  and  C_18
REMARK    5  A    between atoms: C_18  and  N_19
REMARK    6  A    between atoms: C_18  and  C_20
REMARK    7  A    between atoms: C_20  and  C_21
REMARK    8  A    between atoms: C_21  and  C_22
REMARK    9  A    between atoms: C_22  and  N_23
REMARK   10  A    between atoms: N_26  and  N_27
REMARK                            x       y       z     vdW  Elec       q    Type
REMARK                         _______ _______ _______ _____ _____    ______ ____
ROOT
ATOM      1  C   UNL     1       3.146   3.912  19.162  0.00  0.00    +0.000 C 
ATOM      2  C   UNL     1       4.631   3.551  19.031  0.00  0.00    +0.000 C 
ATOM      3  C   UNL     1       5.280   4.815  18.479  0.00  0.00    +0.000 C 
ATOM      4  C   UNL     1       4.412   5.948  19.052  0.00  0.00    +0.000 C 
ATOM      5  N   UNL     1       3.218   5.312  19.600  0.00  0.00    +0.000 N 
ATOM      6  C   UNL     1       2.115   6.002  20.068  0.00  0.00    +0.000 C 
ATOM      7  O   UNL     1       1.127   5.399  20.494  0.00  0.00    +0.000 OA
ENDROOT
BRANCH   1   9
ATOM      8  N   UNL     1       1.258   2.382  19.613  0.00  0.00    +0.000 N 
ATOM      9  C   UNL     1       2.481   2.825  20.022  0.00  0.00    +0.000 C 
ATOM     10  O   UNL     1       2.923   2.503  21.124  0.00  0.00    +0.000 OA
ATOM     11  H   UNL     1       0.909   1.590  20.143  0.00  0.00    +0.000 HD
ATOM     12  H   UNL     1       1.121   2.316  18.611  0.00  0.00    +0.000 HD
ENDBRANCH   1   9
BRANCH   3  13
ATOM     13  N   UNL     1       5.317   4.808  17.022  0.00  0.00    +0.000 N 
ATOM     14  C   UNL     1       6.527   4.669  16.341  0.00  0.00    +0.000 C 
ATOM     15  O   UNL     1       7.601   4.693  16.946  0.00  0.00    +0.000 OA
ATOM     16  H   UNL     1       4.463   4.632  16.497  0.00  0.00    +0.000 HD
BRANCH  14  17
ATOM     17  C   UNL     1       6.405   4.518  14.808  0.00  0.00    +0.000 C 
ATOM     18  F   UNL     1       5.352   5.234  14.316  0.00  0.00    +0.000 F 
ATOM     19  F   UNL     1       7.512   4.966  14.156  0.00  0.00    +0.000 F 
ATOM     20  F   UNL     1       6.208   3.230  14.422  0.00  0.00    +0.000 F 
ENDBRANCH  14  17
ENDBRANCH   3  13
BRANCH   6  21
ATOM     21  C   UNL     1       2.161   7.554  20.024  0.00  0.00    +0.000 C 
BRANCH  21  22
ATOM     22  N   UNL     1       1.636   8.128  21.274  0.00  0.00    +0.000 NA
ATOM     23  H   UNL     1       1.451   9.122  21.126  0.00  0.00    +0.000 HD
ATOM     24  H   UNL     1       2.348   8.072  22.000  0.00  0.00    +0.000 HD
ENDBRANCH  21  22
BRANCH  21  25
ATOM     25  C   UNL     1       1.425   8.065  18.774  0.00  0.00    +0.000 C 
BRANCH  25  26
ATOM     26  C   UNL     1       1.557   9.573  18.520  0.00  0.00    +0.000 C 
BRANCH  26  27
ATOM     27  C   UNL     1       0.215  10.272  18.723  0.00  0.00    +0.000 C 
BRANCH  27  28
ATOM     28  N   UNL     1      -0.750   9.713  17.780  0.00  0.00    +0.000 NA
ATOM     29  C   UNL     1      -1.551  10.524  17.164  0.00  0.00    +0.000 C 
ATOM     30  N   UNL     1      -1.574  11.870  17.347  0.00  0.00    +0.000 N 
ATOM     31  N   UNL     1      -2.383   9.959  16.253  0.00  0.00    +0.000 N 
ATOM     32  H   UNL     1      -1.178  12.231  18.204  0.00  0.00    +0.000 HD
ATOM     33  H   UNL     1      -2.429  12.355  17.075  0.00  0.00    +0.000 HD
ATOM     34  H   UNL     1      -2.252   8.967  16.139  0.00  0.00    +0.000 HD
BRANCH  31  35
ATOM     35  N   UNL     1      -3.328  10.575  15.536  0.00  0.00    +0.000 N 
ATOM     36  O   UNL     1      -3.244  10.601  14.310  0.00  0.00    +0.000 OA
ATOM     37  O   UNL     1      -4.194  11.110  16.227  0.00  0.00    +0.000 OA
ENDBRANCH  31  35
ENDBRANCH  27  28
ENDBRANCH  26  27
ENDBRANCH  25  26
ENDBRANCH  21  25
ENDBRANCH   6  21
TORSDOF 10
ENDMDL
MODEL 3
REMARK VINA RESULT:      -7.0      4.201      6.092
REMARK  Name = 
REMARK  10 active torsions:
REMARK  status: ('A' for Active; 'I' for Inactive)
REMARK    1  A    between atoms: C_2  and  C_4
REMARK    2  A    between atoms: C_6  and  N_7
REMARK    3  A    between atoms: C_8  and  C_10
REMARK    4  A    between atoms: C_16  and  C_18
REMARK    5  A    between atoms: C_18  and  N_19
REMARK    6  A    between atoms: C_18  and  C_20
REMARK    7  A    between atoms: C_20  and  C_21
REMARK    8  A    between atoms: C_21  and  C_22
REMARK    9  A    between atoms: C_22  and  N_23
REMARK   10  A    between atoms: N_26  and  N_27
REMARK                            x       y       z     vdW  Elec       q    Type
REMARK                         _______ _______ _______ _____ _____    ______ ____
ROOT
ATOM      1  C   UNL     1       3.273   3.913  19.118  0.00  0.00    +0.000 C 
ATOM      2  C   UNL     1       4.766   3.577  19.003  0.00  0.00    +0.000 C 
ATOM      3  C   UNL     1       5.411   4.878  18.537  0.00  0.00    +0.000 C 
ATOM      4  C   UNL     1       4.514   5.967  19.151  0.00  0.00    +0.000 C 
ATOM      5  N   UNL     1       3.317   5.287  19.634  0.00  0.00    +0.000 N 
ATOM      6  C   UNL     1       2.194   5.936  20.113  0.00  0.00    +0.000 C 
ATOM      7  O   UNL     1       1.204   5.299  20.481  0.00  0.00    +0.000 OA
ENDROOT
BRANCH   1   9
ATOM      8  N   UNL     1       3.015   2.583  21.186  0.00  0.00    +0.000 N 
ATOM      9  C   UNL     1       2.603   2.771  19.900  0.00  0.00    +0.000 C 
ATOM     10  O   UNL     1       1.877   1.942  19.352  0.00  0.00    +0.000 OA
ATOM     11  H   UNL     1       2.470   1.896  21.696  0.00  0.00    +0.000 HD
ATOM     12  H   UNL     1       3.238   3.422  21.709  0.00  0.00    +0.000 HD
ENDBRANCH   1   9
BRANCH   3  13
ATOM     13  N   UNL     1       5.481   4.953  17.083  0.00  0.00    +0.000 N 
ATOM     14  C   UNL     1       6.667   4.652  16.412  0.00  0.00    +0.000 C 
ATOM     15  O   UNL     1       7.715   4.458  17.032  0.00  0.00    +0.000 OA
ATOM     16  H   UNL     1       4.623   4.955  16.536  0.00  0.00    +0.000 HD
BRANCH  14  17
ATOM     17  C   UNL     1       6.559   4.616  14.871  0.00  0.00    +0.000 C 
ATOM     18  F   UNL     1       7.670   5.146  14.279  0.00  0.00    +0.000 F 
ATOM     19  F   UNL     1       6.436   3.349  14.391  0.00  0.00    +0.000 F 
ATOM     20  F   UNL     1       5.499   5.326  14.403  0.00  0.00    +0.000 F 
ENDBRANCH  14  17
ENDBRANCH   3  13
BRANCH   6  21
ATOM     21  C   UNL     1       2.220   7.489  20.156  0.00  0.00    +0.000 C 
BRANCH  21  22
ATOM     22  N   UNL     1       1.701   7.985  21.442  0.00  0.00    +0.000 NA
ATOM     23  H   UNL     1       0.689   7.841  21.463  0.00  0.00    +0.000 HD
ATOM     24  H   UNL     1       1.851   8.990  21.505  0.00  0.00    +0.000 HD
ENDBRANCH  21  22
BRANCH  21  25
ATOM     25  C   UNL     1       1.466   8.060  18.944  0.00  0.00    +0.000 C 
BRANCH  25  26
ATOM     26  C   UNL     1       1.280   9.583  18.960  0.00  0.00    +0.000 C 
BRANCH  26  27
ATOM     27  C   UNL     1      -0.196   9.944  19.111  0.00  0.00    +0.000 C 
BRANCH  27  28
ATOM     28  N   UNL     1      -0.619  10.685  17.926  0.00  0.00    +0.000 NA
ATOM     29  C   UNL     1      -1.805  10.464  17.451  0.00  0.00    +0.000 C 
ATOM     30  N   UNL     1      -2.685   9.568  17.967  0.00  0.00    +0.000 N 
ATOM     31  N   UNL     1      -2.170  11.226  16.389  0.00  0.00    +0.000 N 
ATOM     32  H   UNL     1      -2.313   8.828  18.545  0.00  0.00    +0.000 HD
ATOM     33  H   UNL     1      -3.428   9.246  17.346  0.00  0.00    +0.000 HD
ATOM     34  H   UNL     1      -1.478  11.905  16.115  0.00  0.00    +0.000 HD
BRANCH  31  35
ATOM     35  N   UNL     1      -3.310  11.146  15.697  0.00  0.00    +0.000 N 
ATOM     36  O   UNL     1      -3.287  10.776  14.524  0.00  0.00    +0.000 OA
ATOM     37  O   UNL     1      -4.296  11.515  16.334  0.00  0.00    +0.000 OA
ENDBRANCH  31  35
ENDBRANCH  27  28
ENDBRANCH  26  27
ENDBRANCH  25  26
ENDBRANCH  21  25
ENDBRANCH   6  21
TORSDOF 10
ENDMDL
MODEL 4
REMARK VINA RESULT:      -7.0      6.454      8.791
REMARK  Name = 
REMARK  10 active torsions:
REMARK  status: ('A' for Active; 'I' for Inactive)
REMARK    1  A    between atoms: C_2  and  C_4
REMARK    2  A    between atoms: C_6  and  N_7
REMARK    3  A    between atoms: C_8  and  C_10
REMARK    4  A    between atoms: C_16  and  C_18
REMARK    5  A    between atoms: C_18  and  N_19
REMARK    6  A    between atoms: C_18  and  C_20
REMARK    7  A    between atoms: C_20  and  C_21
REMARK    8  A    between atoms: C_21  and  C_22
REMARK    9  A    between atoms: C_22  and  N_23
REMARK   10  A    between atoms: N_26  and  N_27
REMARK                            x       y       z     vdW  Elec       q    Type
REMARK                         _______ _______ _______ _____ _____    ______ ____
ROOT
ATOM      1  C   UNL     1       4.210   4.593  19.119  0.00  0.00    +0.000 C 
ATOM      2  C   UNL     1       2.733   4.758  18.741  0.00  0.00    +0.000 C 
ATOM      3  C   UNL     1       2.624   6.199  18.257  0.00  0.00    +0.000 C 
ATOM      4  C   UNL     1       4.011   6.485  17.656  0.00  0.00    +0.000 C 
ATOM      5  N   UNL     1       4.874   5.386  18.076  0.00  0.00    +0.000 N 
ATOM      6  C   UNL     1       6.241   5.349  17.872  0.00  0.00    +0.000 C 
ATOM      7  O   UNL     1       6.915   4.400  18.279  0.00  0.00    +0.000 OA
ENDROOT
BRANCH   1   9
ATOM      8  N   UNL     1       4.284   2.302  18.195  0.00  0.00    +0.000 N 
ATOM      9  C   UNL     1       4.478   3.089  19.291  0.00  0.00    +0.000 C 
ATOM     10  O   UNL     1       4.667   2.582  20.396  0.00  0.00    +0.000 OA
ATOM     11  H   UNL     1       4.578   1.339  18.323  0.00  0.00    +0.000 HD
ATOM     12  H   UNL     1       4.540   2.710  17.303  0.00  0.00    +0.000 HD
ENDBRANCH   1   9
BRANCH   3  13
ATOM     13  N   UNL     1       2.279   7.106  19.345  0.00  0.00    +0.000 N 
ATOM     14  C   UNL     1       1.631   8.314  19.085  0.00  0.00    +0.000 C 
ATOM     15  O   UNL     1       1.464   8.709  17.929  0.00  0.00    +0.000 OA
ATOM     16  H   UNL     1       2.256   6.761  20.302  0.00  0.00    +0.000 HD
BRANCH  14  17
ATOM     17  C   UNL     1       1.182   9.103  20.336  0.00  0.00    +0.000 C 
ATOM     18  F   UNL     1       1.372  10.446  20.177  0.00  0.00    +0.000 F 
ATOM     19  F   UNL     1      -0.139   8.931  20.609  0.00  0.00    +0.000 F 
ATOM     20  F   UNL     1       1.870   8.748  21.454  0.00  0.00    +0.000 F 
ENDBRANCH  14  17
ENDBRANCH   3  13
BRANCH   6  21
ATOM     21  C   UNL     1       6.894   6.548  17.131  0.00  0.00    +0.000 C 
BRANCH  21  22
ATOM     22  N   UNL     1       7.561   6.099  15.897  0.00  0.00    +0.000 NA
ATOM     23  H   UNL     1       8.192   5.329  16.129  0.00  0.00    +0.000 HD
ATOM     24  H   UNL     1       8.145   6.850  15.533  0.00  0.00    +0.000 HD
ENDBRANCH  21  22
BRANCH  21  25
ATOM     25  C   UNL     1       7.836   7.303  18.082  0.00  0.00    +0.000 C 
BRANCH  25  26
ATOM     26  C   UNL     1       7.949   8.810  17.817  0.00  0.00    +0.000 C 
BRANCH  26  27
ATOM     27  C   UNL     1       8.885   9.467  18.829  0.00  0.00    +0.000 C 
BRANCH  27  28
ATOM     28  N   UNL     1       9.442  10.678  18.232  0.00  0.00    +0.000 NA
ATOM     29  C   UNL     1       9.659  11.700  19.000  0.00  0.00    +0.000 C 
ATOM     30  N   UNL     1       9.385  11.735  20.329  0.00  0.00    +0.000 N 
ATOM     31  N   UNL     1      10.237  12.775  18.407  0.00  0.00    +0.000 N 
ATOM     32  H   UNL     1       8.712  11.071  20.685  0.00  0.00    +0.000 HD
ATOM     33  H   UNL     1       9.287  12.658  20.752  0.00  0.00    +0.000 HD
ATOM     34  H   UNL     1      10.462  12.635  17.435  0.00  0.00    +0.000 HD
BRANCH  31  35
ATOM     35  N   UNL     1      10.508  13.955  18.972  0.00  0.00    +0.000 N 
ATOM     36  O   UNL     1      11.400  14.038  19.814  0.00  0.00    +0.000 OA
ATOM     37  O   UNL     1       9.763  14.860  18.596  0.00  0.00    +0.000 OA
ENDBRANCH  31  35
ENDBRANCH  27  28
ENDBRANCH  26  27
ENDBRANCH  25  26
ENDBRANCH  21  25
ENDBRANCH   6  21
TORSDOF 10
ENDMDL
MODEL 5
REMARK VINA RESULT:      -7.0      6.408      8.877
REMARK  Name = 
REMARK  10 active torsions:
REMARK  status: ('A' for Active; 'I' for Inactive)
REMARK    1  A    between atoms: C_2  and  C_4
REMARK    2  A    between atoms: C_6  and  N_7
REMARK    3  A    between atoms: C_8  and  C_10
REMARK    4  A    between atoms: C_16  and  C_18
REMARK    5  A    between atoms: C_18  and  N_19
REMARK    6  A    between atoms: C_18  and  C_20
REMARK    7  A    between atoms: C_20  and  C_21
REMARK    8  A    between atoms: C_21  and  C_22
REMARK    9  A    between atoms: C_22  and  N_23
REMARK   10  A    between atoms: N_26  and  N_27
REMARK                            x       y       z     vdW  Elec       q    Type
REMARK                         _______ _______ _______ _____ _____    ______ ____
ROOT
ATOM      1  C   UNL     1       4.031   4.673  18.926  0.00  0.00    +0.000 C 
ATOM      2  C   UNL     1       2.568   4.915  18.534  0.00  0.00    +0.000 C 
ATOM      3  C   UNL     1       2.533   6.373  18.086  0.00  0.00    +0.000 C 
ATOM      4  C   UNL     1       3.940   6.608  17.510  0.00  0.00    +0.000 C 
ATOM      5  N   UNL     1       4.745   5.460  17.913  0.00  0.00    +0.000 N 
ATOM      6  C   UNL     1       6.111   5.364  17.725  0.00  0.00    +0.000 C 
ATOM      7  O   UNL     1       6.735   4.375  18.116  0.00  0.00    +0.000 OA
ENDROOT
BRANCH   1   9
ATOM      8  N   UNL     1       5.124   2.732  19.997  0.00  0.00    +0.000 N 
ATOM      9  C   UNL     1       4.226   3.154  19.063  0.00  0.00    +0.000 C 
ATOM     10  O   UNL     1       3.754   2.359  18.250  0.00  0.00    +0.000 OA
ATOM     11  H   UNL     1       5.139   1.726  20.130  0.00  0.00    +0.000 HD
ATOM     12  H   UNL     1       5.164   3.274  20.853  0.00  0.00    +0.000 HD
ENDBRANCH   1   9
BRANCH   3  13
ATOM     13  N   UNL     1       2.215   7.267  19.193  0.00  0.00    +0.000 N 
ATOM     14  C   UNL     1       1.612   8.503  18.957  0.00  0.00    +0.000 C 
ATOM     15  O   UNL     1       1.465   8.929  17.810  0.00  0.00    +0.000 OA
ATOM     16  H   UNL     1       2.175   6.901  20.142  0.00  0.00    +0.000 HD
BRANCH  14  17
ATOM     17  C   UNL     1       1.186   9.279  20.224  0.00  0.00    +0.000 C 
ATOM     18  F   UNL     1       1.419  10.618  20.094  0.00  0.00    +0.000 F 
ATOM     19  F   UNL     1      -0.142   9.144  20.490  0.00  0.00    +0.000 F 
ATOM     20  F   UNL     1       1.859   8.878  21.335  0.00  0.00    +0.000 F 
ENDBRANCH  14  17
ENDBRANCH   3  13
BRANCH   6  21
ATOM     21  C   UNL     1       6.829   6.550  17.023  0.00  0.00    +0.000 C 
BRANCH  21  22
ATOM     22  N   UNL     1       7.623   6.076  15.877  0.00  0.00    +0.000 NA
ATOM     23  H   UNL     1       7.705   5.058  15.935  0.00  0.00    +0.000 HD
ATOM     24  H   UNL     1       8.569   6.445  15.941  0.00  0.00    +0.000 HD
ENDBRANCH  21  22
BRANCH  21  25
ATOM     25  C   UNL     1       7.665   7.337  18.047  0.00  0.00    +0.000 C 
BRANCH  25  26
ATOM     26  C   UNL     1       7.831   8.830  17.731  0.00  0.00    +0.000 C 
BRANCH  26  27
ATOM     27  C   UNL     1       8.914   9.448  18.612  0.00  0.00    +0.000 C 
BRANCH  27  28
ATOM     28  N   UNL     1       8.824  10.903  18.511  0.00  0.00    +0.000 NA
ATOM     29  C   UNL     1       9.851  11.554  18.064  0.00  0.00    +0.000 C 
ATOM     30  N   UNL     1      11.026  10.981  17.697  0.00  0.00    +0.000 N 
ATOM     31  N   UNL     1       9.690  12.895  17.930  0.00  0.00    +0.000 N 
ATOM     32  H   UNL     1      11.231  10.062  18.064  0.00  0.00    +0.000 HD
ATOM     33  H   UNL     1      11.845  11.588  17.677  0.00  0.00    +0.000 HD
ATOM     34  H   UNL     1       8.768  13.223  18.166  0.00  0.00    +0.000 HD
BRANCH  31  35
ATOM     35  N   UNL     1      10.614  13.781  17.544  0.00  0.00    +0.000 N 
ATOM     36  O   UNL     1      11.145  13.666  16.440  0.00  0.00    +0.000 OA
ATOM     37  O   UNL     1      10.870  14.625  18.401  0.00  0.00    +0.000 OA
ENDBRANCH  31  35
ENDBRANCH  27  28
ENDBRANCH  26  27
ENDBRANCH  25  26
ENDBRANCH  21  25
ENDBRANCH   6  21
TORSDOF 10
ENDMDL
MODEL 6
REMARK VINA RESULT:      -6.9      3.297      5.465
REMARK  Name = 
REMARK  10 active torsions:
REMARK  status: ('A' for Active; 'I' for Inactive)
REMARK    1  A    between atoms: C_2  and  C_4
REMARK    2  A    between atoms: C_6  and  N_7
REMARK    3  A    between atoms: C_8  and  C_10
REMARK    4  A    between atoms: C_16  and  C_18
REMARK    5  A    between atoms: C_18  and  N_19
REMARK    6  A    between atoms: C_18  and  C_20
REMARK    7  A    between atoms: C_20  and  C_21
REMARK    8  A    between atoms: C_21  and  C_22
REMARK    9  A    between atoms: C_22  and  N_23
REMARK   10  A    between atoms: N_26  and  N_27
REMARK                            x       y       z     vdW  Elec       q    Type
REMARK                         _______ _______ _______ _____ _____    ______ ____
ROOT
ATOM      1  C   UNL     1       3.163   3.712  19.146  0.00  0.00    +0.000 C 
ATOM      2  C   UNL     1       4.640   3.325  19.000  0.00  0.00    +0.000 C 
ATOM      3  C   UNL     1       5.306   4.580  18.446  0.00  0.00    +0.000 C 
ATOM      4  C   UNL     1       4.463   5.726  19.030  0.00  0.00    +0.000 C 
ATOM      5  N   UNL     1       3.264   5.109  19.588  0.00  0.00    +0.000 N 
ATOM      6  C   UNL     1       2.178   5.817  20.068  0.00  0.00    +0.000 C 
ATOM      7  O   UNL     1       1.183   5.230  20.501  0.00  0.00    +0.000 OA
ENDROOT
BRANCH   1   9
ATOM      8  N   UNL     1       2.820   2.606  21.329  0.00  0.00    +0.000 N 
ATOM      9  C   UNL     1       2.486   2.634  20.009  0.00  0.00    +0.000 C 
ATOM     10  O   UNL     1       1.830   1.719  19.513  0.00  0.00    +0.000 OA
ATOM     11  H   UNL     1       2.269   1.955  21.880  0.00  0.00    +0.000 HD
ATOM     12  H   UNL     1       2.976   3.506  21.768  0.00  0.00    +0.000 HD
ENDBRANCH   1   9
BRANCH   3  13
ATOM     13  N   UNL     1       5.329   4.577  16.989  0.00  0.00    +0.000 N 
ATOM     14  C   UNL     1       6.537   4.670  16.296  0.00  0.00    +0.000 C 
ATOM     15  O   UNL     1       7.593   4.900  16.890  0.00  0.00    +0.000 OA
ATOM     16  H   UNL     1       4.520   4.240  16.472  0.00  0.00    +0.000 HD
BRANCH  14  17
ATOM     17  C   UNL     1       6.432   4.496  14.764  0.00  0.00    +0.000 C 
ATOM     18  F   UNL     1       7.509   5.039  14.123  0.00  0.00    +0.000 F 
ATOM     19  F   UNL     1       6.385   3.187  14.395  0.00  0.00    +0.000 F 
ATOM     20  F   UNL     1       5.331   5.098  14.242  0.00  0.00    +0.000 F 
ENDBRANCH  14  17
ENDBRANCH   3  13
BRANCH   6  21
ATOM     21  C   UNL     1       2.251   7.368  20.029  0.00  0.00    +0.000 C 
BRANCH  21  22
ATOM     22  N   UNL     1       1.733   7.947  21.280  0.00  0.00    +0.000 NA
ATOM     23  H   UNL     1       1.945   8.947  21.289  0.00  0.00    +0.000 HD
ATOM     24  H   UNL     1       2.226   7.541  22.073  0.00  0.00    +0.000 HD
ENDBRANCH  21  22
BRANCH  21  25
ATOM     25  C   UNL     1       1.527   7.896  18.779  0.00  0.00    +0.000 C 
BRANCH  25  26
ATOM     26  C   UNL     1       2.275   8.999  18.019  0.00  0.00    +0.000 C 
BRANCH  26  27
ATOM     27  C   UNL     1       1.686  10.370  18.342  0.00  0.00    +0.000 C 
BRANCH  27  28
ATOM     28  N   UNL     1       0.643  10.204  19.351  0.00  0.00    +0.000 NA
ATOM     29  C   UNL     1       0.589  11.054  20.328  0.00  0.00    +0.000 C 
ATOM     30  N   UNL     1       1.454  12.087  20.497  0.00  0.00    +0.000 N 
ATOM     31  N   UNL     1      -0.437  10.891  21.200  0.00  0.00    +0.000 N 
ATOM     32  H   UNL     1       2.350  12.027  20.033  0.00  0.00    +0.000 HD
ATOM     33  H   UNL     1       1.523  12.478  21.436  0.00  0.00    +0.000 HD
ATOM     34  H   UNL     1      -1.063  10.139  20.961  0.00  0.00    +0.000 HD
BRANCH  31  35
ATOM     35  N   UNL     1      -0.671  11.601  22.308  0.00  0.00    +0.000 N 
ATOM     36  O   UNL     1      -0.943  12.797  22.219  0.00  0.00    +0.000 OA
ATOM     37  O   UNL     1      -0.535  10.951  23.343  0.00  0.00    +0.000 OA
ENDBRANCH  31  35
ENDBRANCH  27  28
ENDBRANCH  26  27
ENDBRANCH  25  26
ENDBRANCH  21  25
ENDBRANCH   6  21
TORSDOF 10
ENDMDL
MODEL 7
REMARK VINA RESULT:      -6.9      3.243      5.581
REMARK  Name = 
REMARK  10 active torsions:
REMARK  status: ('A' for Active; 'I' for Inactive)
REMARK    1  A    between atoms: C_2  and  C_4
REMARK    2  A    between atoms: C_6  and  N_7
REMARK    3  A    between atoms: C_8  and  C_10
REMARK    4  A    between atoms: C_16  and  C_18
REMARK    5  A    between atoms: C_18  and  N_19
REMARK    6  A    between atoms: C_18  and  C_20
REMARK    7  A    between atoms: C_20  and  C_21
REMARK    8  A    between atoms: C_21  and  C_22
REMARK    9  A    between atoms: C_22  and  N_23
REMARK   10  A    between atoms: N_26  and  N_27
REMARK                            x       y       z     vdW  Elec       q    Type
REMARK                         _______ _______ _______ _____ _____    ______ ____
ROOT
ATOM      1  C   UNL     1       3.200   3.540  19.678  0.00  0.00    +0.000 C 
ATOM      2  C   UNL     1       4.669   3.101  19.636  0.00  0.00    +0.000 C 
ATOM      3  C   UNL     1       5.386   4.245  18.928  0.00  0.00    +0.000 C 
ATOM      4  C   UNL     1       4.559   5.484  19.313  0.00  0.00    +0.000 C 
ATOM      5  N   UNL     1       3.328   4.983  19.916  0.00  0.00    +0.000 N 
ATOM      6  C   UNL     1       2.250   5.779  20.255  0.00  0.00    +0.000 C 
ATOM      7  O   UNL     1       1.227   5.286  20.737  0.00  0.00    +0.000 OA
ENDROOT
BRANCH   1   9
ATOM      8  N   UNL     1       1.230   2.185  20.302  0.00  0.00    +0.000 N 
ATOM      9  C   UNL     1       2.470   2.615  20.667  0.00  0.00    +0.000 C 
ATOM     10  O   UNL     1       2.884   2.424  21.809  0.00  0.00    +0.000 OA
ATOM     11  H   UNL     1       0.834   1.491  20.928  0.00  0.00    +0.000 HD
ATOM     12  H   UNL     1       1.098   1.990  19.316  0.00  0.00    +0.000 HD
ENDBRANCH   1   9
BRANCH   3  13
ATOM     13  N   UNL     1       5.448   4.030  17.487  0.00  0.00    +0.000 N 
ATOM     14  C   UNL     1       6.209   4.871  16.674  0.00  0.00    +0.000 C 
ATOM     15  O   UNL     1       6.726   5.894  17.128  0.00  0.00    +0.000 OA
ATOM     16  H   UNL     1       5.173   3.130  17.099  0.00  0.00    +0.000 HD
BRANCH  14  17
ATOM     17  C   UNL     1       6.316   4.437  15.195  0.00  0.00    +0.000 C 
ATOM     18  F   UNL     1       6.073   3.101  15.047  0.00  0.00    +0.000 F 
ATOM     19  F   UNL     1       5.417   5.081  14.402  0.00  0.00    +0.000 F 
ATOM     20  F   UNL     1       7.548   4.664  14.670  0.00  0.00    +0.000 F 
ENDBRANCH  14  17
ENDBRANCH   3  13
BRANCH   6  21
ATOM     21  C   UNL     1       2.367   7.306  19.993  0.00  0.00    +0.000 C 
BRANCH  21  22
ATOM     22  N   UNL     1       1.734   8.073  21.080  0.00  0.00    +0.000 NA
ATOM     23  H   UNL     1       0.863   8.477  20.730  0.00  0.00    +0.000 HD
ATOM     24  H   UNL     1       2.332   8.856  21.338  0.00  0.00    +0.000 HD
ENDBRANCH  21  22
BRANCH  21  25
ATOM     25  C   UNL     1       1.795   7.647  18.607  0.00  0.00    +0.000 C 
BRANCH  25  26
ATOM     26  C   UNL     1       2.126   9.057  18.102  0.00  0.00    +0.000 C 
BRANCH  26  27
ATOM     27  C   UNL     1       0.859   9.904  18.003  0.00  0.00    +0.000 C 
BRANCH  27  28
ATOM     28  N   UNL     1       0.099   9.754  19.241  0.00  0.00    +0.000 NA
ATOM     29  C   UNL     1       0.239  10.652  20.164  0.00  0.00    +0.000 C 
ATOM     30  N   UNL     1       1.067  11.725  20.074  0.00  0.00    +0.000 N 
ATOM     31  N   UNL     1      -0.538  10.498  21.266  0.00  0.00    +0.000 N 
ATOM     32  H   UNL     1       1.827  11.674  19.410  0.00  0.00    +0.000 HD
ATOM     33  H   UNL     1       1.340  12.168  20.951  0.00  0.00    +0.000 HD
ATOM     34  H   UNL     1      -1.165   9.711  21.218  0.00  0.00    +0.000 HD
BRANCH  31  35
ATOM     35  N   UNL     1      -0.534  11.258  22.366  0.00  0.00    +0.000 N 
ATOM     36  O   UNL     1      -0.719  12.470  22.270  0.00  0.00    +0.000 OA
ATOM     37  O   UNL     1      -0.288  10.628  23.393  0.00  0.00    +0.000 OA
ENDBRANCH  31  35
ENDBRANCH  27  28
ENDBRANCH  26  27
ENDBRANCH  25  26
ENDBRANCH  21  25
ENDBRANCH   6  21
TORSDOF 10
ENDMDL
MODEL 8
REMARK VINA RESULT:      -6.9      3.189      5.274
REMARK  Name = 
REMARK  10 active torsions:
REMARK  status: ('A' for Active; 'I' for Inactive)
REMARK    1  A    between atoms: C_2  and  C_4
REMARK    2  A    between atoms: C_6  and  N_7
REMARK    3  A    between atoms: C_8  and  C_10
REMARK    4  A    between atoms: C_16  and  C_18
REMARK    5  A    between atoms: C_18  and  N_19
REMARK    6  A    between atoms: C_18  and  C_20
REMARK    7  A    between atoms: C_20  and  C_21
REMARK    8  A    between atoms: C_21  and  C_22
REMARK    9  A    between atoms: C_22  and  N_23
REMARK   10  A    between atoms: N_26  and  N_27
REMARK                            x       y       z     vdW  Elec       q    Type
REMARK                         _______ _______ _______ _____ _____    ______ ____
ROOT
ATOM      1  C   UNL     1       2.984   3.532  18.465  0.00  0.00    +0.000 C 
ATOM      2  C   UNL     1       4.397   2.961  18.294  0.00  0.00    +0.000 C 
ATOM      3  C   UNL     1       5.228   4.146  17.817  0.00  0.00    +0.000 C 
ATOM      4  C   UNL     1       4.541   5.357  18.470  0.00  0.00    +0.000 C 
ATOM      5  N   UNL     1       3.266   4.873  18.990  0.00  0.00    +0.000 N 
ATOM      6  C   UNL     1       2.280   5.689  19.514  0.00  0.00    +0.000 C 
ATOM      7  O   UNL     1       1.213   5.215  19.911  0.00  0.00    +0.000 OA
ENDROOT
BRANCH   1   9
ATOM      8  N   UNL     1       0.990   2.091  18.704  0.00  0.00    +0.000 N 
ATOM      9  C   UNL     1       2.163   2.503  19.261  0.00  0.00    +0.000 C 
ATOM     10  O   UNL     1       2.439   2.206  20.422  0.00  0.00    +0.000 OA
ATOM     11  H   UNL     1       0.539   1.333  19.206  0.00  0.00    +0.000 HD
ATOM     12  H   UNL     1       0.986   1.992  17.695  0.00  0.00    +0.000 HD
ENDBRANCH   1   9
BRANCH   3  13
ATOM     13  N   UNL     1       5.261   4.229  16.361  0.00  0.00    +0.000 N 
ATOM     14  C   UNL     1       6.467   4.422  15.687  0.00  0.00    +0.000 C 
ATOM     15  O   UNL     1       7.506   4.670  16.303  0.00  0.00    +0.000 OA
ATOM     16  H   UNL     1       4.473   3.882  15.819  0.00  0.00    +0.000 HD
BRANCH  14  17
ATOM     17  C   UNL     1       6.381   4.331  14.147  0.00  0.00    +0.000 C 
ATOM     18  F   UNL     1       6.618   3.060  13.706  0.00  0.00    +0.000 F 
ATOM     19  F   UNL     1       5.153   4.678  13.677  0.00  0.00    +0.000 F 
ATOM     20  F   UNL     1       7.288   5.130  13.523  0.00  0.00    +0.000 F 
ENDBRANCH  14  17
ENDBRANCH   3  13
BRANCH   6  21
ATOM     21  C   UNL     1       2.559   7.216  19.569  0.00  0.00    +0.000 C 
BRANCH  21  22
ATOM     22  N   UNL     1       2.012   7.803  20.804  0.00  0.00    +0.000 NA
ATOM     23  H   UNL     1       1.606   8.714  20.581  0.00  0.00    +0.000 HD
ATOM     24  H   UNL     1       2.769   7.978  21.462  0.00  0.00    +0.000 HD
ENDBRANCH  21  22
BRANCH  21  25
ATOM     25  C   UNL     1       2.025   7.893  18.295  0.00  0.00    +0.000 C 
BRANCH  25  26
ATOM     26  C   UNL     1       1.835   9.412  18.404  0.00  0.00    +0.000 C 
BRANCH  26  27
ATOM     27  C   UNL     1       0.358   9.779  18.279  0.00  0.00    +0.000 C 
BRANCH  27  28
ATOM     28  N   UNL     1       0.054  10.829  19.248  0.00  0.00    +0.000 NA
ATOM     29  C   UNL     1      -0.364  10.481  20.424  0.00  0.00    +0.000 C 
ATOM     30  N   UNL     1      -0.563   9.198  20.821  0.00  0.00    +0.000 N 
ATOM     31  N   UNL     1      -0.569  11.493  21.304  0.00  0.00    +0.000 N 
ATOM     32  H   UNL     1      -0.688   8.500  20.101  0.00  0.00    +0.000 HD
ATOM     33  H   UNL     1      -1.183   9.056  21.618  0.00  0.00    +0.000 HD
ATOM     34  H   UNL     1      -0.336  12.404  20.943  0.00  0.00    +0.000 HD
BRANCH  31  35
ATOM     35  N   UNL     1      -1.047  11.392  22.549  0.00  0.00    +0.000 N 
ATOM     36  O   UNL     1      -0.418  10.757  23.393  0.00  0.00    +0.000 OA
ATOM     37  O   UNL     1      -2.140  11.937  22.699  0.00  0.00    +0.000 OA
ENDBRANCH  31  35
ENDBRANCH  27  28
ENDBRANCH  26  27
ENDBRANCH  25  26
ENDBRANCH  21  25
ENDBRANCH   6  21
TORSDOF 10
ENDMDL
MODEL 9
REMARK VINA RESULT:      -6.9      3.307      5.620
REMARK  Name = 
REMARK  10 active torsions:
REMARK  status: ('A' for Active; 'I' for Inactive)
REMARK    1  A    between atoms: C_2  and  C_4
REMARK    2  A    between atoms: C_6  and  N_7
REMARK    3  A    between atoms: C_8  and  C_10
REMARK    4  A    between atoms: C_16  and  C_18
REMARK    5  A    between atoms: C_18  and  N_19
REMARK    6  A    between atoms: C_18  and  C_20
REMARK    7  A    between atoms: C_20  and  C_21
REMARK    8  A    between atoms: C_21  and  C_22
REMARK    9  A    between atoms: C_22  and  N_23
REMARK   10  A    between atoms: N_26  and  N_27
REMARK                            x       y       z     vdW  Elec       q    Type
REMARK                         _______ _______ _______ _____ _____    ______ ____
ROOT
ATOM      1  C   UNL     1       3.078   3.518  19.455  0.00  0.00    +0.000 C 
ATOM      2  C   UNL     1       4.529   3.023  19.418  0.00  0.00    +0.000 C 
ATOM      3  C   UNL     1       5.306   4.178  18.795  0.00  0.00    +0.000 C 
ATOM      4  C   UNL     1       4.519   5.424  19.236  0.00  0.00    +0.000 C 
ATOM      5  N   UNL     1       3.256   4.938  19.781  0.00  0.00    +0.000 N 
ATOM      6  C   UNL     1       2.201   5.755  20.143  0.00  0.00    +0.000 C 
ATOM      7  O   UNL     1       1.149   5.275  20.572  0.00  0.00    +0.000 OA
ENDROOT
BRANCH   1   9
ATOM      8  N   UNL     1       2.575   2.618  21.701  0.00  0.00    +0.000 N 
ATOM      9  C   UNL     1       2.289   2.566  20.370  0.00  0.00    +0.000 C 
ATOM     10  O   UNL     1       1.580   1.667  19.920  0.00  0.00    +0.000 OA
ATOM     11  H   UNL     1       1.956   2.057  22.277  0.00  0.00    +0.000 HD
ATOM     12  H   UNL     1       2.786   3.536  22.075  0.00  0.00    +0.000 HD
ENDBRANCH   1   9
BRANCH   3  13
ATOM     13  N   UNL     1       5.396   4.045  17.346  0.00  0.00    +0.000 N 
ATOM     14  C   UNL     1       6.282   4.834  16.613  0.00  0.00    +0.000 C 
ATOM     15  O   UNL     1       6.904   5.755  17.148  0.00  0.00    +0.000 OA
ATOM     16  H   UNL     1       5.027   3.212  16.892  0.00  0.00    +0.000 HD
BRANCH  14  17
ATOM     17  C   UNL     1       6.390   4.482  15.112  0.00  0.00    +0.000 C 
ATOM     18  F   UNL     1       5.393   5.068  14.387  0.00  0.00    +0.000 F 
ATOM     19  F   UNL     1       7.562   4.905  14.565  0.00  0.00    +0.000 F 
ATOM     20  F   UNL     1       6.300   3.146  14.880  0.00  0.00    +0.000 F 
ENDBRANCH  14  17
ENDBRANCH   3  13
BRANCH   6  21
ATOM     21  C   UNL     1       2.383   7.289  19.976  0.00  0.00    +0.000 C 
BRANCH  21  22
ATOM     22  N   UNL     1       1.816   8.011  21.127  0.00  0.00    +0.000 NA
ATOM     23  H   UNL     1       1.586   8.963  20.835  0.00  0.00    +0.000 HD
ATOM     24  H   UNL     1       2.521   8.095  21.858  0.00  0.00    +0.000 HD
ENDBRANCH  21  22
BRANCH  21  25
ATOM     25  C   UNL     1       1.792   7.744  18.632  0.00  0.00    +0.000 C 
BRANCH  25  26
ATOM     26  C   UNL     1       1.931   9.245  18.341  0.00  0.00    +0.000 C 
BRANCH  26  27
ATOM     27  C   UNL     1       0.560   9.916  18.306  0.00  0.00    +0.000 C 
BRANCH  27  28
ATOM     28  N   UNL     1       0.515  10.941  19.345  0.00  0.00    +0.000 NA
ATOM     29  C   UNL     1      -0.097  10.668  20.455  0.00  0.00    +0.000 C 
ATOM     30  N   UNL     1      -0.724   9.492  20.718  0.00  0.00    +0.000 N 
ATOM     31  N   UNL     1      -0.053  11.632  21.409  0.00  0.00    +0.000 N 
ATOM     32  H   UNL     1      -0.996   8.921  19.930  0.00  0.00    +0.000 HD
ATOM     33  H   UNL     1      -1.427   9.504  21.456  0.00  0.00    +0.000 HD
ATOM     34  H   UNL     1       0.486  12.442  21.149  0.00  0.00    +0.000 HD
BRANCH  31  35
ATOM     35  N   UNL     1      -0.650  11.606  22.604  0.00  0.00    +0.000 N 
ATOM     36  O   UNL     1      -1.455  12.487  22.903  0.00  0.00    +0.000 OA
ATOM     37  O   UNL     1      -0.270  10.681  23.321  0.00  0.00    +0.000 OA
ENDBRANCH  31  35
ENDBRANCH  27  28
ENDBRANCH  26  27
ENDBRANCH  25  26
ENDBRANCH  21  25
ENDBRANCH   6  21
TORSDOF 10
ENDMDL
