MODEL 1
REMARK VINA RESULT:      -7.8      0.000      0.000
REMARK  Name = 
REMARK  15 active torsions:
REMARK  status: ('A' for Active; 'I' for Inactive)
REMARK    1  A    between atoms: C_1  and  C_2
REMARK    2  A    between atoms: C_2  and  C_3
REMARK    3  A    between atoms: C_4  and  C_5
REMARK    4  A    between atoms: C_5  and  O_6
REMARK    5  A    between atoms: O_6  and  N_7
REMARK    6  A    between atoms: C_8  and  C_9
REMARK    7  A    between atoms: C_11  and  C_12
REMARK    8  A    between atoms: C_17  and  C_18
REMARK    9  A    between atoms: C_18  and  C_19
REMARK   10  A    between atoms: C_22  and  O_23
REMARK   11  A    between atoms: O_23  and  C_24
REMARK   12  A    between atoms: C_24  and  C_25
REMARK   13  A    between atoms: C_29  and  O_30
REMARK   14  A    between atoms: C_31  and  O_32
REMARK   15  A    between atoms: C_33  and  O_34
REMARK                            x       y       z     vdW  Elec       q    Type
REMARK                         _______ _______ _______ _____ _____    ______ ____
ROOT
ATOM      1  C   UNL     1       4.004   5.192  17.931  0.00  0.00    +0.000 C 
ATOM      2  O   UNL     1       3.326   6.343  18.426  0.00  0.00    +0.000 OA
ATOM      3  C   UNL     1       2.665   6.127  19.678  0.00  0.00    +0.000 C 
ATOM      4  C   UNL     1       1.617   4.996  19.580  0.00  0.00    +0.000 C 
ATOM      5  C   UNL     1       2.269   3.731  19.000  0.00  0.00    +0.000 C 
ATOM      6  C   UNL     1       3.027   4.032  17.698  0.00  0.00    +0.000 C 
ENDROOT
BRANCH   3   7
ATOM      7  C   UNL     1       2.013   7.433  20.092  0.00  0.00    +0.000 A 
ATOM      8  C   UNL     1       1.696   7.668  21.435  0.00  0.00    +0.000 A 
ATOM      9  C   UNL     1       1.006   8.826  21.798  0.00  0.00    +0.000 A 
ATOM     10  C   UNL     1       0.642   9.768  20.829  0.00  0.00    +0.000 A 
ATOM     11 CL   UNL     1      -0.315  11.105  21.359  0.00  0.00    +0.000 Cl
ATOM     12  C   UNL     1       1.012   9.592  19.488  0.00  0.00    +0.000 A 
ATOM     13  C   UNL     1       1.669   8.400  19.136  0.00  0.00    +0.000 A 
BRANCH  12  14
ATOM     14  C   UNL     1       0.711  10.584  18.386  0.00  0.00    +0.000 C 
BRANCH  14  15
ATOM     15  C   UNL     1      -0.756  10.719  18.016  0.00  0.00    +0.000 A 
ATOM     16  C   UNL     1      -1.458   9.643  17.453  0.00  0.00    +0.000 A 
ATOM     17  C   UNL     1      -2.840   9.722  17.252  0.00  0.00    +0.000 A 
ATOM     18  C   UNL     1      -3.547  10.864  17.625  0.00  0.00    +0.000 A 
ATOM     19  C   UNL     1      -2.845  11.964  18.119  0.00  0.00    +0.000 A 
ATOM     20  C   UNL     1      -1.460  11.895  18.305  0.00  0.00    +0.000 A 
BRANCH  18  21
ATOM     21  O   UNL     1      -4.905  10.814  17.447  0.00  0.00    +0.000 OA
BRANCH  21  22
ATOM     22  C   UNL     1      -5.658  11.695  18.284  0.00  0.00    +0.000 C 
ATOM     23  C   UNL     1      -6.545  12.562  17.407  0.00  0.00    +0.000 C 
ENDBRANCH  21  22
ENDBRANCH  18  21
ENDBRANCH  14  15
ENDBRANCH  12  14
ENDBRANCH   3   7
BRANCH   1  25
ATOM     24  N   UNL     1       5.875   5.190  16.350  0.00  0.00    +0.000 NA
ATOM     25  C   UNL     1       4.703   5.635  16.661  0.00  0.00    +0.000 C 
BRANCH  24  26
ATOM     26  O   UNL     1       6.328   5.815  15.183  0.00  0.00    +0.000 OA
BRANCH  26  27
ATOM     27  C   UNL     1       7.238   4.921  14.536  0.00  0.00    +0.000 C 
BRANCH  27  29
ATOM     28  C   UNL     1       5.925   3.552  12.662  0.00  0.00    +0.000 C 
ATOM     29  C   UNL     1       6.518   4.175  13.494  0.00  0.00    +0.000 C 
BRANCH  28  31
ATOM     30  C   UNL     1       5.956   1.507  11.281  0.00  0.00    +0.000 C 
ATOM     31  C   UNL     1       5.179   2.743  11.689  0.00  0.00    +0.000 C 
ENDBRANCH  28  31
ENDBRANCH  27  29
ENDBRANCH  26  27
ENDBRANCH  24  26
ENDBRANCH   1  25
BRANCH   4  32
ATOM     32  O   UNL     1       1.041   4.698  20.861  0.00  0.00    +0.000 OA
ATOM     33  H   UNL     1       1.152   5.466  21.445  0.00  0.00    +0.000 HD
ENDBRANCH   4  32
BRANCH   5  34
ATOM     34  O   UNL     1       1.290   2.705  18.791  0.00  0.00    +0.000 OA
ATOM     35  H   UNL     1       0.544   3.090  18.299  0.00  0.00    +0.000 HD
ENDBRANCH   5  34
BRANCH   6  36
ATOM     36  O   UNL     1       3.707   2.850  17.257  0.00  0.00    +0.000 OA
ATOM     37  H   UNL     1       3.390   2.601  16.374  0.00  0.00    +0.000 HD
ENDBRANCH   6  36
TORSDOF 13
ENDMDL
MODEL 2
REMARK VINA RESULT:      -7.7      2.777      3.993
REMARK  Name = 
REMARK  15 active torsions:
REMARK  status: ('A' for Active; 'I' for Inactive)
REMARK    1  A    between atoms: C_1  and  C_2
REMARK    2  A    between atoms: C_2  and  C_3
REMARK    3  A    between atoms: C_4  and  C_5
REMARK    4  A    between atoms: C_5  and  O_6
REMARK    5  A    between atoms: O_6  and  N_7
REMARK    6  A    between atoms: C_8  and  C_9
REMARK    7  A    between atoms: C_11  and  C_12
REMARK    8  A    between atoms: C_17  and  C_18
REMARK    9  A    between atoms: C_18  and  C_19
REMARK   10  A    between atoms: C_22  and  O_23
REMARK   11  A    between atoms: O_23  and  C_24
REMARK   12  A    between atoms: C_24  and  C_25
REMARK   13  A    between atoms: C_29  and  O_30
REMARK   14  A    between atoms: C_31  and  O_32
REMARK   15  A    between atoms: C_33  and  O_34
REMARK                            x       y       z     vdW  Elec       q    Type
REMARK                         _______ _______ _______ _____ _____    ______ ____
ROOT
ATOM      1  C   UNL     1       5.064   5.411  18.429  0.00  0.00    +0.000 C 
ATOM      2  O   UNL     1       4.176   6.414  18.912  0.00  0.00    +0.000 OA
ATOM      3  C   UNL     1       2.954   5.891  19.446  0.00  0.00    +0.000 C 
ATOM      4  C   UNL     1       2.176   5.074  18.390  0.00  0.00    +0.000 C 
ATOM      5  C   UNL     1       3.094   4.001  17.784  0.00  0.00    +0.000 C 
ATOM      6  C   UNL     1       4.421   4.602  17.295  0.00  0.00    +0.000 C 
ENDROOT
BRANCH   3   7
ATOM      7  C   UNL     1       2.124   7.060  19.943  0.00  0.00    +0.000 A 
ATOM      8  C   UNL     1       1.549   7.026  21.218  0.00  0.00    +0.000 A 
ATOM      9  C   UNL     1       0.705   8.057  21.632  0.00  0.00    +0.000 A 
ATOM     10  C   UNL     1       0.440   9.140  20.787  0.00  0.00    +0.000 A 
ATOM     11 CL   UNL     1      -0.712  10.302  21.341  0.00  0.00    +0.000 Cl
ATOM     12  C   UNL     1       1.060   9.236  19.533  0.00  0.00    +0.000 A 
ATOM     13  C   UNL     1       1.874   8.167  19.117  0.00  0.00    +0.000 A 
BRANCH  12  14
ATOM     14  C   UNL     1       0.877  10.396  18.579  0.00  0.00    +0.000 C 
BRANCH  14  15
ATOM     15  C   UNL     1      -0.545  10.620  18.095  0.00  0.00    +0.000 A 
ATOM     16  C   UNL     1      -1.191   9.667  17.293  0.00  0.00    +0.000 A 
ATOM     17  C   UNL     1      -2.546   9.806  16.973  0.00  0.00    +0.000 A 
ATOM     18  C   UNL     1      -3.283  10.884  17.463  0.00  0.00    +0.000 A 
ATOM     19  C   UNL     1      -2.630  11.872  18.202  0.00  0.00    +0.000 A 
ATOM     20  C   UNL     1      -1.271  11.745  18.508  0.00  0.00    +0.000 A 
BRANCH  18  21
ATOM     21  O   UNL     1      -4.616  10.892  17.147  0.00  0.00    +0.000 OA
BRANCH  21  22
ATOM     22  C   UNL     1      -5.427  11.742  17.963  0.00  0.00    +0.000 C 
ATOM     23  C   UNL     1      -6.657  10.966  18.403  0.00  0.00    +0.000 C 
ENDBRANCH  21  22
ENDBRANCH  18  21
ENDBRANCH  14  15
ENDBRANCH  12  14
ENDBRANCH   3   7
BRANCH   1  25
ATOM     24  N   UNL     1       6.269   7.090  17.115  0.00  0.00    +0.000 NA
ATOM     25  C   UNL     1       6.318   6.142  17.989  0.00  0.00    +0.000 C 
BRANCH  24  26
ATOM     26  O   UNL     1       7.563   7.536  16.824  0.00  0.00    +0.000 OA
BRANCH  26  27
ATOM     27  C   UNL     1       8.217   7.816  18.065  0.00  0.00    +0.000 C 
BRANCH  27  29
ATOM     28  C   UNL     1       8.752  10.425  18.177  0.00  0.00    +0.000 C 
ATOM     29  C   UNL     1       8.511   9.253  18.139  0.00  0.00    +0.000 C 
BRANCH  28  31
ATOM     30  C   UNL     1       9.517  12.356  19.511  0.00  0.00    +0.000 C 
ATOM     31  C   UNL     1       9.050  11.864  18.155  0.00  0.00    +0.000 C 
ENDBRANCH  28  31
ENDBRANCH  27  29
ENDBRANCH  26  27
ENDBRANCH  24  26
ENDBRANCH   1  25
BRANCH   4  32
ATOM     32  O   UNL     1       1.014   4.450  18.957  0.00  0.00    +0.000 OA
ATOM     33  H   UNL     1       1.130   4.377  19.919  0.00  0.00    +0.000 HD
ENDBRANCH   4  32
BRANCH   5  34
ATOM     34  O   UNL     1       2.429   3.307  16.720  0.00  0.00    +0.000 OA
ATOM     35  H   UNL     1       3.055   2.672  16.330  0.00  0.00    +0.000 HD
ENDBRANCH   5  34
BRANCH   6  36
ATOM     36  O   UNL     1       5.282   3.551  16.840  0.00  0.00    +0.000 OA
ATOM     37  H   UNL     1       4.904   3.139  16.047  0.00  0.00    +0.000 HD
ENDBRANCH   6  36
TORSDOF 13
ENDMDL
MODEL 3
REMARK VINA RESULT:      -7.6      2.856      3.716
REMARK  Name = 
REMARK  15 active torsions:
REMARK  status: ('A' for Active; 'I' for Inactive)
REMARK    1  A    between atoms: C_1  and  C_2
REMARK    2  A    between atoms: C_2  and  C_3
REMARK    3  A    between atoms: C_4  and  C_5
REMARK    4  A    between atoms: C_5  and  O_6
REMARK    5  A    between atoms: O_6  and  N_7
REMARK    6  A    between atoms: C_8  and  C_9
REMARK    7  A    between atoms: C_11  and  C_12
REMARK    8  A    between atoms: C_17  and  C_18
REMARK    9  A    between atoms: C_18  and  C_19
REMARK   10  A    between atoms: C_22  and  O_23
REMARK   11  A    between atoms: O_23  and  C_24
REMARK   12  A    between atoms: C_24  and  C_25
REMARK   13  A    between atoms: C_29  and  O_30
REMARK   14  A    between atoms: C_31  and  O_32
REMARK   15  A    between atoms: C_33  and  O_34
REMARK                            x       y       z     vdW  Elec       q    Type
REMARK                         _______ _______ _______ _____ _____    ______ ____
ROOT
ATOM      1  C   UNL     1       5.035   5.043  19.076  0.00  0.00    +0.000 C 
ATOM      2  O   UNL     1       4.138   6.118  18.818  0.00  0.00    +0.000 OA
ATOM      3  C   UNL     1       3.076   6.223  19.772  0.00  0.00    +0.000 C 
ATOM      4  C   UNL     1       2.227   4.933  19.824  0.00  0.00    +0.000 C 
ATOM      5  C   UNL     1       3.141   3.718  20.048  0.00  0.00    +0.000 C 
ATOM      6  C   UNL     1       4.306   3.693  19.045  0.00  0.00    +0.000 C 
ENDROOT
BRANCH   3   7
ATOM      7  C   UNL     1       2.221   7.417  19.390  0.00  0.00    +0.000 A 
ATOM      8  C   UNL     1       2.146   7.833  18.057  0.00  0.00    +0.000 A 
ATOM      9  C   UNL     1       1.440   8.990  17.724  0.00  0.00    +0.000 A 
ATOM     10  C   UNL     1       0.786   9.732  18.714  0.00  0.00    +0.000 A 
ATOM     11 CL   UNL     1       0.045  11.212  18.221  0.00  0.00    +0.000 Cl
ATOM     12  C   UNL     1       0.784   9.297  20.047  0.00  0.00    +0.000 A 
ATOM     13  C   UNL     1       1.536   8.154  20.368  0.00  0.00    +0.000 A 
BRANCH  12  14
ATOM     14  C   UNL     1       0.059  10.004  21.171  0.00  0.00    +0.000 C 
BRANCH  14  15
ATOM     15  C   UNL     1       0.268  11.507  21.235  0.00  0.00    +0.000 A 
ATOM     16  C   UNL     1       1.513  12.074  20.925  0.00  0.00    +0.000 A 
ATOM     17  C   UNL     1       1.662  13.463  20.841  0.00  0.00    +0.000 A 
ATOM     18  C   UNL     1       0.571  14.307  21.045  0.00  0.00    +0.000 A 
ATOM     19  C   UNL     1      -0.653  13.752  21.424  0.00  0.00    +0.000 A 
ATOM     20  C   UNL     1      -0.800  12.365  21.526  0.00  0.00    +0.000 A 
BRANCH  18  21
ATOM     21  O   UNL     1       0.808  15.645  20.874  0.00  0.00    +0.000 OA
BRANCH  21  22
ATOM     22  C   UNL     1       1.833  15.964  19.928  0.00  0.00    +0.000 C 
ATOM     23  C   UNL     1       1.181  16.495  18.663  0.00  0.00    +0.000 C 
ENDBRANCH  21  22
ENDBRANCH  18  21
ENDBRANCH  14  15
ENDBRANCH  12  14
ENDBRANCH   3   7
BRANCH   1  25
ATOM     24  N   UNL     1       6.344   4.183  17.193  0.00  0.00    +0.000 NA
ATOM     25  C   UNL     1       6.122   5.146  18.024  0.00  0.00    +0.000 C 
BRANCH  24  26
ATOM     26  O   UNL     1       7.448   4.491  16.391  0.00  0.00    +0.000 OA
BRANCH  26  27
ATOM     27  C   UNL     1       6.997   5.358  15.345  0.00  0.00    +0.000 C 
BRANCH  27  29
ATOM     28  C   UNL     1       6.258   3.873  13.258  0.00  0.00    +0.000 C 
ATOM     29  C   UNL     1       6.578   4.545  14.195  0.00  0.00    +0.000 C 
BRANCH  28  31
ATOM     30  C   UNL     1       4.513   3.269  11.620  0.00  0.00    +0.000 C 
ATOM     31  C   UNL     1       5.927   3.021  12.108  0.00  0.00    +0.000 C 
ENDBRANCH  28  31
ENDBRANCH  27  29
ENDBRANCH  26  27
ENDBRANCH  24  26
ENDBRANCH   1  25
BRANCH   4  32
ATOM     32  O   UNL     1       1.240   4.992  20.864  0.00  0.00    +0.000 OA
ATOM     33  H   UNL     1       0.449   5.445  20.526  0.00  0.00    +0.000 HD
ENDBRANCH   4  32
BRANCH   5  34
ATOM     34  O   UNL     1       2.390   2.499  19.982  0.00  0.00    +0.000 OA
ATOM     35  H   UNL     1       1.899   2.486  19.142  0.00  0.00    +0.000 HD
ENDBRANCH   5  34
BRANCH   6  36
ATOM     36  O   UNL     1       5.186   2.609  19.363  0.00  0.00    +0.000 OA
ATOM     37  H   UNL     1       5.694   2.359  18.575  0.00  0.00    +0.000 HD
ENDBRANCH   6  36
TORSDOF 13
ENDMDL
MODEL 4
REMARK VINA RESULT:      -7.6      2.592      3.582
REMARK  Name = 
REMARK  15 active torsions:
REMARK  status: ('A' for Active; 'I' for Inactive)
REMARK    1  A    between atoms: C_1  and  C_2
REMARK    2  A    between atoms: C_2  and  C_3
REMARK    3  A    between atoms: C_4  and  C_5
REMARK    4  A    between atoms: C_5  and  O_6
REMARK    5  A    between atoms: O_6  and  N_7
REMARK    6  A    between atoms: C_8  and  C_9
REMARK    7  A    between atoms: C_11  and  C_12
REMARK    8  A    between atoms: C_17  and  C_18
REMARK    9  A    between atoms: C_18  and  C_19
REMARK   10  A    between atoms: C_22  and  O_23
REMARK   11  A    between atoms: O_23  and  C_24
REMARK   12  A    between atoms: C_24  and  C_25
REMARK   13  A    between atoms: C_29  and  O_30
REMARK   14  A    between atoms: C_31  and  O_32
REMARK   15  A    between atoms: C_33  and  O_34
REMARK                            x       y       z     vdW  Elec       q    Type
REMARK                         _______ _______ _______ _____ _____    ______ ____
ROOT
ATOM      1  C   UNL     1       4.478   5.282  18.241  0.00  0.00    +0.000 C 
ATOM      2  O   UNL     1       3.662   6.384  18.626  0.00  0.00    +0.000 OA
ATOM      3  C   UNL     1       2.808   6.106  19.741  0.00  0.00    +0.000 C 
ATOM      4  C   UNL     1       1.857   4.924  19.448  0.00  0.00    +0.000 C 
ATOM      5  C   UNL     1       2.668   3.709  18.973  0.00  0.00    +0.000 C 
ATOM      6  C   UNL     1       3.622   4.078  17.826  0.00  0.00    +0.000 C 
ENDROOT
BRANCH   3   7
ATOM      7  C   UNL     1       2.023   7.366  20.053  0.00  0.00    +0.000 A 
ATOM      8  C   UNL     1       1.527   7.587  21.343  0.00  0.00    +0.000 A 
ATOM      9  C   UNL     1       0.721   8.697  21.602  0.00  0.00    +0.000 A 
ATOM     10  C   UNL     1       0.417   9.606  20.583  0.00  0.00    +0.000 A 
ATOM     11 CL   UNL     1      -0.686  10.876  20.972  0.00  0.00    +0.000 Cl
ATOM     12  C   UNL     1       0.960   9.448  19.300  0.00  0.00    +0.000 A 
ATOM     13  C   UNL     1       1.734   8.302  19.048  0.00  0.00    +0.000 A 
BRANCH  12  14
ATOM     14  C   UNL     1       0.732  10.410  18.155  0.00  0.00    +0.000 C 
BRANCH  14  15
ATOM     15  C   UNL     1       1.217  11.830  18.393  0.00  0.00    +0.000 A 
ATOM     16  C   UNL     1       2.563  12.173  18.199  0.00  0.00    +0.000 A 
ATOM     17  C   UNL     1       2.976  13.507  18.274  0.00  0.00    +0.000 A 
ATOM     18  C   UNL     1       2.054  14.522  18.523  0.00  0.00    +0.000 A 
ATOM     19  C   UNL     1       0.726  14.181  18.787  0.00  0.00    +0.000 A 
ATOM     20  C   UNL     1       0.313  12.845  18.731  0.00  0.00    +0.000 A 
BRANCH  18  21
ATOM     21  O   UNL     1       2.549  15.799  18.511  0.00  0.00    +0.000 OA
BRANCH  21  22
ATOM     22  C   UNL     1       2.141  16.618  19.611  0.00  0.00    +0.000 C 
ATOM     23  C   UNL     1       3.058  16.342  20.790  0.00  0.00    +0.000 C 
ENDBRANCH  21  22
ENDBRANCH  18  21
ENDBRANCH  14  15
ENDBRANCH  12  14
ENDBRANCH   3   7
BRANCH   1  25
ATOM     24  N   UNL     1       5.207   5.373  15.905  0.00  0.00    +0.000 NA
ATOM     25  C   UNL     1       5.360   5.789  17.117  0.00  0.00    +0.000 C 
BRANCH  24  26
ATOM     26  O   UNL     1       6.196   5.925  15.083  0.00  0.00    +0.000 OA
BRANCH  26  27
ATOM     27  C   UNL     1       7.054   4.862  14.659  0.00  0.00    +0.000 C 
BRANCH  27  29
ATOM     28  C   UNL     1       5.875   3.494  12.698  0.00  0.00    +0.000 C 
ATOM     29  C   UNL     1       6.394   4.116  13.579  0.00  0.00    +0.000 C 
BRANCH  28  31
ATOM     30  C   UNL     1       6.151   1.482  11.294  0.00  0.00    +0.000 C 
ATOM     31  C   UNL     1       5.291   2.688  11.617  0.00  0.00    +0.000 C 
ENDBRANCH  28  31
ENDBRANCH  27  29
ENDBRANCH  26  27
ENDBRANCH  24  26
ENDBRANCH   1  25
BRANCH   4  32
ATOM     32  O   UNL     1       1.085   4.567  20.605  0.00  0.00    +0.000 OA
ATOM     33  H   UNL     1       0.164   4.413  20.337  0.00  0.00    +0.000 HD
ENDBRANCH   4  32
BRANCH   5  34
ATOM     34  O   UNL     1       1.798   2.638  18.583  0.00  0.00    +0.000 OA
ATOM     35  H   UNL     1       0.966   3.023  18.255  0.00  0.00    +0.000 HD
ENDBRANCH   5  34
BRANCH   6  36
ATOM     36  O   UNL     1       4.431   2.943  17.494  0.00  0.00    +0.000 OA
ATOM     37  H   UNL     1       4.451   2.326  18.243  0.00  0.00    +0.000 HD
ENDBRANCH   6  36
TORSDOF 13
ENDMDL
MODEL 5
REMARK VINA RESULT:      -7.5      2.536      3.722
REMARK  Name = 
REMARK  15 active torsions:
REMARK  status: ('A' for Active; 'I' for Inactive)
REMARK    1  A    between atoms: C_1  and  C_2
REMARK    2  A    between atoms: C_2  and  C_3
REMARK    3  A    between atoms: C_4  and  C_5
REMARK    4  A    between atoms: C_5  and  O_6
REMARK    5  A    between atoms: O_6  and  N_7
REMARK    6  A    between atoms: C_8  and  C_9
REMARK    7  A    between atoms: C_11  and  C_12
REMARK    8  A    between atoms: C_17  and  C_18
REMARK    9  A    between atoms: C_18  and  C_19
REMARK   10  A    between atoms: C_22  and  O_23
REMARK   11  A    between atoms: O_23  and  C_24
REMARK   12  A    between atoms: C_24  and  C_25
REMARK   13  A    between atoms: C_29  and  O_30
REMARK   14  A    between atoms: C_31  and  O_32
REMARK   15  A    between atoms: C_33  and  O_34
REMARK                            x       y       z     vdW  Elec       q    Type
REMARK                         _______ _______ _______ _____ _____    ______ ____
ROOT
ATOM      1  C   UNL     1       4.313   5.407  18.269  0.00  0.00    +0.000 C 
ATOM      2  O   UNL     1       3.554   6.532  18.700  0.00  0.00    +0.000 OA
ATOM      3  C   UNL     1       2.700   6.256  19.816  0.00  0.00    +0.000 C 
ATOM      4  C   UNL     1       1.691   5.130  19.496  0.00  0.00    +0.000 C 
ATOM      5  C   UNL     1       2.440   3.895  18.971  0.00  0.00    +0.000 C 
ATOM      6  C   UNL     1       3.397   4.258  17.825  0.00  0.00    +0.000 C 
ENDROOT
BRANCH   3   7
ATOM      7  C   UNL     1       1.978   7.541  20.180  0.00  0.00    +0.000 A 
ATOM      8  C   UNL     1       1.719   7.848  21.520  0.00  0.00    +0.000 A 
ATOM      9  C   UNL     1       0.967   8.979  21.845  0.00  0.00    +0.000 A 
ATOM     10  C   UNL     1       0.484   9.822  20.839  0.00  0.00    +0.000 A 
ATOM     11 CL   UNL     1      -0.537  11.125  21.334  0.00  0.00    +0.000 Cl
ATOM     12  C   UNL     1       0.792   9.578  19.493  0.00  0.00    +0.000 A 
ATOM     13  C   UNL     1       1.513   8.411  19.184  0.00  0.00    +0.000 A 
BRANCH  12  14
ATOM     14  C   UNL     1       0.360  10.466  18.347  0.00  0.00    +0.000 C 
BRANCH  14  15
ATOM     15  C   UNL     1       0.875  11.894  18.402  0.00  0.00    +0.000 A 
ATOM     16  C   UNL     1      -0.009  12.973  18.543  0.00  0.00    +0.000 A 
ATOM     17  C   UNL     1       0.475  14.270  18.742  0.00  0.00    +0.000 A 
ATOM     18  C   UNL     1       1.846  14.510  18.825  0.00  0.00    +0.000 A 
ATOM     19  C   UNL     1       2.733  13.453  18.615  0.00  0.00    +0.000 A 
ATOM     20  C   UNL     1       2.251  12.157  18.397  0.00  0.00    +0.000 A 
BRANCH  18  21
ATOM     21  O   UNL     1       2.214  15.803  19.088  0.00  0.00    +0.000 OA
BRANCH  21  22
ATOM     22  C   UNL     1       3.618  16.007  19.276  0.00  0.00    +0.000 C 
ATOM     23  C   UNL     1       3.881  16.260  20.751  0.00  0.00    +0.000 C 
ENDBRANCH  21  22
ENDBRANCH  18  21
ENDBRANCH  14  15
ENDBRANCH  12  14
ENDBRANCH   3   7
BRANCH   1  25
ATOM     24  N   UNL     1       5.010   5.553  15.925  0.00  0.00    +0.000 NA
ATOM     25  C   UNL     1       5.205   5.910  17.151  0.00  0.00    +0.000 C 
BRANCH  24  26
ATOM     26  O   UNL     1       6.016   6.083  15.110  0.00  0.00    +0.000 OA
BRANCH  26  27
ATOM     27  C   UNL     1       6.970   5.045  14.865  0.00  0.00    +0.000 C 
BRANCH  27  29
ATOM     28  C   UNL     1       6.094   3.534  12.851  0.00  0.00    +0.000 C 
ATOM     29  C   UNL     1       6.499   4.213  13.750  0.00  0.00    +0.000 C 
BRANCH  28  31
ATOM     30  C   UNL     1       4.163   3.195  11.352  0.00  0.00    +0.000 C 
ATOM     31  C   UNL     1       5.534   2.705  11.775  0.00  0.00    +0.000 C 
ENDBRANCH  28  31
ENDBRANCH  27  29
ENDBRANCH  26  27
ENDBRANCH  24  26
ENDBRANCH   1  25
BRANCH   4  32
ATOM     32  O   UNL     1       0.918   4.771  20.651  0.00  0.00    +0.000 OA
ATOM     33  H   UNL     1       1.356   5.115  21.447  0.00  0.00    +0.000 HD
ENDBRANCH   4  32
BRANCH   5  34
ATOM     34  O   UNL     1       1.516   2.880  18.558  0.00  0.00    +0.000 OA
ATOM     35  H   UNL     1       1.110   2.493  19.353  0.00  0.00    +0.000 HD
ENDBRANCH   5  34
BRANCH   6  36
ATOM     36  O   UNL     1       4.148   3.099  17.446  0.00  0.00    +0.000 OA
ATOM     37  H   UNL     1       5.085   3.234  17.657  0.00  0.00    +0.000 HD
ENDBRANCH   6  36
TORSDOF 13
ENDMDL
MODEL 6
REMARK VINA RESULT:      -7.5      2.890      4.284
REMARK  Name = 
REMARK  15 active torsions:
REMARK  status: ('A' for Active; 'I' for Inactive)
REMARK    1  A    between atoms: C_1  and  C_2
REMARK    2  A    between atoms: C_2  and  C_3
REMARK    3  A    between atoms: C_4  and  C_5
REMARK    4  A    between atoms: C_5  and  O_6
REMARK    5  A    between atoms: O_6  and  N_7
REMARK    6  A    between atoms: C_8  and  C_9
REMARK    7  A    between atoms: C_11  and  C_12
REMARK    8  A    between atoms: C_17  and  C_18
REMARK    9  A    between atoms: C_18  and  C_19
REMARK   10  A    between atoms: C_22  and  O_23
REMARK   11  A    between atoms: O_23  and  C_24
REMARK   12  A    between atoms: C_24  and  C_25
REMARK   13  A    between atoms: C_29  and  O_30
REMARK   14  A    between atoms: C_31  and  O_32
REMARK   15  A    between atoms: C_33  and  O_34
REMARK                            x       y       z     vdW  Elec       q    Type
REMARK                         _______ _______ _______ _____ _____    ______ ____
ROOT
ATOM      1  C   UNL     1       4.458   5.229  18.481  0.00  0.00    +0.000 C 
ATOM      2  O   UNL     1       3.616   6.335  18.792  0.00  0.00    +0.000 OA
ATOM      3  C   UNL     1       2.700   6.077  19.862  0.00  0.00    +0.000 C 
ATOM      4  C   UNL     1       1.774   4.883  19.543  0.00  0.00    +0.000 C 
ATOM      5  C   UNL     1       2.617   3.662  19.144  0.00  0.00    +0.000 C 
ATOM      6  C   UNL     1       3.633   4.011  18.046  0.00  0.00    +0.000 C 
ENDROOT
BRANCH   3   7
ATOM      7  C   UNL     1       1.892   7.340  20.100  0.00  0.00    +0.000 A 
ATOM      8  C   UNL     1       1.083   7.456  21.235  0.00  0.00    +0.000 A 
ATOM      9  C   UNL     1       0.265   8.575  21.399  0.00  0.00    +0.000 A 
ATOM     10  C   UNL     1       0.260   9.596  20.442  0.00  0.00    +0.000 A 
ATOM     11 CL   UNL     1      -0.874  10.878  20.672  0.00  0.00    +0.000 Cl
ATOM     12  C   UNL     1       1.115   9.539  19.332  0.00  0.00    +0.000 A 
ATOM     13  C   UNL     1       1.900   8.385  19.164  0.00  0.00    +0.000 A 
BRANCH  12  14
ATOM     14  C   UNL     1       1.217  10.621  18.280  0.00  0.00    +0.000 C 
BRANCH  14  15
ATOM     15  C   UNL     1       1.785  11.945  18.763  0.00  0.00    +0.000 A 
ATOM     16  C   UNL     1       1.788  12.272  20.127  0.00  0.00    +0.000 A 
ATOM     17  C   UNL     1       2.444  13.422  20.582  0.00  0.00    +0.000 A 
ATOM     18  C   UNL     1       3.123  14.251  19.691  0.00  0.00    +0.000 A 
ATOM     19  C   UNL     1       3.064  13.969  18.325  0.00  0.00    +0.000 A 
ATOM     20  C   UNL     1       2.394  12.831  17.864  0.00  0.00    +0.000 A 
BRANCH  18  21
ATOM     21  O   UNL     1       3.788  15.312  20.246  0.00  0.00    +0.000 OA
BRANCH  21  22
ATOM     22  C   UNL     1       4.796  14.965  21.199  0.00  0.00    +0.000 C 
ATOM     23  C   UNL     1       6.148  14.980  20.507  0.00  0.00    +0.000 C 
ENDBRANCH  21  22
ENDBRANCH  18  21
ENDBRANCH  14  15
ENDBRANCH  12  14
ENDBRANCH   3   7
BRANCH   1  25
ATOM     24  N   UNL     1       5.091   5.624  16.148  0.00  0.00    +0.000 NA
ATOM     25  C   UNL     1       5.401   5.716  17.398  0.00  0.00    +0.000 C 
BRANCH  24  26
ATOM     26  O   UNL     1       6.161   6.061  15.359  0.00  0.00    +0.000 OA
BRANCH  26  27
ATOM     27  C   UNL     1       7.001   4.931  15.101  0.00  0.00    +0.000 C 
BRANCH  27  29
ATOM     28  C   UNL     1       6.108   3.627  12.955  0.00  0.00    +0.000 C 
ATOM     29  C   UNL     1       6.502   4.223  13.915  0.00  0.00    +0.000 C 
BRANCH  28  31
ATOM     30  C   UNL     1       4.258   3.236  11.369  0.00  0.00    +0.000 C 
ATOM     31  C   UNL     1       5.657   2.840  11.799  0.00  0.00    +0.000 C 
ENDBRANCH  28  31
ENDBRANCH  27  29
ENDBRANCH  26  27
ENDBRANCH  24  26
ENDBRANCH   1  25
BRANCH   4  32
ATOM     32  O   UNL     1       0.939   4.549  20.662  0.00  0.00    +0.000 OA
ATOM     33  H   UNL     1       1.124   3.634  20.934  0.00  0.00    +0.000 HD
ENDBRANCH   4  32
BRANCH   5  34
ATOM     34  O   UNL     1       1.776   2.577  18.730  0.00  0.00    +0.000 OA
ATOM     35  H   UNL     1       2.165   1.747  19.056  0.00  0.00    +0.000 HD
ENDBRANCH   5  34
BRANCH   6  36
ATOM     36  O   UNL     1       4.466   2.873  17.788  0.00  0.00    +0.000 OA
ATOM     37  H   UNL     1       5.358   3.037  18.134  0.00  0.00    +0.000 HD
ENDBRANCH   6  36
TORSDOF 13
ENDMDL
MODEL 7
REMARK VINA RESULT:      -7.4      2.887      4.251
REMARK  Name = 
REMARK  15 active torsions:
REMARK  status: ('A' for Active; 'I' for Inactive)
REMARK    1  A    between atoms: C_1  and  C_2
REMARK    2  A    between atoms: C_2  and  C_3
REMARK    3  A    between atoms: C_4  and  C_5
REMARK    4  A    between atoms: C_5  and  O_6
REMARK    5  A    between atoms: O_6  and  N_7
REMARK    6  A    between atoms: C_8  and  C_9
REMARK    7  A    between atoms: C_11  and  C_12
REMARK    8  A    between atoms: C_17  and  C_18
REMARK    9  A    between atoms: C_18  and  C_19
REMARK   10  A    between atoms: C_22  and  O_23
REMARK   11  A    between atoms: O_23  and  C_24
REMARK   12  A    between atoms: C_24  and  C_25
REMARK   13  A    between atoms: C_29  and  O_30
REMARK   14  A    between atoms: C_31  and  O_32
REMARK   15  A    between atoms: C_33  and  O_34
REMARK                            x       y       z     vdW  Elec       q    Type
REMARK                         _______ _______ _______ _____ _____    ______ ____
ROOT
ATOM      1  C   UNL     1       4.292   5.330  17.911  0.00  0.00    +0.000 C 
ATOM      2  O   UNL     1       3.439   6.388  18.337  0.00  0.00    +0.000 OA
ATOM      3  C   UNL     1       2.874   6.183  19.637  0.00  0.00    +0.000 C 
ATOM      4  C   UNL     1       2.040   4.884  19.696  0.00  0.00    +0.000 C 
ATOM      5  C   UNL     1       2.884   3.701  19.196  0.00  0.00    +0.000 C 
ATOM      6  C   UNL     1       3.528   4.001  17.833  0.00  0.00    +0.000 C 
ENDROOT
BRANCH   3   7
ATOM      7  C   UNL     1       2.017   7.391  19.969  0.00  0.00    +0.000 A 
ATOM      8  C   UNL     1       1.247   7.409  21.137  0.00  0.00    +0.000 A 
ATOM      9  C   UNL     1       0.384   8.477  21.388  0.00  0.00    +0.000 A 
ATOM     10  C   UNL     1       0.295   9.544  20.487  0.00  0.00    +0.000 A 
ATOM     11 CL   UNL     1      -0.890  10.755  20.825  0.00  0.00    +0.000 Cl
ATOM     12  C   UNL     1       1.109   9.586  19.346  0.00  0.00    +0.000 A 
ATOM     13  C   UNL     1       1.940   8.481  19.089  0.00  0.00    +0.000 A 
BRANCH  12  14
ATOM     14  C   UNL     1       1.119  10.724  18.350  0.00  0.00    +0.000 C 
BRANCH  14  15
ATOM     15  C   UNL     1       1.875  11.966  18.790  0.00  0.00    +0.000 A 
ATOM     16  C   UNL     1       2.709  12.655  17.898  0.00  0.00    +0.000 A 
ATOM     17  C   UNL     1       3.285  13.877  18.260  0.00  0.00    +0.000 A 
ATOM     18  C   UNL     1       3.023  14.442  19.508  0.00  0.00    +0.000 A 
ATOM     19  C   UNL     1       2.251  13.729  20.426  0.00  0.00    +0.000 A 
ATOM     20  C   UNL     1       1.689  12.497  20.073  0.00  0.00    +0.000 A 
BRANCH  18  21
ATOM     21  O   UNL     1       3.581  15.672  19.738  0.00  0.00    +0.000 OA
BRANCH  21  22
ATOM     22  C   UNL     1       4.971  15.778  19.414  0.00  0.00    +0.000 C 
ATOM     23  C   UNL     1       5.787  15.372  20.629  0.00  0.00    +0.000 C 
ENDBRANCH  21  22
ENDBRANCH  18  21
ENDBRANCH  14  15
ENDBRANCH  12  14
ENDBRANCH   3   7
BRANCH   1  25
ATOM     24  N   UNL     1       5.855   5.148  16.034  0.00  0.00    +0.000 NA
ATOM     25  C   UNL     1       4.854   5.762  16.570  0.00  0.00    +0.000 C 
BRANCH  24  26
ATOM     26  O   UNL     1       6.230   5.793  14.850  0.00  0.00    +0.000 OA
BRANCH  26  27
ATOM     27  C   UNL     1       7.178   4.956  14.180  0.00  0.00    +0.000 C 
BRANCH  27  29
ATOM     28  C   UNL     1       5.868   3.371  12.483  0.00  0.00    +0.000 C 
ATOM     29  C   UNL     1       6.464   4.073  13.248  0.00  0.00    +0.000 C 
BRANCH  28  31
ATOM     30  C   UNL     1       3.892   3.317  11.006  0.00  0.00    +0.000 C 
ATOM     31  C   UNL     1       5.100   2.563  11.527  0.00  0.00    +0.000 C 
ENDBRANCH  28  31
ENDBRANCH  27  29
ENDBRANCH  26  27
ENDBRANCH  24  26
ENDBRANCH   1  25
BRANCH   4  32
ATOM     32  O   UNL     1       1.574   4.616  21.027  0.00  0.00    +0.000 OA
ATOM     33  H   UNL     1       2.211   4.034  21.475  0.00  0.00    +0.000 HD
ENDBRANCH   4  32
BRANCH   5  34
ATOM     34  O   UNL     1       2.095   2.506  19.131  0.00  0.00    +0.000 OA
ATOM     35  H   UNL     1       1.489   2.497  19.893  0.00  0.00    +0.000 HD
ENDBRANCH   5  34
BRANCH   6  36
ATOM     36  O   UNL     1       4.389   2.917  17.463  0.00  0.00    +0.000 OA
ATOM     37  H   UNL     1       5.174   2.915  18.032  0.00  0.00    +0.000 HD
ENDBRANCH   6  36
TORSDOF 13
ENDMDL
MODEL 8
REMARK VINA RESULT:      -7.4      2.859      3.784
REMARK  Name = 
REMARK  15 active torsions:
REMARK  status: ('A' for Active; 'I' for Inactive)
REMARK    1  A    between atoms: C_1  and  C_2
REMARK    2  A    between atoms: C_2  and  C_3
REMARK    3  A    between atoms: C_4  and  C_5
REMARK    4  A    between atoms: C_5  and  O_6
REMARK    5  A    between atoms: O_6  and  N_7
REMARK    6  A    between atoms: C_8  and  C_9
REMARK    7  A    between atoms: C_11  and  C_12
REMARK    8  A    between atoms: C_17  and  C_18
REMARK    9  A    between atoms: C_18  and  C_19
REMARK   10  A    between atoms: C_22  and  O_23
REMARK   11  A    between atoms: O_23  and  C_24
REMARK   12  A    between atoms: C_24  and  C_25
REMARK   13  A    between atoms: C_29  and  O_30
REMARK   14  A    between atoms: C_31  and  O_32
REMARK   15  A    between atoms: C_33  and  O_34
REMARK                            x       y       z     vdW  Elec       q    Type
REMARK                         _______ _______ _______ _____ _____    ______ ____
ROOT
ATOM      1  C   UNL     1       5.049   5.628  18.423  0.00  0.00    +0.000 C 
ATOM      2  O   UNL     1       4.009   6.594  18.306  0.00  0.00    +0.000 OA
ATOM      3  C   UNL     1       3.190   6.701  19.476  0.00  0.00    +0.000 C 
ATOM      4  C   UNL     1       2.515   5.355  19.823  0.00  0.00    +0.000 C 
ATOM      5  C   UNL     1       3.578   4.249  19.913  0.00  0.00    +0.000 C 
ATOM      6  C   UNL     1       4.477   4.225  18.667  0.00  0.00    +0.000 C 
ENDROOT
BRANCH   3   7
ATOM      7  C   UNL     1       2.150   7.776  19.220  0.00  0.00    +0.000 A 
ATOM      8  C   UNL     1       1.820   8.142  17.910  0.00  0.00    +0.000 A 
ATOM      9  C   UNL     1       0.939   9.199  17.681  0.00  0.00    +0.000 A 
ATOM     10  C   UNL     1       0.363   9.889  18.753  0.00  0.00    +0.000 A 
ATOM     11 CL   UNL     1      -0.617  11.258  18.367  0.00  0.00    +0.000 Cl
ATOM     12  C   UNL     1       0.619   9.496  20.075  0.00  0.00    +0.000 A 
ATOM     13  C   UNL     1       1.542   8.457  20.286  0.00  0.00    +0.000 A 
BRANCH  12  14
ATOM     14  C   UNL     1      -0.002  10.146  21.291  0.00  0.00    +0.000 C 
BRANCH  14  15
ATOM     15  C   UNL     1       0.180  11.651  21.387  0.00  0.00    +0.000 A 
ATOM     16  C   UNL     1      -0.748  12.446  22.077  0.00  0.00    +0.000 A 
ATOM     17  C   UNL     1      -0.501  13.807  22.290  0.00  0.00    +0.000 A 
ATOM     18  C   UNL     1       0.681  14.392  21.838  0.00  0.00    +0.000 A 
ATOM     19  C   UNL     1       1.575  13.624  21.090  0.00  0.00    +0.000 A 
ATOM     20  C   UNL     1       1.322  12.267  20.860  0.00  0.00    +0.000 A 
BRANCH  18  21
ATOM     21  O   UNL     1       0.855  15.713  22.156  0.00  0.00    +0.000 OA
BRANCH  21  22
ATOM     22  C   UNL     1      -0.195  16.584  21.725  0.00  0.00    +0.000 C 
ATOM     23  C   UNL     1       0.051  16.963  20.274  0.00  0.00    +0.000 C 
ENDBRANCH  21  22
ENDBRANCH  18  21
ENDBRANCH  14  15
ENDBRANCH  12  14
ENDBRANCH   3   7
BRANCH   1  25
ATOM     24  N   UNL     1       5.277   5.964  16.008  0.00  0.00    +0.000 NA
ATOM     25  C   UNL     1       5.850   5.720  17.139  0.00  0.00    +0.000 C 
BRANCH  24  26
ATOM     26  O   UNL     1       6.219   5.911  14.975  0.00  0.00    +0.000 OA
BRANCH  26  27
ATOM     27  C   UNL     1       6.710   4.569  14.903  0.00  0.00    +0.000 C 
BRANCH  27  29
ATOM     28  C   UNL     1       5.776   3.395  12.699  0.00  0.00    +0.000 C 
ATOM     29  C   UNL     1       6.190   3.932  13.685  0.00  0.00    +0.000 C 
BRANCH  28  31
ATOM     30  C   UNL     1       3.912   3.138  11.103  0.00  0.00    +0.000 C 
ATOM     31  C   UNL     1       5.297   2.676  11.511  0.00  0.00    +0.000 C 
ENDBRANCH  28  31
ENDBRANCH  27  29
ENDBRANCH  26  27
ENDBRANCH  24  26
ENDBRANCH   1  25
BRANCH   4  32
ATOM     32  O   UNL     1       1.792   5.431  21.060  0.00  0.00    +0.000 OA
ATOM     33  H   UNL     1       2.351   5.860  21.729  0.00  0.00    +0.000 HD
ENDBRANCH   4  32
BRANCH   5  34
ATOM     34  O   UNL     1       2.963   2.970  20.118  0.00  0.00    +0.000 OA
ATOM     35  H   UNL     1       3.637   2.358  20.462  0.00  0.00    +0.000 HD
ENDBRANCH   5  34
BRANCH   6  36
ATOM     36  O   UNL     1       5.516   3.254  18.846  0.00  0.00    +0.000 OA
ATOM     37  H   UNL     1       6.306   3.527  18.354  0.00  0.00    +0.000 HD
ENDBRANCH   6  36
TORSDOF 13
ENDMDL
MODEL 9
REMARK VINA RESULT:      -7.4      0.970      1.307
REMARK  Name = 
REMARK  15 active torsions:
REMARK  status: ('A' for Active; 'I' for Inactive)
REMARK    1  A    between atoms: C_1  and  C_2
REMARK    2  A    between atoms: C_2  and  C_3
REMARK    3  A    between atoms: C_4  and  C_5
REMARK    4  A    between atoms: C_5  and  O_6
REMARK    5  A    between atoms: O_6  and  N_7
REMARK    6  A    between atoms: C_8  and  C_9
REMARK    7  A    between atoms: C_11  and  C_12
REMARK    8  A    between atoms: C_17  and  C_18
REMARK    9  A    between atoms: C_18  and  C_19
REMARK   10  A    between atoms: C_22  and  O_23
REMARK   11  A    between atoms: O_23  and  C_24
REMARK   12  A    between atoms: C_24  and  C_25
REMARK   13  A    between atoms: C_29  and  O_30
REMARK   14  A    between atoms: C_31  and  O_32
REMARK   15  A    between atoms: C_33  and  O_34
REMARK                            x       y       z     vdW  Elec       q    Type
REMARK                         _______ _______ _______ _____ _____    ______ ____
ROOT
ATOM      1  C   UNL     1       4.476   4.267  18.272  0.00  0.00    +0.000 C 
ATOM      2  O   UNL     1       3.818   5.475  18.638  0.00  0.00    +0.000 OA
ATOM      3  C   UNL     1       2.859   5.312  19.690  0.00  0.00    +0.000 C 
ATOM      4  C   UNL     1       1.758   4.300  19.303  0.00  0.00    +0.000 C 
ATOM      5  C   UNL     1       2.400   2.983  18.842  0.00  0.00    +0.000 C 
ATOM      6  C   UNL     1       3.473   3.221  17.768  0.00  0.00    +0.000 C 
ENDROOT
BRANCH   3   7
ATOM      7  C   UNL     1       2.261   6.673  19.991  0.00  0.00    +0.000 A 
ATOM      8  C   UNL     1       2.028   7.064  21.314  0.00  0.00    +0.000 A 
ATOM      9  C   UNL     1       1.386   8.274  21.584  0.00  0.00    +0.000 A 
ATOM     10  C   UNL     1       0.986   9.112  20.538  0.00  0.00    +0.000 A 
ATOM     11 CL   UNL     1       0.090  10.525  20.967  0.00  0.00    +0.000 Cl
ATOM     12  C   UNL     1       1.271   8.779  19.206  0.00  0.00    +0.000 A 
ATOM     13  C   UNL     1       1.881   7.538  18.954  0.00  0.00    +0.000 A 
BRANCH  12  14
ATOM     14  C   UNL     1       0.927   9.651  18.019  0.00  0.00    +0.000 C 
BRANCH  14  15
ATOM     15  C   UNL     1      -0.462  10.264  18.044  0.00  0.00    +0.000 A 
ATOM     16  C   UNL     1      -0.638  11.641  18.249  0.00  0.00    +0.000 A 
ATOM     17  C   UNL     1      -1.903  12.224  18.124  0.00  0.00    +0.000 A 
ATOM     18  C   UNL     1      -3.009  11.451  17.773  0.00  0.00    +0.000 A 
ATOM     19  C   UNL     1      -2.855  10.070  17.637  0.00  0.00    +0.000 A 
ATOM     20  C   UNL     1      -1.593   9.481  17.780  0.00  0.00    +0.000 A 
BRANCH  18  21
ATOM     21  O   UNL     1      -4.189  12.128  17.612  0.00  0.00    +0.000 OA
BRANCH  21  22
ATOM     22  C   UNL     1      -5.272  11.346  17.099  0.00  0.00    +0.000 C 
ATOM     23  C   UNL     1      -6.457  11.479  18.040  0.00  0.00    +0.000 C 
ENDBRANCH  21  22
ENDBRANCH  18  21
ENDBRANCH  14  15
ENDBRANCH  12  14
ENDBRANCH   3   7
BRANCH   1  25
ATOM     24  N   UNL     1       6.660   4.090  17.177  0.00  0.00    +0.000 NA
ATOM     25  C   UNL     1       5.498   4.652  17.220  0.00  0.00    +0.000 C 
BRANCH  24  26
ATOM     26  O   UNL     1       7.438   4.681  16.176  0.00  0.00    +0.000 OA
BRANCH  26  27
ATOM     27  C   UNL     1       6.552   5.354  15.276  0.00  0.00    +0.000 C 
BRANCH  27  29
ATOM     28  C   UNL     1       6.075   3.786  13.173  0.00  0.00    +0.000 C 
ATOM     29  C   UNL     1       6.284   4.481  14.124  0.00  0.00    +0.000 C 
BRANCH  28  31
ATOM     30  C   UNL     1       4.436   3.144  11.443  0.00  0.00    +0.000 C 
ATOM     31  C   UNL     1       5.850   2.979  11.966  0.00  0.00    +0.000 C 
ENDBRANCH  28  31
ENDBRANCH  27  29
ENDBRANCH  26  27
ENDBRANCH  24  26
ENDBRANCH   1  25
BRANCH   4  32
ATOM     32  O   UNL     1       0.866   4.045  20.399  0.00  0.00    +0.000 OA
ATOM     33  H   UNL     1       0.044   4.544  20.261  0.00  0.00    +0.000 HD
ENDBRANCH   4  32
BRANCH   5  34
ATOM     34  O   UNL     1       1.402   2.070  18.367  0.00  0.00    +0.000 OA
ATOM     35  H   UNL     1       1.611   1.841  17.444  0.00  0.00    +0.000 HD
ENDBRANCH   5  34
BRANCH   6  36
ATOM     36  O   UNL     1       4.116   1.980  17.452  0.00  0.00    +0.000 OA
ATOM     37  H   UNL     1       4.956   2.154  16.999  0.00  0.00    +0.000 HD
ENDBRANCH   6  36
TORSDOF 13
ENDMDL
