MODEL 1
REMARK VINA RESULT:      -9.4      0.000      0.000
REMARK  Name = 
REMARK  3 active torsions:
REMARK  status: ('A' for Active; 'I' for Inactive)
REMARK    1  A    between atoms: C_5  and  C_6
REMARK    2  A    between atoms: N_8  and  C_9
REMARK    3  A    between atoms: C_16  and  C_17
REMARK                            x       y       z     vdW  Elec       q    Type
REMARK                         _______ _______ _______ _____ _____    ______ ____
ROOT
ATOM      1  C   UNL     1       3.299   4.886  18.199  0.00  0.00    +0.000 A 
ATOM      2  N   UNL     1       4.028   4.271  17.259  0.00  0.00    +0.000 NA
ATOM      3  N   UNL     1       4.578   5.262  16.509  0.00  0.00    +0.000 N 
ATOM      4  C   UNL     1       4.188   6.508  16.952  0.00  0.00    +0.000 A 
ATOM      5  C   UNL     1       3.329   6.291  18.003  0.00  0.00    +0.000 A 
ENDROOT
BRANCH   5   6
ATOM      6  C   UNL     1       2.580   7.322  18.755  0.00  0.00    +0.000 A 
ATOM      7  N   UNL     1       2.040   8.370  18.171  0.00  0.00    +0.000 NA
ATOM      8  C   UNL     1       1.426   9.077  19.159  0.00  0.00    +0.000 A 
ATOM      9  C   UNL     1       0.796  10.323  19.089  0.00  0.00    +0.000 A 
ATOM     10  C   UNL     1       0.245  10.852  20.260  0.00  0.00    +0.000 A 
ATOM     11 CL   UNL     1      -0.311  12.488  20.198  0.00  0.00    +0.000 Cl
ATOM     12  C   UNL     1       0.209  10.092  21.440  0.00  0.00    +0.000 A 
ATOM     13 CL   UNL     1      -0.594  10.661  22.864  0.00  0.00    +0.000 Cl
ATOM     14  C   UNL     1       0.835   8.836  21.518  0.00  0.00    +0.000 A 
ATOM     15  C   UNL     1       1.492   8.393  20.368  0.00  0.00    +0.000 A 
ATOM     16  N   UNL     1       2.313   7.322  20.102  0.00  0.00    +0.000 N 
ATOM     17  H   UNL     1       2.609   6.614  20.759  0.00  0.00    +0.000 HD
ENDBRANCH   5   6
BRANCH   1  22
ATOM     18  F   UNL     1       0.932   1.986  22.373  0.00  0.00    +0.000 F 
ATOM     19  C   UNL     1       1.494   2.679  21.376  0.00  0.00    +0.000 A 
ATOM     20  C   UNL     1       0.690   3.286  20.425  0.00  0.00    +0.000 A 
ATOM     21  C   UNL     1       1.284   4.013  19.392  0.00  0.00    +0.000 A 
ATOM     22  C   UNL     1       2.683   4.116  19.285  0.00  0.00    +0.000 A 
ATOM     23  C   UNL     1       3.478   3.506  20.268  0.00  0.00    +0.000 A 
ATOM     24  C   UNL     1       2.881   2.791  21.314  0.00  0.00    +0.000 A 
ENDBRANCH   1  22
BRANCH   3  25
ATOM     25  C   UNL     1       5.471   4.936  15.449  0.00  0.00    +0.000 A 
ATOM     26  C   UNL     1       6.765   5.479  15.456  0.00  0.00    +0.000 A 
ATOM     27  C   UNL     1       7.645   5.223  14.402  0.00  0.00    +0.000 A 
ATOM     28  C   UNL     1       7.241   4.418  13.341  0.00  0.00    +0.000 A 
ATOM     29  C   UNL     1       5.964   3.859  13.336  0.00  0.00    +0.000 A 
ATOM     30  C   UNL     1       5.077   4.110  14.388  0.00  0.00    +0.000 A 
ENDBRANCH   3  25
TORSDOF 3
ENDMDL
MODEL 2
REMARK VINA RESULT:      -9.4      0.222      1.287
REMARK  Name = 
REMARK  3 active torsions:
REMARK  status: ('A' for Active; 'I' for Inactive)
REMARK    1  A    between atoms: C_5  and  C_6
REMARK    2  A    between atoms: N_8  and  C_9
REMARK    3  A    between atoms: C_16  and  C_17
REMARK                            x       y       z     vdW  Elec       q    Type
REMARK                         _______ _______ _______ _____ _____    ______ ____
ROOT
ATOM      1  C   UNL     1       3.229   4.994  18.364  0.00  0.00    +0.000 A 
ATOM      2  N   UNL     1       3.973   4.397  17.423  0.00  0.00    +0.000 NA
ATOM      3  N   UNL     1       4.515   5.401  16.688  0.00  0.00    +0.000 N 
ATOM      4  C   UNL     1       4.106   6.638  17.139  0.00  0.00    +0.000 A 
ATOM      5  C   UNL     1       3.243   6.401  18.182  0.00  0.00    +0.000 A 
ENDROOT
BRANCH   5   6
ATOM      6  C   UNL     1       2.475   7.415  18.938  0.00  0.00    +0.000 A 
ATOM      7  N   UNL     1       1.936   8.467  18.362  0.00  0.00    +0.000 NA
ATOM      8  C   UNL     1       1.302   9.155  19.351  0.00  0.00    +0.000 A 
ATOM      9  C   UNL     1       0.665  10.398  19.290  0.00  0.00    +0.000 A 
ATOM     10  C   UNL     1       0.093  10.905  20.461  0.00  0.00    +0.000 A 
ATOM     11 CL   UNL     1      -0.474  12.538  20.415  0.00  0.00    +0.000 Cl
ATOM     12  C   UNL     1       0.045  10.127  21.628  0.00  0.00    +0.000 A 
ATOM     13 CL   UNL     1      -0.783  10.669  23.049  0.00  0.00    +0.000 Cl
ATOM     14  C   UNL     1       0.680   8.874  21.697  0.00  0.00    +0.000 A 
ATOM     15  C   UNL     1       1.356   8.454  20.550  0.00  0.00    +0.000 A 
ATOM     16  N   UNL     1       2.189   7.393  20.281  0.00  0.00    +0.000 N 
ATOM     17  H   UNL     1       2.480   6.677  20.931  0.00  0.00    +0.000 HD
ENDBRANCH   5   6
BRANCH   1  22
ATOM     18  F   UNL     1       0.899   1.935  22.444  0.00  0.00    +0.000 F 
ATOM     19  C   UNL     1       1.458   2.664  21.471  0.00  0.00    +0.000 A 
ATOM     20  C   UNL     1       2.833   2.824  21.439  0.00  0.00    +0.000 A 
ATOM     21  C   UNL     1       3.409   3.581  20.417  0.00  0.00    +0.000 A 
ATOM     22  C   UNL     1       2.615   4.205  19.438  0.00  0.00    +0.000 A 
ATOM     23  C   UNL     1       1.225   4.017  19.481  0.00  0.00    +0.000 A 
ATOM     24  C   UNL     1       0.649   3.244  20.496  0.00  0.00    +0.000 A 
ENDBRANCH   1  22
BRANCH   3  25
ATOM     25  C   UNL     1       5.420   5.097  15.630  0.00  0.00    +0.000 A 
ATOM     26  C   UNL     1       4.964   4.341  14.539  0.00  0.00    +0.000 A 
ATOM     27  C   UNL     1       5.841   3.980  13.514  0.00  0.00    +0.000 A 
ATOM     28  C   UNL     1       7.174   4.377  13.569  0.00  0.00    +0.000 A 
ATOM     29  C   UNL     1       7.630   5.144  14.640  0.00  0.00    +0.000 A 
ATOM     30  C   UNL     1       6.758   5.511  15.670  0.00  0.00    +0.000 A 
ENDBRANCH   3  25
TORSDOF 3
ENDMDL
MODEL 3
REMARK VINA RESULT:      -9.2      0.365      1.679
REMARK  Name = 
REMARK  3 active torsions:
REMARK  status: ('A' for Active; 'I' for Inactive)
REMARK    1  A    between atoms: C_5  and  C_6
REMARK    2  A    between atoms: N_8  and  C_9
REMARK    3  A    between atoms: C_16  and  C_17
REMARK                            x       y       z     vdW  Elec       q    Type
REMARK                         _______ _______ _______ _____ _____    ______ ____
ROOT
ATOM      1  C   UNL     1       3.169   5.090  18.283  0.00  0.00    +0.000 A 
ATOM      2  N   UNL     1       3.947   4.484  17.377  0.00  0.00    +0.000 NA
ATOM      3  N   UNL     1       4.500   5.480  16.637  0.00  0.00    +0.000 N 
ATOM      4  C   UNL     1       4.063   6.720  17.052  0.00  0.00    +0.000 A 
ATOM      5  C   UNL     1       3.172   6.493  18.074  0.00  0.00    +0.000 A 
ENDROOT
BRANCH   5   6
ATOM      6  C   UNL     1       2.371   7.512  18.787  0.00  0.00    +0.000 A 
ATOM      7  N   UNL     1       2.153   7.459  20.083  0.00  0.00    +0.000 NA
ATOM      8  C   UNL     1       1.405   8.557  20.384  0.00  0.00    +0.000 A 
ATOM      9  C   UNL     1       0.818   8.915  21.601  0.00  0.00    +0.000 A 
ATOM     10  C   UNL     1       0.077  10.100  21.653  0.00  0.00    +0.000 A 
ATOM     11 CL   UNL     1      -0.832  10.396  23.094  0.00  0.00    +0.000 Cl
ATOM     12  C   UNL     1       0.038  10.968  20.551  0.00  0.00    +0.000 A 
ATOM     13 CL   UNL     1      -0.749  12.508  20.633  0.00  0.00    +0.000 Cl
ATOM     14  C   UNL     1       0.630  10.618  19.325  0.00  0.00    +0.000 A 
ATOM     15  C   UNL     1       1.250   9.368  19.265  0.00  0.00    +0.000 A 
ATOM     16  N   UNL     1       1.796   8.633  18.240  0.00  0.00    +0.000 N 
ATOM     17  H   UNL     1       1.840   8.899  17.266  0.00  0.00    +0.000 HD
ENDBRANCH   5   6
BRANCH   1  22
ATOM     18  F   UNL     1       0.705   2.170  22.386  0.00  0.00    +0.000 F 
ATOM     19  C   UNL     1       1.291   2.866  21.405  0.00  0.00    +0.000 A 
ATOM     20  C   UNL     1       0.637   3.028  20.195  0.00  0.00    +0.000 A 
ATOM     21  C   UNL     1       1.252   3.762  19.179  0.00  0.00    +0.000 A 
ATOM     22  C   UNL     1       2.533   4.315  19.354  0.00  0.00    +0.000 A 
ATOM     23  C   UNL     1       3.170   4.152  20.594  0.00  0.00    +0.000 A 
ATOM     24  C   UNL     1       2.547   3.431  21.619  0.00  0.00    +0.000 A 
ENDBRANCH   1  22
BRANCH   3  25
ATOM     25  C   UNL     1       5.439   5.166  15.613  0.00  0.00    +0.000 A 
ATOM     26  C   UNL     1       5.029   4.366  14.535  0.00  0.00    +0.000 A 
ATOM     27  C   UNL     1       5.941   3.995  13.544  0.00  0.00    +0.000 A 
ATOM     28  C   UNL     1       7.262   4.427  13.620  0.00  0.00    +0.000 A 
ATOM     29  C   UNL     1       7.671   5.237  14.678  0.00  0.00    +0.000 A 
ATOM     30  C   UNL     1       6.764   5.614  15.674  0.00  0.00    +0.000 A 
ENDBRANCH   3  25
TORSDOF 3
ENDMDL
MODEL 4
REMARK VINA RESULT:      -9.1      0.328      1.646
REMARK  Name = 
REMARK  3 active torsions:
REMARK  status: ('A' for Active; 'I' for Inactive)
REMARK    1  A    between atoms: C_5  and  C_6
REMARK    2  A    between atoms: N_8  and  C_9
REMARK    3  A    between atoms: C_16  and  C_17
REMARK                            x       y       z     vdW  Elec       q    Type
REMARK                         _______ _______ _______ _____ _____    ______ ____
ROOT
ATOM      1  C   UNL     1       3.161   5.056  18.243  0.00  0.00    +0.000 A 
ATOM      2  N   UNL     1       3.936   4.423  17.352  0.00  0.00    +0.000 NA
ATOM      3  N   UNL     1       4.504   5.399  16.598  0.00  0.00    +0.000 N 
ATOM      4  C   UNL     1       4.082   6.652  16.988  0.00  0.00    +0.000 A 
ATOM      5  C   UNL     1       3.183   6.454  18.009  0.00  0.00    +0.000 A 
ENDROOT
BRANCH   5   6
ATOM      6  C   UNL     1       2.392   7.497  18.699  0.00  0.00    +0.000 A 
ATOM      7  N   UNL     1       2.172   7.473  19.996  0.00  0.00    +0.000 NA
ATOM      8  C   UNL     1       1.435   8.585  20.273  0.00  0.00    +0.000 A 
ATOM      9  C   UNL     1       0.851   8.974  21.481  0.00  0.00    +0.000 A 
ATOM     10  C   UNL     1       0.122  10.167  21.508  0.00  0.00    +0.000 A 
ATOM     11 CL   UNL     1      -0.786  10.502  22.941  0.00  0.00    +0.000 Cl
ATOM     12  C   UNL     1       0.093  11.012  20.387  0.00  0.00    +0.000 A 
ATOM     13 CL   UNL     1      -0.679  12.561  20.437  0.00  0.00    +0.000 Cl
ATOM     14  C   UNL     1       0.682  10.630  19.170  0.00  0.00    +0.000 A 
ATOM     15  C   UNL     1       1.289   9.373  19.137  0.00  0.00    +0.000 A 
ATOM     16  N   UNL     1       1.829   8.611  18.128  0.00  0.00    +0.000 N 
ATOM     17  H   UNL     1       1.876   8.856  17.149  0.00  0.00    +0.000 HD
ENDBRANCH   5   6
BRANCH   1  22
ATOM     18  F   UNL     1       0.704   2.159  22.367  0.00  0.00    +0.000 F 
ATOM     19  C   UNL     1       1.293   2.850  21.384  0.00  0.00    +0.000 A 
ATOM     20  C   UNL     1       2.536   3.420  21.598  0.00  0.00    +0.000 A 
ATOM     21  C   UNL     1       3.147   4.134  20.566  0.00  0.00    +0.000 A 
ATOM     22  C   UNL     1       2.510   4.308  19.325  0.00  0.00    +0.000 A 
ATOM     23  C   UNL     1       1.256   3.709  19.125  0.00  0.00    +0.000 A 
ATOM     24  C   UNL     1       0.651   2.978  20.154  0.00  0.00    +0.000 A 
ENDBRANCH   1  22
BRANCH   3  25
ATOM     25  C   UNL     1       5.445   5.054  15.584  0.00  0.00    +0.000 A 
ATOM     26  C   UNL     1       6.756   5.547  15.675  0.00  0.00    +0.000 A 
ATOM     27  C   UNL     1       7.685   5.272  14.669  0.00  0.00    +0.000 A 
ATOM     28  C   UNL     1       7.313   4.499  13.573  0.00  0.00    +0.000 A 
ATOM     29  C   UNL     1       6.018   3.991  13.485  0.00  0.00    +0.000 A 
ATOM     30  C   UNL     1       5.082   4.260  14.489  0.00  0.00    +0.000 A 
ENDBRANCH   3  25
TORSDOF 3
ENDMDL
MODEL 5
REMARK VINA RESULT:      -7.6      4.798     10.057
REMARK  Name = 
REMARK  3 active torsions:
REMARK  status: ('A' for Active; 'I' for Inactive)
REMARK    1  A    between atoms: C_5  and  C_6
REMARK    2  A    between atoms: N_8  and  C_9
REMARK    3  A    between atoms: C_16  and  C_17
REMARK                            x       y       z     vdW  Elec       q    Type
REMARK                         _______ _______ _______ _____ _____    ______ ____
ROOT
ATOM      1  C   UNL     1      -1.556  11.391  19.996  0.00  0.00    +0.000 A 
ATOM      2  N   UNL     1      -2.162  12.270  20.805  0.00  0.00    +0.000 NA
ATOM      3  N   UNL     1      -1.321  12.444  21.857  0.00  0.00    +0.000 N 
ATOM      4  C   UNL     1      -0.190  11.665  21.736  0.00  0.00    +0.000 A 
ATOM      5  C   UNL     1      -0.341  10.944  20.575  0.00  0.00    +0.000 A 
ENDROOT
BRANCH   5   6
ATOM      6  C   UNL     1       0.575   9.904  20.058  0.00  0.00    +0.000 A 
ATOM      7  N   UNL     1       0.694   8.723  20.625  0.00  0.00    +0.000 NA
ATOM      8  C   UNL     1       1.600   8.035  19.875  0.00  0.00    +0.000 A 
ATOM      9  C   UNL     1       2.158   6.775  20.107  0.00  0.00    +0.000 A 
ATOM     10  C   UNL     1       3.088   6.285  19.185  0.00  0.00    +0.000 A 
ATOM     11 CL   UNL     1       3.937   4.841  19.616  0.00  0.00    +0.000 Cl
ATOM     12  C   UNL     1       3.349   6.981  17.995  0.00  0.00    +0.000 A 
ATOM     13 CL   UNL     1       4.384   6.330  16.769  0.00  0.00    +0.000 Cl
ATOM     14  C   UNL     1       2.788   8.247  17.752  0.00  0.00    +0.000 A 
ATOM     15  C   UNL     1       1.967   8.768  18.753  0.00  0.00    +0.000 A 
ATOM     16  N   UNL     1       1.370   9.993  18.942  0.00  0.00    +0.000 N 
ATOM     17  H   UNL     1       1.438  10.795  18.333  0.00  0.00    +0.000 HD
ENDBRANCH   5   6
BRANCH   1  22
ATOM     18  F   UNL     1      -3.746  10.196  14.974  0.00  0.00    +0.000 F 
ATOM     19  C   UNL     1      -3.226  10.483  16.173  0.00  0.00    +0.000 A 
ATOM     20  C   UNL     1      -3.854  11.409  16.989  0.00  0.00    +0.000 A 
ATOM     21  C   UNL     1      -3.309  11.698  18.241  0.00  0.00    +0.000 A 
ATOM     22  C   UNL     1      -2.120  11.086  18.675  0.00  0.00    +0.000 A 
ATOM     23  C   UNL     1      -1.508  10.138  17.839  0.00  0.00    +0.000 A 
ATOM     24  C   UNL     1      -2.065   9.836  16.590  0.00  0.00    +0.000 A 
ENDBRANCH   1  22
BRANCH   3  25
ATOM     25  C   UNL     1      -1.649  13.378  22.881  0.00  0.00    +0.000 A 
ATOM     26  C   UNL     1      -2.868  13.241  23.564  0.00  0.00    +0.000 A 
ATOM     27  C   UNL     1      -3.243  14.173  24.533  0.00  0.00    +0.000 A 
ATOM     28  C   UNL     1      -2.402  15.241  24.832  0.00  0.00    +0.000 A 
ATOM     29  C   UNL     1      -1.181  15.373  24.172  0.00  0.00    +0.000 A 
ATOM     30  C   UNL     1      -0.798  14.444  23.200  0.00  0.00    +0.000 A 
ENDBRANCH   3  25
TORSDOF 3
ENDMDL
MODEL 6
REMARK VINA RESULT:      -7.6      4.830     10.099
REMARK  Name = 
REMARK  3 active torsions:
REMARK  status: ('A' for Active; 'I' for Inactive)
REMARK    1  A    between atoms: C_5  and  C_6
REMARK    2  A    between atoms: N_8  and  C_9
REMARK    3  A    between atoms: C_16  and  C_17
REMARK                            x       y       z     vdW  Elec       q    Type
REMARK                         _______ _______ _______ _____ _____    ______ ____
ROOT
ATOM      1  C   UNL     1      -1.688  11.402  20.006  0.00  0.00    +0.000 A 
ATOM      2  N   UNL     1      -2.312  12.260  20.823  0.00  0.00    +0.000 NA
ATOM      3  N   UNL     1      -1.468  12.457  21.868  0.00  0.00    +0.000 N 
ATOM      4  C   UNL     1      -0.315  11.713  21.736  0.00  0.00    +0.000 A 
ATOM      5  C   UNL     1      -0.455  10.991  20.574  0.00  0.00    +0.000 A 
ENDROOT
BRANCH   5   6
ATOM      6  C   UNL     1       0.489   9.980  20.047  0.00  0.00    +0.000 A 
ATOM      7  N   UNL     1       0.654   8.805  20.615  0.00  0.00    +0.000 NA
ATOM      8  C   UNL     1       1.572   8.146  19.854  0.00  0.00    +0.000 A 
ATOM      9  C   UNL     1       2.174   6.905  20.081  0.00  0.00    +0.000 A 
ATOM     10  C   UNL     1       3.107   6.444  19.147  0.00  0.00    +0.000 A 
ATOM     11 CL   UNL     1       4.009   5.030  19.570  0.00  0.00    +0.000 Cl
ATOM     12  C   UNL     1       3.330   7.146  17.952  0.00  0.00    +0.000 A 
ATOM     13 CL   UNL     1       4.369   6.526  16.714  0.00  0.00    +0.000 Cl
ATOM     14  C   UNL     1       2.724   8.392  17.714  0.00  0.00    +0.000 A 
ATOM     15  C   UNL     1       1.899   8.888  18.725  0.00  0.00    +0.000 A 
ATOM     16  N   UNL     1       1.265  10.093  18.920  0.00  0.00    +0.000 N 
ATOM     17  H   UNL     1       1.299  10.896  18.309  0.00  0.00    +0.000 HD
ENDBRANCH   5   6
BRANCH   1  22
ATOM     18  F   UNL     1      -3.809  10.215  14.954  0.00  0.00    +0.000 F 
ATOM     19  C   UNL     1      -3.300  10.497  16.158  0.00  0.00    +0.000 A 
ATOM     20  C   UNL     1      -2.121   9.893  16.562  0.00  0.00    +0.000 A 
ATOM     21  C   UNL     1      -1.593  10.197  17.819  0.00  0.00    +0.000 A 
ATOM     22  C   UNL     1      -2.252  11.083  18.690  0.00  0.00    +0.000 A 
ATOM     23  C   UNL     1      -3.438  11.695  18.254  0.00  0.00    +0.000 A 
ATOM     24  C   UNL     1      -3.959  11.403  16.987  0.00  0.00    +0.000 A 
ENDBRANCH   1  22
BRANCH   3  25
ATOM     25  C   UNL     1      -1.817  13.379  22.897  0.00  0.00    +0.000 A 
ATOM     26  C   UNL     1      -0.901  14.382  23.252  0.00  0.00    +0.000 A 
ATOM     27  C   UNL     1      -1.191  15.266  24.294  0.00  0.00    +0.000 A 
ATOM     28  C   UNL     1      -2.396  15.159  24.980  0.00  0.00    +0.000 A 
ATOM     29  C   UNL     1      -3.319  14.178  24.620  0.00  0.00    +0.000 A 
ATOM     30  C   UNL     1      -3.037  13.289  23.578  0.00  0.00    +0.000 A 
ENDBRANCH   3  25
TORSDOF 3
ENDMDL
MODEL 7
REMARK VINA RESULT:      -7.6      5.146      8.769
REMARK  Name = 
REMARK  3 active torsions:
REMARK  status: ('A' for Active; 'I' for Inactive)
REMARK    1  A    between atoms: C_5  and  C_6
REMARK    2  A    between atoms: N_8  and  C_9
REMARK    3  A    between atoms: C_16  and  C_17
REMARK                            x       y       z     vdW  Elec       q    Type
REMARK                         _______ _______ _______ _____ _____    ______ ____
ROOT
ATOM      1  C   UNL     1      -0.207  10.789  19.042  0.00  0.00    +0.000 A 
ATOM      2  N   UNL     1      -1.521  10.552  18.940  0.00  0.00    +0.000 NA
ATOM      3  N   UNL     1      -2.107  11.770  18.802  0.00  0.00    +0.000 N 
ATOM      4  C   UNL     1      -1.176  12.787  18.835  0.00  0.00    +0.000 A 
ATOM      5  C   UNL     1       0.044  12.185  19.038  0.00  0.00    +0.000 A 
ENDROOT
BRANCH   5   6
ATOM      6  C   UNL     1       1.342  12.869  19.230  0.00  0.00    +0.000 A 
ATOM      7  N   UNL     1       2.035  13.363  18.228  0.00  0.00    +0.000 NA
ATOM      8  C   UNL     1       3.146  13.925  18.779  0.00  0.00    +0.000 A 
ATOM      9  C   UNL     1       4.254  14.491  18.143  0.00  0.00    +0.000 A 
ATOM     10  C   UNL     1       5.286  14.996  18.939  0.00  0.00    +0.000 A 
ATOM     11 CL   UNL     1       6.742  15.469  18.134  0.00  0.00    +0.000 Cl
ATOM     12  C   UNL     1       5.150  15.054  20.335  0.00  0.00    +0.000 A 
ATOM     13 CL   UNL     1       6.347  15.805  21.336  0.00  0.00    +0.000 Cl
ATOM     14  C   UNL     1       4.036  14.491  20.983  0.00  0.00    +0.000 A 
ATOM     15  C   UNL     1       3.085  13.876  20.167  0.00  0.00    +0.000 A 
ATOM     16  N   UNL     1       1.969  13.115  20.427  0.00  0.00    +0.000 N 
ATOM     17  H   UNL     1       1.623  12.846  21.337  0.00  0.00    +0.000 HD
ENDBRANCH   5   6
BRANCH   1  22
ATOM     18  F   UNL     1       3.414   6.508  19.051  0.00  0.00    +0.000 F 
ATOM     19  C   UNL     1       2.550   7.530  19.046  0.00  0.00    +0.000 A 
ATOM     20  C   UNL     1       2.338   8.242  17.877  0.00  0.00    +0.000 A 
ATOM     21  C   UNL     1       1.431   9.303  17.878  0.00  0.00    +0.000 A 
ATOM     22  C   UNL     1       0.750   9.677  19.051  0.00  0.00    +0.000 A 
ATOM     23  C   UNL     1       0.968   8.931  20.220  0.00  0.00    +0.000 A 
ATOM     24  C   UNL     1       1.866   7.857  20.215  0.00  0.00    +0.000 A 
ENDBRANCH   1  22
BRANCH   3  25
ATOM     25  C   UNL     1      -3.515  11.862  18.606  0.00  0.00    +0.000 A 
ATOM     26  C   UNL     1      -4.058  11.471  17.371  0.00  0.00    +0.000 A 
ATOM     27  C   UNL     1      -5.427  11.602  17.130  0.00  0.00    +0.000 A 
ATOM     28  C   UNL     1      -6.261  12.113  18.119  0.00  0.00    +0.000 A 
ATOM     29  C   UNL     1      -5.732  12.486  19.354  0.00  0.00    +0.000 A 
ATOM     30  C   UNL     1      -4.362  12.358  19.604  0.00  0.00    +0.000 A 
ENDBRANCH   3  25
TORSDOF 3
ENDMDL
MODEL 8
REMARK VINA RESULT:      -7.4      5.177      8.903
REMARK  Name = 
REMARK  3 active torsions:
REMARK  status: ('A' for Active; 'I' for Inactive)
REMARK    1  A    between atoms: C_5  and  C_6
REMARK    2  A    between atoms: N_8  and  C_9
REMARK    3  A    between atoms: C_16  and  C_17
REMARK                            x       y       z     vdW  Elec       q    Type
REMARK                         _______ _______ _______ _____ _____    ______ ____
ROOT
ATOM      1  C   UNL     1      -0.283  10.842  18.963  0.00  0.00    +0.000 A 
ATOM      2  N   UNL     1      -1.597  10.587  18.923  0.00  0.00    +0.000 NA
ATOM      3  N   UNL     1      -2.202  11.789  18.741  0.00  0.00    +0.000 N 
ATOM      4  C   UNL     1      -1.283  12.815  18.686  0.00  0.00    +0.000 A 
ATOM      5  C   UNL     1      -0.050  12.238  18.875  0.00  0.00    +0.000 A 
ENDROOT
BRANCH   5   6
ATOM      6  C   UNL     1       1.246  12.945  18.982  0.00  0.00    +0.000 A 
ATOM      7  N   UNL     1       1.794  13.244  20.140  0.00  0.00    +0.000 NA
ATOM      8  C   UNL     1       2.972  13.863  19.851  0.00  0.00    +0.000 A 
ATOM      9  C   UNL     1       3.883  14.471  20.719  0.00  0.00    +0.000 A 
ATOM     10  C   UNL     1       5.027  15.058  20.171  0.00  0.00    +0.000 A 
ATOM     11 CL   UNL     1       6.010  16.006  21.232  0.00  0.00    +0.000 Cl
ATOM     12  C   UNL     1       5.315  14.923  18.803  0.00  0.00    +0.000 A 
ATOM     13 CL   UNL     1       6.793  15.513  18.122  0.00  0.00    +0.000 Cl
ATOM     14  C   UNL     1       4.406  14.309  17.924  0.00  0.00    +0.000 A 
ATOM     15  C   UNL     1       3.211  13.849  18.482  0.00  0.00    +0.000 A 
ATOM     16  N   UNL     1       2.052  13.341  17.944  0.00  0.00    +0.000 N 
ATOM     17  H   UNL     1       1.853  13.207  16.962  0.00  0.00    +0.000 HD
ENDBRANCH   5   6
BRANCH   1  22
ATOM     18  F   UNL     1       3.390   6.607  19.063  0.00  0.00    +0.000 F 
ATOM     19  C   UNL     1       2.514   7.617  19.036  0.00  0.00    +0.000 A 
ATOM     20  C   UNL     1       2.300   8.307  17.855  0.00  0.00    +0.000 A 
ATOM     21  C   UNL     1       1.379   9.357  17.833  0.00  0.00    +0.000 A 
ATOM     22  C   UNL     1       0.688   9.742  18.996  0.00  0.00    +0.000 A 
ATOM     23  C   UNL     1       0.909   9.019  20.179  0.00  0.00    +0.000 A 
ATOM     24  C   UNL     1       1.819   7.956  20.196  0.00  0.00    +0.000 A 
ENDBRANCH   1  22
BRANCH   3  25
ATOM     25  C   UNL     1      -3.617  11.856  18.593  0.00  0.00    +0.000 A 
ATOM     26  C   UNL     1      -4.195  11.452  17.379  0.00  0.00    +0.000 A 
ATOM     27  C   UNL     1      -5.574  11.558  17.184  0.00  0.00    +0.000 A 
ATOM     28  C   UNL     1      -6.383  12.057  18.200  0.00  0.00    +0.000 A 
ATOM     29  C   UNL     1      -5.818  12.442  19.415  0.00  0.00    +0.000 A 
ATOM     30  C   UNL     1      -4.438  12.339  19.619  0.00  0.00    +0.000 A 
ENDBRANCH   3  25
TORSDOF 3
ENDMDL
MODEL 9
REMARK VINA RESULT:      -7.4      4.726      8.697
REMARK  Name = 
REMARK  3 active torsions:
REMARK  status: ('A' for Active; 'I' for Inactive)
REMARK    1  A    between atoms: C_5  and  C_6
REMARK    2  A    between atoms: N_8  and  C_9
REMARK    3  A    between atoms: C_16  and  C_17
REMARK                            x       y       z     vdW  Elec       q    Type
REMARK                         _______ _______ _______ _____ _____    ______ ____
ROOT
ATOM      1  C   UNL     1      -0.044  12.042  18.563  0.00  0.00    +0.000 A 
ATOM      2  N   UNL     1       0.140  13.366  18.483  0.00  0.00    +0.000 NA
ATOM      3  N   UNL     1       1.484  13.556  18.527  0.00  0.00    +0.000 N 
ATOM      4  C   UNL     1       2.161  12.361  18.656  0.00  0.00    +0.000 A 
ATOM      5  C   UNL     1       1.200  11.381  18.730  0.00  0.00    +0.000 A 
ENDROOT
BRANCH   5   6
ATOM      6  C   UNL     1       1.431   9.937  18.958  0.00  0.00    +0.000 A 
ATOM      7  N   UNL     1       2.039   9.172  18.078  0.00  0.00    +0.000 NA
ATOM      8  C   UNL     1       2.087   7.928  18.631  0.00  0.00    +0.000 A 
ATOM      9  C   UNL     1       2.534   6.731  18.065  0.00  0.00    +0.000 A 
ATOM     10  C   UNL     1       2.469   5.569  18.841  0.00  0.00    +0.000 A 
ATOM     11 CL   UNL     1       2.800   4.071  18.043  0.00  0.00    +0.000 Cl
ATOM     12  C   UNL     1       2.091   5.632  20.191  0.00  0.00    +0.000 A 
ATOM     13 CL   UNL     1       2.140   4.236  21.215  0.00  0.00    +0.000 Cl
ATOM     14  C   UNL     1       1.644   6.833  20.769  0.00  0.00    +0.000 A 
ATOM     15  C   UNL     1       1.596   7.948  19.931  0.00  0.00    +0.000 A 
ATOM     16  N   UNL     1       1.099   9.222  20.082  0.00  0.00    +0.000 N 
ATOM     17  H   UNL     1       0.638   9.594  20.900  0.00  0.00    +0.000 HD
ENDBRANCH   5   6
BRANCH   1  22
ATOM     18  F   UNL     1      -5.159   9.859  17.849  0.00  0.00    +0.000 F 
ATOM     19  C   UNL     1      -3.937  10.378  18.017  0.00  0.00    +0.000 A 
ATOM     20  C   UNL     1      -2.842   9.752  17.445  0.00  0.00    +0.000 A 
ATOM     21  C   UNL     1      -1.571  10.303  17.620  0.00  0.00    +0.000 A 
ATOM     22  C   UNL     1      -1.382  11.465  18.389  0.00  0.00    +0.000 A 
ATOM     23  C   UNL     1      -2.508  12.092  18.947  0.00  0.00    +0.000 A 
ATOM     24  C   UNL     1      -3.784  11.548  18.757  0.00  0.00    +0.000 A 
ENDBRANCH   1  22
BRANCH   3  25
ATOM     25  C   UNL     1       2.019  14.870  18.401  0.00  0.00    +0.000 A 
ATOM     26  C   UNL     1       1.241  15.965  18.807  0.00  0.00    +0.000 A 
ATOM     27  C   UNL     1       1.715  17.268  18.644  0.00  0.00    +0.000 A 
ATOM     28  C   UNL     1       2.971  17.485  18.084  0.00  0.00    +0.000 A 
ATOM     29  C   UNL     1       3.758  16.402  17.696  0.00  0.00    +0.000 A 
ATOM     30  C   UNL     1       3.290  15.094  17.857  0.00  0.00    +0.000 A 
ENDBRANCH   3  25
TORSDOF 3
ENDMDL
