MODEL 1
REMARK VINA RESULT:      -7.1      0.000      0.000
REMARK  Name = 
REMARK  13 active torsions:
REMARK  status: ('A' for Active; 'I' for Inactive)
REMARK    1  A    between atoms: C_1  and  O_2
REMARK    2  A    between atoms: O_2  and  C_3
REMARK    3  A    between atoms: C_6  and  C_7
REMARK    4  A    between atoms: C_8  and  O_9
REMARK    5  A    between atoms: O_9  and  C_10
REMARK    6  A    between atoms: N_18  and  C_19
REMARK    7  A    between atoms: C_21  and  O_22
REMARK    8  A    between atoms: O_22  and  C_23
REMARK    9  A    between atoms: C_24  and  O_25
REMARK   10  A    between atoms: O_25  and  C_26
REMARK   11  A    between atoms: C_27  and  O_28
REMARK   12  A    between atoms: O_28  and  C_29
REMARK   13  A    between atoms: C_32  and  N_33
REMARK                            x       y       z     vdW  Elec       q    Type
REMARK                         _______ _______ _______ _____ _____    ______ ____
ROOT
ATOM      1  C   UNL     1      -0.760  11.572  20.385  0.00  0.00    +0.000 C 
ATOM      2  C   UNL     1      -0.120  10.151  20.568  0.00  0.00    +0.000 C 
ATOM      3  C   UNL     1      -0.403  10.346  22.058  0.00  0.00    +0.000 C 
ATOM      4  O   UNL     1      -0.247   9.666  23.047  0.00  0.00    +0.000 OA
ATOM      5  N   UNL     1      -0.990  11.551  21.830  0.00  0.00    +0.000 N 
ENDROOT
BRANCH   1   9
ATOM      6  C   UNL     1      -4.392  11.759  17.796  0.00  0.00    +0.000 A 
ATOM      7  C   UNL     1      -4.390  12.287  19.092  0.00  0.00    +0.000 A 
ATOM      8  C   UNL     1      -3.245  12.235  19.882  0.00  0.00    +0.000 A 
ATOM      9  C   UNL     1      -2.044  11.642  19.446  0.00  0.00    +0.000 A 
ATOM     10  C   UNL     1      -2.056  11.096  18.148  0.00  0.00    +0.000 A 
ATOM     11  C   UNL     1      -3.218  11.143  17.354  0.00  0.00    +0.000 A 
BRANCH  11  12
ATOM     12  N   UNL     1      -3.148  10.547  16.035  0.00  0.00    +0.000 N 
ATOM     13  O   UNL     1      -3.197  11.308  15.059  0.00  0.00    +0.000 OA
ATOM     14  O   UNL     1      -3.129   9.309  15.985  0.00  0.00    +0.000 OA
ENDBRANCH  11  12
BRANCH   6  16
ATOM     15  C   UNL     1      -6.711  12.156  17.633  0.00  0.00    +0.000 C 
ATOM     16  O   UNL     1      -5.485  11.821  16.977  0.00  0.00    +0.000 OA
ENDBRANCH   6  16
ENDBRANCH   1   9
BRANCH   5  17
ATOM     17  C   UNL     1      -1.644  12.433  22.687  0.00  0.00    +0.000 A 
ATOM     18  C   UNL     1      -0.996  13.601  23.068  0.00  0.00    +0.000 A 
ATOM     19  C   UNL     1      -1.606  14.545  23.893  0.00  0.00    +0.000 A 
ATOM     20  C   UNL     1      -2.890  14.290  24.418  0.00  0.00    +0.000 A 
ATOM     21  C   UNL     1      -3.534  13.079  24.083  0.00  0.00    +0.000 A 
ATOM     22  C   UNL     1      -2.919  12.180  23.188  0.00  0.00    +0.000 A 
BRANCH  19  23
ATOM     23  O   UNL     1      -0.964  15.720  24.223  0.00  0.00    +0.000 OA
ATOM     24  C   UNL     1      -0.117  16.253  23.198  0.00  0.00    +0.000 C 
ENDBRANCH  19  23
BRANCH  20  25
ATOM     25  O   UNL     1      -3.369  15.240  25.290  0.00  0.00    +0.000 OA
ATOM     26  C   UNL     1      -4.274  16.212  24.778  0.00  0.00    +0.000 C 
ENDBRANCH  20  25
BRANCH  21  27
ATOM     27  O   UNL     1      -4.769  12.818  24.621  0.00  0.00    +0.000 OA
ATOM     28  C   UNL     1      -5.895  12.951  23.757  0.00  0.00    +0.000 C 
ENDBRANCH  21  27
ENDBRANCH   5  17
BRANCH   2  29
ATOM     29  O   UNL     1       1.277   9.994  20.236  0.00  0.00    +0.000 OA
BRANCH  29  30
ATOM     30  C   UNL     1       1.656   8.785  19.716  0.00  0.00    +0.000 A 
ATOM     31  C   UNL     1       1.664   7.706  20.598  0.00  0.00    +0.000 A 
ATOM     32  C   UNL     1       2.064   6.445  20.150  0.00  0.00    +0.000 A 
ATOM     33  C   UNL     1       2.439   6.262  18.820  0.00  0.00    +0.000 A 
ATOM     34  C   UNL     1       2.389   7.333  17.931  0.00  0.00    +0.000 A 
ATOM     35  C   UNL     1       1.992   8.592  18.376  0.00  0.00    +0.000 A 
ENDBRANCH  29  30
ENDBRANCH   2  29
TORSDOF 9
ENDMDL
MODEL 2
REMARK VINA RESULT:      -6.9      0.508      1.099
REMARK  Name = 
REMARK  13 active torsions:
REMARK  status: ('A' for Active; 'I' for Inactive)
REMARK    1  A    between atoms: C_1  and  O_2
REMARK    2  A    between atoms: O_2  and  C_3
REMARK    3  A    between atoms: C_6  and  C_7
REMARK    4  A    between atoms: C_8  and  O_9
REMARK    5  A    between atoms: O_9  and  C_10
REMARK    6  A    between atoms: N_18  and  C_19
REMARK    7  A    between atoms: C_21  and  O_22
REMARK    8  A    between atoms: O_22  and  C_23
REMARK    9  A    between atoms: C_24  and  O_25
REMARK   10  A    between atoms: O_25  and  C_26
REMARK   11  A    between atoms: C_27  and  O_28
REMARK   12  A    between atoms: O_28  and  C_29
REMARK   13  A    between atoms: C_32  and  N_33
REMARK                            x       y       z     vdW  Elec       q    Type
REMARK                         _______ _______ _______ _____ _____    ______ ____
ROOT
ATOM      1  C   UNL     1      -0.920  11.831  20.645  0.00  0.00    +0.000 C 
ATOM      2  C   UNL     1      -0.254  10.438  20.923  0.00  0.00    +0.000 C 
ATOM      3  C   UNL     1      -0.597  10.701  22.390  0.00  0.00    +0.000 C 
ATOM      4  O   UNL     1      -0.462  10.075  23.418  0.00  0.00    +0.000 OA
ATOM      5  N   UNL     1      -1.202  11.878  22.080  0.00  0.00    +0.000 N 
ENDROOT
BRANCH   1   9
ATOM      6  C   UNL     1      -4.457  11.798  17.923  0.00  0.00    +0.000 A 
ATOM      7  C   UNL     1      -4.521  12.371  19.198  0.00  0.00    +0.000 A 
ATOM      8  C   UNL     1      -3.405  12.388  20.030  0.00  0.00    +0.000 A 
ATOM      9  C   UNL     1      -2.169  11.822  19.659  0.00  0.00    +0.000 A 
ATOM     10  C   UNL     1      -2.115  11.231  18.382  0.00  0.00    +0.000 A 
ATOM     11  C   UNL     1      -3.247  11.209  17.546  0.00  0.00    +0.000 A 
BRANCH  11  12
ATOM     12  N   UNL     1      -3.107  10.569  16.253  0.00  0.00    +0.000 N 
ATOM     13  O   UNL     1      -3.015   9.334  16.230  0.00  0.00    +0.000 OA
ATOM     14  O   UNL     1      -3.006  11.319  15.271  0.00  0.00    +0.000 OA
ENDBRANCH  11  12
BRANCH   6  16
ATOM     15  C   UNL     1      -6.371  12.938  17.149  0.00  0.00    +0.000 C 
ATOM     16  O   UNL     1      -5.520  11.792  17.062  0.00  0.00    +0.000 OA
ENDBRANCH   6  16
ENDBRANCH   1   9
BRANCH   5  17
ATOM     17  C   UNL     1      -1.907  12.785  22.867  0.00  0.00    +0.000 A 
ATOM     18  C   UNL     1      -1.257  13.927  23.319  0.00  0.00    +0.000 A 
ATOM     19  C   UNL     1      -1.912  14.894  24.079  0.00  0.00    +0.000 A 
ATOM     20  C   UNL     1      -3.253  14.691  24.465  0.00  0.00    +0.000 A 
ATOM     21  C   UNL     1      -3.906  13.505  24.060  0.00  0.00    +0.000 A 
ATOM     22  C   UNL     1      -3.236  12.583  23.231  0.00  0.00    +0.000 A 
BRANCH  19  23
ATOM     23  O   UNL     1      -1.263  16.043  24.479  0.00  0.00    +0.000 OA
ATOM     24  C   UNL     1      -0.289  16.538  23.553  0.00  0.00    +0.000 C 
ENDBRANCH  19  23
BRANCH  20  25
ATOM     25  O   UNL     1      -3.783  15.659  25.286  0.00  0.00    +0.000 OA
ATOM     26  C   UNL     1      -4.649  16.623  24.698  0.00  0.00    +0.000 C 
ENDBRANCH  20  25
BRANCH  21  27
ATOM     27  O   UNL     1      -5.200  13.295  24.464  0.00  0.00    +0.000 OA
ATOM     28  C   UNL     1      -6.170  13.068  23.446  0.00  0.00    +0.000 C 
ENDBRANCH  21  27
ENDBRANCH   5  17
BRANCH   2  29
ATOM     29  O   UNL     1       1.157  10.299  20.650  0.00  0.00    +0.000 OA
BRANCH  29  30
ATOM     30  C   UNL     1       1.536   9.222  19.893  0.00  0.00    +0.000 A 
ATOM     31  C   UNL     1       1.677   9.444  18.525  0.00  0.00    +0.000 A 
ATOM     32  C   UNL     1       2.034   8.389  17.683  0.00  0.00    +0.000 A 
ATOM     33  C   UNL     1       2.264   7.119  18.211  0.00  0.00    +0.000 A 
ATOM     34  C   UNL     1       2.165   6.910  19.584  0.00  0.00    +0.000 A 
ATOM     35  C   UNL     1       1.807   7.961  20.426  0.00  0.00    +0.000 A 
ENDBRANCH  29  30
ENDBRANCH   2  29
TORSDOF 9
ENDMDL
MODEL 3
REMARK VINA RESULT:      -6.9      1.383      3.037
REMARK  Name = 
REMARK  13 active torsions:
REMARK  status: ('A' for Active; 'I' for Inactive)
REMARK    1  A    between atoms: C_1  and  O_2
REMARK    2  A    between atoms: O_2  and  C_3
REMARK    3  A    between atoms: C_6  and  C_7
REMARK    4  A    between atoms: C_8  and  O_9
REMARK    5  A    between atoms: O_9  and  C_10
REMARK    6  A    between atoms: N_18  and  C_19
REMARK    7  A    between atoms: C_21  and  O_22
REMARK    8  A    between atoms: O_22  and  C_23
REMARK    9  A    between atoms: C_24  and  O_25
REMARK   10  A    between atoms: O_25  and  C_26
REMARK   11  A    between atoms: C_27  and  O_28
REMARK   12  A    between atoms: O_28  and  C_29
REMARK   13  A    between atoms: C_32  and  N_33
REMARK                            x       y       z     vdW  Elec       q    Type
REMARK                         _______ _______ _______ _____ _____    ______ ____
ROOT
ATOM      1  C   UNL     1      -0.069  10.582  20.369  0.00  0.00    +0.000 C 
ATOM      2  C   UNL     1       0.219   9.176  21.001  0.00  0.00    +0.000 C 
ATOM      3  C   UNL     1      -0.238   9.807  22.317  0.00  0.00    +0.000 C 
ATOM      4  O   UNL     1      -0.382   9.400  23.448  0.00  0.00    +0.000 OA
ATOM      5  N   UNL     1      -0.513  10.988  21.702  0.00  0.00    +0.000 N 
ENDROOT
BRANCH   1   9
ATOM      6  C   UNL     1      -3.061  10.671  17.057  0.00  0.00    +0.000 A 
ATOM      7  C   UNL     1      -1.839  10.004  16.921  0.00  0.00    +0.000 A 
ATOM      8  C   UNL     1      -0.922   9.972  17.967  0.00  0.00    +0.000 A 
ATOM      9  C   UNL     1      -1.151  10.613  19.201  0.00  0.00    +0.000 A 
ATOM     10  C   UNL     1      -2.374  11.298  19.328  0.00  0.00    +0.000 A 
ATOM     11  C   UNL     1      -3.296  11.335  18.265  0.00  0.00    +0.000 A 
BRANCH  11  12
ATOM     12  N   UNL     1      -4.526  12.073  18.475  0.00  0.00    +0.000 N 
ATOM     13  O   UNL     1      -5.198  12.364  17.477  0.00  0.00    +0.000 OA
ATOM     14  O   UNL     1      -4.767  12.431  19.637  0.00  0.00    +0.000 OA
ENDBRANCH  11  12
BRANCH   6  16
ATOM     15  C   UNL     1      -3.523  10.322  14.771  0.00  0.00    +0.000 C 
ATOM     16  O   UNL     1      -4.002  10.697  16.066  0.00  0.00    +0.000 OA
ENDBRANCH   6  16
ENDBRANCH   1   9
BRANCH   5  17
ATOM     17  C   UNL     1      -1.087  12.163  22.181  0.00  0.00    +0.000 A 
ATOM     18  C   UNL     1      -2.408  12.137  22.609  0.00  0.00    +0.000 A 
ATOM     19  C   UNL     1      -3.035  13.266  23.133  0.00  0.00    +0.000 A 
ATOM     20  C   UNL     1      -2.342  14.493  23.176  0.00  0.00    +0.000 A 
ATOM     21  C   UNL     1      -1.016  14.544  22.690  0.00  0.00    +0.000 A 
ATOM     22  C   UNL     1      -0.390  13.368  22.234  0.00  0.00    +0.000 A 
BRANCH  19  23
ATOM     23  O   UNL     1      -4.333  13.209  23.596  0.00  0.00    +0.000 OA
ATOM     24  C   UNL     1      -4.518  12.416  24.775  0.00  0.00    +0.000 C 
ENDBRANCH  19  23
BRANCH  20  25
ATOM     25  O   UNL     1      -3.073  15.567  23.629  0.00  0.00    +0.000 OA
ATOM     26  C   UNL     1      -2.925  15.940  24.995  0.00  0.00    +0.000 C 
ENDBRANCH  20  25
BRANCH  21  27
ATOM     27  O   UNL     1      -0.356  15.747  22.703  0.00  0.00    +0.000 OA
ATOM     28  C   UNL     1       0.594  15.977  21.666  0.00  0.00    +0.000 C 
ENDBRANCH  21  27
ENDBRANCH   5  17
BRANCH   2  29
ATOM     29  O   UNL     1       1.585   8.705  21.002  0.00  0.00    +0.000 OA
BRANCH  29  30
ATOM     30  C   UNL     1       1.874   7.651  20.175  0.00  0.00    +0.000 A 
ATOM     31  C   UNL     1       2.244   7.971  18.871  0.00  0.00    +0.000 A 
ATOM     32  C   UNL     1       2.528   6.951  17.959  0.00  0.00    +0.000 A 
ATOM     33  C   UNL     1       2.457   5.617  18.358  0.00  0.00    +0.000 A 
ATOM     34  C   UNL     1       2.129   5.302  19.674  0.00  0.00    +0.000 A 
ATOM     35  C   UNL     1       1.844   6.318  20.584  0.00  0.00    +0.000 A 
ENDBRANCH  29  30
ENDBRANCH   2  29
TORSDOF 9
ENDMDL
MODEL 4
REMARK VINA RESULT:      -6.8      1.410      2.201
REMARK  Name = 
REMARK  13 active torsions:
REMARK  status: ('A' for Active; 'I' for Inactive)
REMARK    1  A    between atoms: C_1  and  O_2
REMARK    2  A    between atoms: O_2  and  C_3
REMARK    3  A    between atoms: C_6  and  C_7
REMARK    4  A    between atoms: C_8  and  O_9
REMARK    5  A    between atoms: O_9  and  C_10
REMARK    6  A    between atoms: N_18  and  C_19
REMARK    7  A    between atoms: C_21  and  O_22
REMARK    8  A    between atoms: O_22  and  C_23
REMARK    9  A    between atoms: C_24  and  O_25
REMARK   10  A    between atoms: O_25  and  C_26
REMARK   11  A    between atoms: C_27  and  O_28
REMARK   12  A    between atoms: O_28  and  C_29
REMARK   13  A    between atoms: C_32  and  N_33
REMARK                            x       y       z     vdW  Elec       q    Type
REMARK                         _______ _______ _______ _____ _____    ______ ____
ROOT
ATOM      1  C   UNL     1      -0.115  10.544  20.399  0.00  0.00    +0.000 C 
ATOM      2  C   UNL     1       0.184   9.127  21.002  0.00  0.00    +0.000 C 
ATOM      3  C   UNL     1      -0.287   9.724  22.328  0.00  0.00    +0.000 C 
ATOM      4  O   UNL     1      -0.433   9.291  23.449  0.00  0.00    +0.000 OA
ATOM      5  N   UNL     1      -0.570  10.916  21.738  0.00  0.00    +0.000 N 
ENDROOT
BRANCH   1   9
ATOM      6  C   UNL     1      -3.089  10.681  17.073  0.00  0.00    +0.000 A 
ATOM      7  C   UNL     1      -1.821  10.116  16.897  0.00  0.00    +0.000 A 
ATOM      8  C   UNL     1      -0.909  10.067  17.947  0.00  0.00    +0.000 A 
ATOM      9  C   UNL     1      -1.190  10.590  19.226  0.00  0.00    +0.000 A 
ATOM     10  C   UNL     1      -2.461  11.173  19.393  0.00  0.00    +0.000 A 
ATOM     11  C   UNL     1      -3.378  11.228  18.327  0.00  0.00    +0.000 A 
BRANCH  11  12
ATOM     12  N   UNL     1      -4.659  11.857  18.581  0.00  0.00    +0.000 N 
ATOM     13  O   UNL     1      -4.664  12.900  19.247  0.00  0.00    +0.000 OA
ATOM     14  O   UNL     1      -5.664  11.250  18.182  0.00  0.00    +0.000 OA
ENDBRANCH  11  12
BRANCH   6  16
ATOM     15  C   UNL     1      -3.545  10.333  14.785  0.00  0.00    +0.000 C 
ATOM     16  O   UNL     1      -4.025  10.718  16.077  0.00  0.00    +0.000 OA
ENDBRANCH   6  16
ENDBRANCH   1   9
BRANCH   5  17
ATOM     17  C   UNL     1      -1.159  12.074  22.240  0.00  0.00    +0.000 A 
ATOM     18  C   UNL     1      -0.409  13.243  22.278  0.00  0.00    +0.000 A 
ATOM     19  C   UNL     1      -0.945  14.447  22.733  0.00  0.00    +0.000 A 
ATOM     20  C   UNL     1      -2.262  14.481  23.234  0.00  0.00    +0.000 A 
ATOM     21  C   UNL     1      -3.014  13.285  23.253  0.00  0.00    +0.000 A 
ATOM     22  C   UNL     1      -2.466  12.102  22.719  0.00  0.00    +0.000 A 
BRANCH  19  23
ATOM     23  O   UNL     1      -0.199  15.607  22.720  0.00  0.00    +0.000 OA
ATOM     24  C   UNL     1       0.225  16.036  21.421  0.00  0.00    +0.000 C 
ENDBRANCH  19  23
BRANCH  20  25
ATOM     25  O   UNL     1      -2.670  15.693  23.739  0.00  0.00    +0.000 OA
ATOM     26  C   UNL     1      -2.594  15.882  25.148  0.00  0.00    +0.000 C 
ENDBRANCH  20  25
BRANCH  21  27
ATOM     27  O   UNL     1      -4.284  13.314  23.771  0.00  0.00    +0.000 OA
ATOM     28  C   UNL     1      -4.574  12.408  24.832  0.00  0.00    +0.000 C 
ENDBRANCH  21  27
ENDBRANCH   5  17
BRANCH   2  29
ATOM     29  O   UNL     1       1.554   8.670  21.001  0.00  0.00    +0.000 OA
BRANCH  29  30
ATOM     30  C   UNL     1       1.857   7.631  20.159  0.00  0.00    +0.000 A 
ATOM     31  C   UNL     1       2.228   7.974  18.861  0.00  0.00    +0.000 A 
ATOM     32  C   UNL     1       2.526   6.970  17.936  0.00  0.00    +0.000 A 
ATOM     33  C   UNL     1       2.466   5.630  18.315  0.00  0.00    +0.000 A 
ATOM     34  C   UNL     1       2.136   5.292  19.625  0.00  0.00    +0.000 A 
ATOM     35  C   UNL     1       1.837   6.292  20.549  0.00  0.00    +0.000 A 
ENDBRANCH  29  30
ENDBRANCH   2  29
TORSDOF 9
ENDMDL
MODEL 5
REMARK VINA RESULT:      -6.8      3.339      6.980
REMARK  Name = 
REMARK  13 active torsions:
REMARK  status: ('A' for Active; 'I' for Inactive)
REMARK    1  A    between atoms: C_1  and  O_2
REMARK    2  A    between atoms: O_2  and  C_3
REMARK    3  A    between atoms: C_6  and  C_7
REMARK    4  A    between atoms: C_8  and  O_9
REMARK    5  A    between atoms: O_9  and  C_10
REMARK    6  A    between atoms: N_18  and  C_19
REMARK    7  A    between atoms: C_21  and  O_22
REMARK    8  A    between atoms: O_22  and  C_23
REMARK    9  A    between atoms: C_24  and  O_25
REMARK   10  A    between atoms: O_25  and  C_26
REMARK   11  A    between atoms: C_27  and  O_28
REMARK   12  A    between atoms: O_28  and  C_29
REMARK   13  A    between atoms: C_32  and  N_33
REMARK                            x       y       z     vdW  Elec       q    Type
REMARK                         _______ _______ _______ _____ _____    ______ ____
ROOT
ATOM      1  C   UNL     1       0.773  12.047  18.263  0.00  0.00    +0.000 C 
ATOM      2  C   UNL     1       1.495  13.282  18.907  0.00  0.00    +0.000 C 
ATOM      3  C   UNL     1       0.088  13.833  19.139  0.00  0.00    +0.000 C 
ATOM      4  O   UNL     1      -0.357  14.831  19.660  0.00  0.00    +0.000 OA
ATOM      5  N   UNL     1      -0.480  12.716  18.612  0.00  0.00    +0.000 N 
ENDROOT
BRANCH   1   9
ATOM      6  C   UNL     1       1.568   8.071  20.130  0.00  0.00    +0.000 A 
ATOM      7  C   UNL     1       1.953   8.352  18.815  0.00  0.00    +0.000 A 
ATOM      8  C   UNL     1       1.713   9.601  18.251  0.00  0.00    +0.000 A 
ATOM      9  C   UNL     1       1.060  10.638  18.947  0.00  0.00    +0.000 A 
ATOM     10  C   UNL     1       0.658  10.346  20.263  0.00  0.00    +0.000 A 
ATOM     11  C   UNL     1       0.896   9.078  20.828  0.00  0.00    +0.000 A 
BRANCH  11  12
ATOM     12  N   UNL     1       0.438   8.857  22.186  0.00  0.00    +0.000 N 
ATOM     13  O   UNL     1      -0.656   8.298  22.339  0.00  0.00    +0.000 OA
ATOM     14  O   UNL     1       1.143   9.325  23.092  0.00  0.00    +0.000 OA
ENDBRANCH  11  12
BRANCH   6  16
ATOM     15  C   UNL     1       2.443   5.894  19.892  0.00  0.00    +0.000 C 
ATOM     16  O   UNL     1       1.816   6.868  20.732  0.00  0.00    +0.000 OA
ENDBRANCH   6  16
ENDBRANCH   1   9
BRANCH   5  17
ATOM     17  C   UNL     1      -1.813  12.324  18.506  0.00  0.00    +0.000 A 
ATOM     18  C   UNL     1      -2.253  11.766  17.313  0.00  0.00    +0.000 A 
ATOM     19  C   UNL     1      -3.563  11.319  17.149  0.00  0.00    +0.000 A 
ATOM     20  C   UNL     1      -4.497  11.491  18.191  0.00  0.00    +0.000 A 
ATOM     21  C   UNL     1      -4.073  12.110  19.389  0.00  0.00    +0.000 A 
ATOM     22  C   UNL     1      -2.724  12.485  19.547  0.00  0.00    +0.000 A 
BRANCH  19  23
ATOM     23  O   UNL     1      -3.969  10.725  15.973  0.00  0.00    +0.000 OA
ATOM     24  C   UNL     1      -2.910  10.396  15.066  0.00  0.00    +0.000 C 
ENDBRANCH  19  23
BRANCH  20  25
ATOM     25  O   UNL     1      -5.782  11.097  17.903  0.00  0.00    +0.000 OA
ATOM     26  C   UNL     1      -6.733  12.113  17.600  0.00  0.00    +0.000 C 
ENDBRANCH  20  25
BRANCH  21  27
ATOM     27  O   UNL     1      -4.991  12.307  20.389  0.00  0.00    +0.000 OA
ATOM     28  C   UNL     1      -5.125  13.631  20.898  0.00  0.00    +0.000 C 
ENDBRANCH  21  27
ENDBRANCH   5  17
BRANCH   2  29
ATOM     29  O   UNL     1       2.327  14.096  18.052  0.00  0.00    +0.000 OA
BRANCH  29  30
ATOM     30  C   UNL     1       3.527  14.510  18.570  0.00  0.00    +0.000 A 
ATOM     31  C   UNL     1       3.631  14.519  19.959  0.00  0.00    +0.000 A 
ATOM     32  C   UNL     1       4.812  14.953  20.565  0.00  0.00    +0.000 A 
ATOM     33  C   UNL     1       5.890  15.361  19.781  0.00  0.00    +0.000 A 
ATOM     34  C   UNL     1       5.799  15.310  18.392  0.00  0.00    +0.000 A 
ATOM     35  C   UNL     1       4.620  14.879  17.787  0.00  0.00    +0.000 A 
ENDBRANCH  29  30
ENDBRANCH   2  29
TORSDOF 9
ENDMDL
MODEL 6
REMARK VINA RESULT:      -6.8      1.516      3.025
REMARK  Name = 
REMARK  13 active torsions:
REMARK  status: ('A' for Active; 'I' for Inactive)
REMARK    1  A    between atoms: C_1  and  O_2
REMARK    2  A    between atoms: O_2  and  C_3
REMARK    3  A    between atoms: C_6  and  C_7
REMARK    4  A    between atoms: C_8  and  O_9
REMARK    5  A    between atoms: O_9  and  C_10
REMARK    6  A    between atoms: N_18  and  C_19
REMARK    7  A    between atoms: C_21  and  O_22
REMARK    8  A    between atoms: O_22  and  C_23
REMARK    9  A    between atoms: C_24  and  O_25
REMARK   10  A    between atoms: O_25  and  C_26
REMARK   11  A    between atoms: C_27  and  O_28
REMARK   12  A    between atoms: O_28  and  C_29
REMARK   13  A    between atoms: C_32  and  N_33
REMARK                            x       y       z     vdW  Elec       q    Type
REMARK                         _______ _______ _______ _____ _____    ______ ____
ROOT
ATOM      1  C   UNL     1       0.090  10.582  20.434  0.00  0.00    +0.000 C 
ATOM      2  C   UNL     1       0.277   9.216  21.183  0.00  0.00    +0.000 C 
ATOM      3  C   UNL     1      -0.087   9.995  22.447  0.00  0.00    +0.000 C 
ATOM      4  O   UNL     1      -0.232   9.702  23.613  0.00  0.00    +0.000 OA
ATOM      5  N   UNL     1      -0.280  11.138  21.736  0.00  0.00    +0.000 N 
ENDROOT
BRANCH   1   9
ATOM      6  C   UNL     1      -2.980  10.653  17.194  0.00  0.00    +0.000 A 
ATOM      7  C   UNL     1      -1.696  10.142  16.974  0.00  0.00    +0.000 A 
ATOM      8  C   UNL     1      -0.754  10.112  17.998  0.00  0.00    +0.000 A 
ATOM      9  C   UNL     1      -1.019  10.603  19.292  0.00  0.00    +0.000 A 
ATOM     10  C   UNL     1      -2.306  11.133  19.504  0.00  0.00    +0.000 A 
ATOM     11  C   UNL     1      -3.254  11.169  18.464  0.00  0.00    +0.000 A 
BRANCH  11  12
ATOM     12  N   UNL     1      -4.552  11.743  18.764  0.00  0.00    +0.000 N 
ATOM     13  O   UNL     1      -4.586  12.928  19.122  0.00  0.00    +0.000 OA
ATOM     14  O   UNL     1      -5.522  10.972  18.721  0.00  0.00    +0.000 OA
ENDBRANCH  11  12
BRANCH   6  16
ATOM     15  C   UNL     1      -3.471  10.406  14.900  0.00  0.00    +0.000 C 
ATOM     16  O   UNL     1      -3.944  10.669  16.224  0.00  0.00    +0.000 OA
ENDBRANCH   6  16
ENDBRANCH   1   9
BRANCH   5  17
ATOM     17  C   UNL     1      -0.740  12.395  22.121  0.00  0.00    +0.000 A 
ATOM     18  C   UNL     1      -1.964  12.490  22.771  0.00  0.00    +0.000 A 
ATOM     19  C   UNL     1      -2.468  13.711  23.216  0.00  0.00    +0.000 A 
ATOM     20  C   UNL     1      -1.760  14.900  22.948  0.00  0.00    +0.000 A 
ATOM     21  C   UNL     1      -0.542  14.821  22.236  0.00  0.00    +0.000 A 
ATOM     22  C   UNL     1      -0.026  13.563  21.864  0.00  0.00    +0.000 A 
BRANCH  19  23
ATOM     23  O   UNL     1      -3.663  13.779  23.902  0.00  0.00    +0.000 OA
ATOM     24  C   UNL     1      -4.091  12.545  24.491  0.00  0.00    +0.000 C 
ENDBRANCH  19  23
BRANCH  20  25
ATOM     25  O   UNL     1      -2.380  16.060  23.350  0.00  0.00    +0.000 OA
ATOM     26  C   UNL     1      -2.000  16.612  24.606  0.00  0.00    +0.000 C 
ENDBRANCH  20  25
BRANCH  21  27
ATOM     27  O   UNL     1       0.129  15.982  21.947  0.00  0.00    +0.000 OA
ATOM     28  C   UNL     1       1.255  16.301  22.759  0.00  0.00    +0.000 C 
ENDBRANCH  21  27
ENDBRANCH   5  17
BRANCH   2  29
ATOM     29  O   UNL     1       1.598   8.632  21.197  0.00  0.00    +0.000 OA
BRANCH  29  30
ATOM     30  C   UNL     1       1.870   7.698  20.231  0.00  0.00    +0.000 A 
ATOM     31  C   UNL     1       1.775   6.363  20.616  0.00  0.00    +0.000 A 
ATOM     32  C   UNL     1       2.063   5.352  19.696  0.00  0.00    +0.000 A 
ATOM     33  C   UNL     1       2.428   5.678  18.391  0.00  0.00    +0.000 A 
ATOM     34  C   UNL     1       2.480   7.012  17.997  0.00  0.00    +0.000 A 
ATOM     35  C   UNL     1       2.196   8.022  18.914  0.00  0.00    +0.000 A 
ENDBRANCH  29  30
ENDBRANCH   2  29
TORSDOF 9
ENDMDL
MODEL 7
REMARK VINA RESULT:      -6.7      1.006      2.495
REMARK  Name = 
REMARK  13 active torsions:
REMARK  status: ('A' for Active; 'I' for Inactive)
REMARK    1  A    between atoms: C_1  and  O_2
REMARK    2  A    between atoms: O_2  and  C_3
REMARK    3  A    between atoms: C_6  and  C_7
REMARK    4  A    between atoms: C_8  and  O_9
REMARK    5  A    between atoms: O_9  and  C_10
REMARK    6  A    between atoms: N_18  and  C_19
REMARK    7  A    between atoms: C_21  and  O_22
REMARK    8  A    between atoms: O_22  and  C_23
REMARK    9  A    between atoms: C_24  and  O_25
REMARK   10  A    between atoms: O_25  and  C_26
REMARK   11  A    between atoms: C_27  and  O_28
REMARK   12  A    between atoms: O_28  and  C_29
REMARK   13  A    between atoms: C_32  and  N_33
REMARK                            x       y       z     vdW  Elec       q    Type
REMARK                         _______ _______ _______ _____ _____    ______ ____
ROOT
ATOM      1  C   UNL     1      -0.116  11.356  20.052  0.00  0.00    +0.000 C 
ATOM      2  C   UNL     1       0.339   9.921  20.490  0.00  0.00    +0.000 C 
ATOM      3  C   UNL     1       0.243  10.456  21.919  0.00  0.00    +0.000 C 
ATOM      4  O   UNL     1       0.407   9.976  23.018  0.00  0.00    +0.000 OA
ATOM      5  N   UNL     1      -0.194  11.666  21.479  0.00  0.00    +0.000 N 
ENDROOT
BRANCH   1   9
ATOM      6  C   UNL     1      -3.940  11.561  17.756  0.00  0.00    +0.000 A 
ATOM      7  C   UNL     1      -3.840  12.065  19.058  0.00  0.00    +0.000 A 
ATOM      8  C   UNL     1      -2.637  12.009  19.755  0.00  0.00    +0.000 A 
ATOM      9  C   UNL     1      -1.470  11.433  19.216  0.00  0.00    +0.000 A 
ATOM     10  C   UNL     1      -1.579  10.910  17.914  0.00  0.00    +0.000 A 
ATOM     11  C   UNL     1      -2.799  10.962  17.213  0.00  0.00    +0.000 A 
BRANCH  11  12
ATOM     12  N   UNL     1      -2.828  10.390  15.881  0.00  0.00    +0.000 N 
ATOM     13  O   UNL     1      -2.809  11.171  14.921  0.00  0.00    +0.000 OA
ATOM     14  O   UNL     1      -2.956   9.159  15.809  0.00  0.00    +0.000 OA
ENDBRANCH  11  12
BRANCH   6  16
ATOM     15  C   UNL     1      -5.993  12.670  17.414  0.00  0.00    +0.000 C 
ATOM     16  O   UNL     1      -5.093  11.628  17.025  0.00  0.00    +0.000 OA
ENDBRANCH   6  16
ENDBRANCH   1   9
BRANCH   5  17
ATOM     17  C   UNL     1      -0.629  12.794  22.170  0.00  0.00    +0.000 A 
ATOM     18  C   UNL     1      -1.789  12.708  22.930  0.00  0.00    +0.000 A 
ATOM     19  C   UNL     1      -2.262  13.787  23.676  0.00  0.00    +0.000 A 
ATOM     20  C   UNL     1      -1.593  15.026  23.615  0.00  0.00    +0.000 A 
ATOM     21  C   UNL     1      -0.445  15.141  22.799  0.00  0.00    +0.000 A 
ATOM     22  C   UNL     1       0.046  14.011  22.116  0.00  0.00    +0.000 A 
BRANCH  19  23
ATOM     23  O   UNL     1      -3.389  13.667  24.462  0.00  0.00    +0.000 OA
ATOM     24  C   UNL     1      -4.089  12.424  24.327  0.00  0.00    +0.000 C 
ENDBRANCH  19  23
BRANCH  20  25
ATOM     25  O   UNL     1      -2.185  16.051  24.316  0.00  0.00    +0.000 OA
ATOM     26  C   UNL     1      -1.667  16.357  25.606  0.00  0.00    +0.000 C 
ENDBRANCH  20  25
BRANCH  21  27
ATOM     27  O   UNL     1       0.184  16.357  22.716  0.00  0.00    +0.000 OA
ATOM     28  C   UNL     1      -0.098  17.158  21.572  0.00  0.00    +0.000 C 
ENDBRANCH  21  27
ENDBRANCH   5  17
BRANCH   2  29
ATOM     29  O   UNL     1       1.660   9.484  20.099  0.00  0.00    +0.000 OA
BRANCH  29  30
ATOM     30  C   UNL     1       1.822   8.144  19.866  0.00  0.00    +0.000 A 
ATOM     31  C   UNL     1       2.334   7.790  18.619  0.00  0.00    +0.000 A 
ATOM     32  C   UNL     1       2.504   6.442  18.295  0.00  0.00    +0.000 A 
ATOM     33  C   UNL     1       2.176   5.453  19.222  0.00  0.00    +0.000 A 
ATOM     34  C   UNL     1       1.706   5.811  20.483  0.00  0.00    +0.000 A 
ATOM     35  C   UNL     1       1.534   7.156  20.807  0.00  0.00    +0.000 A 
ENDBRANCH  29  30
ENDBRANCH   2  29
TORSDOF 9
ENDMDL
MODEL 8
REMARK VINA RESULT:      -6.7      1.674      2.590
REMARK  Name = 
REMARK  13 active torsions:
REMARK  status: ('A' for Active; 'I' for Inactive)
REMARK    1  A    between atoms: C_1  and  O_2
REMARK    2  A    between atoms: O_2  and  C_3
REMARK    3  A    between atoms: C_6  and  C_7
REMARK    4  A    between atoms: C_8  and  O_9
REMARK    5  A    between atoms: O_9  and  C_10
REMARK    6  A    between atoms: N_18  and  C_19
REMARK    7  A    between atoms: C_21  and  O_22
REMARK    8  A    between atoms: O_22  and  C_23
REMARK    9  A    between atoms: C_24  and  O_25
REMARK   10  A    between atoms: O_25  and  C_26
REMARK   11  A    between atoms: C_27  and  O_28
REMARK   12  A    between atoms: O_28  and  C_29
REMARK   13  A    between atoms: C_32  and  N_33
REMARK                            x       y       z     vdW  Elec       q    Type
REMARK                         _______ _______ _______ _____ _____    ______ ____
ROOT
ATOM      1  C   UNL     1       0.317  10.414  20.378  0.00  0.00    +0.000 C 
ATOM      2  C   UNL     1       0.490   9.037  21.110  0.00  0.00    +0.000 C 
ATOM      3  C   UNL     1       0.193   9.817  22.392  0.00  0.00    +0.000 C 
ATOM      4  O   UNL     1       0.081   9.518  23.560  0.00  0.00    +0.000 OA
ATOM      5  N   UNL     1       0.009  10.970  21.696  0.00  0.00    +0.000 N 
ENDROOT
BRANCH   1   9
ATOM      6  C   UNL     1      -2.861  10.603  17.249  0.00  0.00    +0.000 A 
ATOM      7  C   UNL     1      -1.609  10.035  16.987  0.00  0.00    +0.000 A 
ATOM      8  C   UNL     1      -0.633   9.969  17.977  0.00  0.00    +0.000 A 
ATOM      9  C   UNL     1      -0.830  10.478  19.276  0.00  0.00    +0.000 A 
ATOM     10  C   UNL     1      -2.085  11.064  19.530  0.00  0.00    +0.000 A 
ATOM     11  C   UNL     1      -3.067  11.136  18.524  0.00  0.00    +0.000 A 
BRANCH  11  12
ATOM     12  N   UNL     1      -4.327  11.767  18.867  0.00  0.00    +0.000 N 
ATOM     13  O   UNL     1      -5.366  11.135  18.636  0.00  0.00    +0.000 OA
ATOM     14  O   UNL     1      -4.267  12.932  19.288  0.00  0.00    +0.000 OA
ENDBRANCH  11  12
BRANCH   6  16
ATOM     15  C   UNL     1      -3.434  10.418  14.968  0.00  0.00    +0.000 C 
ATOM     16  O   UNL     1      -3.858  10.655  16.314  0.00  0.00    +0.000 OA
ENDBRANCH   6  16
ENDBRANCH   1   9
BRANCH   5  17
ATOM     17  C   UNL     1      -0.399  12.237  22.106  0.00  0.00    +0.000 A 
ATOM     18  C   UNL     1       0.311  13.345  21.661  0.00  0.00    +0.000 A 
ATOM     19  C   UNL     1      -0.063  14.644  22.002  0.00  0.00    +0.000 A 
ATOM     20  C   UNL     1      -1.150  14.852  22.877  0.00  0.00    +0.000 A 
ATOM     21  C   UNL     1      -1.842  13.729  23.381  0.00  0.00    +0.000 A 
ATOM     22  C   UNL     1      -1.483  12.434  22.959  0.00  0.00    +0.000 A 
BRANCH  19  23
ATOM     23  O   UNL     1       0.625  15.734  21.513  0.00  0.00    +0.000 OA
ATOM     24  C   UNL     1       0.609  15.866  20.086  0.00  0.00    +0.000 C 
ENDBRANCH  19  23
BRANCH  20  25
ATOM     25  O   UNL     1      -1.386  16.163  23.222  0.00  0.00    +0.000 OA
ATOM     26  C   UNL     1      -2.428  16.850  22.537  0.00  0.00    +0.000 C 
ENDBRANCH  20  25
BRANCH  21  27
ATOM     27  O   UNL     1      -2.878  13.933  24.257  0.00  0.00    +0.000 OA
ATOM     28  C   UNL     1      -4.183  13.564  23.818  0.00  0.00    +0.000 C 
ENDBRANCH  21  27
ENDBRANCH   5  17
BRANCH   2  29
ATOM     29  O   UNL     1       1.792   8.414  21.073  0.00  0.00    +0.000 OA
BRANCH  29  30
ATOM     30  C   UNL     1       1.934   7.332  20.244  0.00  0.00    +0.000 A 
ATOM     31  C   UNL     1       2.361   7.598  18.945  0.00  0.00    +0.000 A 
ATOM     32  C   UNL     1       2.504   6.551  18.032  0.00  0.00    +0.000 A 
ATOM     33  C   UNL     1       2.236   5.240  18.425  0.00  0.00    +0.000 A 
ATOM     34  C   UNL     1       1.851   4.972  19.736  0.00  0.00    +0.000 A 
ATOM     35  C   UNL     1       1.706   6.016  20.647  0.00  0.00    +0.000 A 
ENDBRANCH  29  30
ENDBRANCH   2  29
TORSDOF 9
ENDMDL
MODEL 9
REMARK VINA RESULT:      -6.7      0.910      1.040
REMARK  Name = 
REMARK  13 active torsions:
REMARK  status: ('A' for Active; 'I' for Inactive)
REMARK    1  A    between atoms: C_1  and  O_2
REMARK    2  A    between atoms: O_2  and  C_3
REMARK    3  A    between atoms: C_6  and  C_7
REMARK    4  A    between atoms: C_8  and  O_9
REMARK    5  A    between atoms: O_9  and  C_10
REMARK    6  A    between atoms: N_18  and  C_19
REMARK    7  A    between atoms: C_21  and  O_22
REMARK    8  A    between atoms: O_22  and  C_23
REMARK    9  A    between atoms: C_24  and  O_25
REMARK   10  A    between atoms: O_25  and  C_26
REMARK   11  A    between atoms: C_27  and  O_28
REMARK   12  A    between atoms: O_28  and  C_29
REMARK   13  A    between atoms: C_32  and  N_33
REMARK                            x       y       z     vdW  Elec       q    Type
REMARK                         _______ _______ _______ _____ _____    ______ ____
ROOT
ATOM      1  C   UNL     1      -0.362  11.577  20.038  0.00  0.00    +0.000 C 
ATOM      2  C   UNL     1       0.204  10.162  20.409  0.00  0.00    +0.000 C 
ATOM      3  C   UNL     1       0.116  10.638  21.859  0.00  0.00    +0.000 C 
ATOM      4  O   UNL     1       0.346  10.131  22.934  0.00  0.00    +0.000 OA
ATOM      5  N   UNL     1      -0.416  11.830  21.478  0.00  0.00    +0.000 N 
ENDROOT
BRANCH   1   9
ATOM      6  C   UNL     1      -4.259  11.601  17.862  0.00  0.00    +0.000 A 
ATOM      7  C   UNL     1      -4.144  12.107  19.161  0.00  0.00    +0.000 A 
ATOM      8  C   UNL     1      -2.919  12.107  19.821  0.00  0.00    +0.000 A 
ATOM      9  C   UNL     1      -1.742  11.590  19.244  0.00  0.00    +0.000 A 
ATOM     10  C   UNL     1      -1.866  11.066  17.944  0.00  0.00    +0.000 A 
ATOM     11  C   UNL     1      -3.108  11.059  17.282  0.00  0.00    +0.000 A 
BRANCH  11  12
ATOM     12  N   UNL     1      -3.150  10.490  15.949  0.00  0.00    +0.000 N 
ATOM     13  O   UNL     1      -3.252  11.271  14.994  0.00  0.00    +0.000 OA
ATOM     14  O   UNL     1      -3.167   9.252  15.875  0.00  0.00    +0.000 OA
ENDBRANCH  11  12
BRANCH   6  16
ATOM     15  C   UNL     1      -6.612  11.727  17.974  0.00  0.00    +0.000 C 
ATOM     16  O   UNL     1      -5.437  11.614  17.166  0.00  0.00    +0.000 OA
ENDBRANCH   6  16
ENDBRANCH   1   9
BRANCH   5  17
ATOM     17  C   UNL     1      -0.905  12.899  22.223  0.00  0.00    +0.000 A 
ATOM     18  C   UNL     1      -0.255  14.124  22.143  0.00  0.00    +0.000 A 
ATOM     19  C   UNL     1      -0.711  15.247  22.833  0.00  0.00    +0.000 A 
ATOM     20  C   UNL     1      -1.823  15.135  23.693  0.00  0.00    +0.000 A 
ATOM     21  C   UNL     1      -2.457  13.879  23.826  0.00  0.00    +0.000 A 
ATOM     22  C   UNL     1      -2.014  12.784  23.059  0.00  0.00    +0.000 A 
BRANCH  19  23
ATOM     23  O   UNL     1      -0.079  16.465  22.704  0.00  0.00    +0.000 OA
ATOM     24  C   UNL     1       1.322  16.452  23.001  0.00  0.00    +0.000 C 
ENDBRANCH  19  23
BRANCH  20  25
ATOM     25  O   UNL     1      -2.142  16.274  24.395  0.00  0.00    +0.000 OA
ATOM     26  C   UNL     1      -1.668  16.381  25.732  0.00  0.00    +0.000 C 
ENDBRANCH  20  25
BRANCH  21  27
ATOM     27  O   UNL     1      -3.518  13.765  24.688  0.00  0.00    +0.000 OA
ATOM     28  C   UNL     1      -4.320  12.593  24.580  0.00  0.00    +0.000 C 
ENDBRANCH  21  27
ENDBRANCH   5  17
BRANCH   2  29
ATOM     29  O   UNL     1       1.539   9.832  19.964  0.00  0.00    +0.000 OA
BRANCH  29  30
ATOM     30  C   UNL     1       1.787   8.515  19.681  0.00  0.00    +0.000 A 
ATOM     31  C   UNL     1       1.526   7.602  20.700  0.00  0.00    +0.000 A 
ATOM     32  C   UNL     1       1.779   6.244  20.499  0.00  0.00    +0.000 A 
ATOM     33  C   UNL     1       2.276   5.799  19.275  0.00  0.00    +0.000 A 
ATOM     34  C   UNL     1       2.495   6.708  18.242  0.00  0.00    +0.000 A 
ATOM     35  C   UNL     1       2.245   8.065  18.443  0.00  0.00    +0.000 A 
ENDBRANCH  29  30
ENDBRANCH   2  29
TORSDOF 9
ENDMDL
