MODEL 1
REMARK VINA RESULT:      -7.9      0.000      0.000
REMARK  Name = 
REMARK  8 active torsions:
REMARK  status: ('A' for Active; 'I' for Inactive)
REMARK    1  A    between atoms: C_1  and  O_2
REMARK    2  A    between atoms: O_2  and  C_3
REMARK    3  A    between atoms: C_7  and  N_8
REMARK    4  A    between atoms: C_9  and  C_11
REMARK    5  A    between atoms: C_11  and  C_12
REMARK    6  A    between atoms: C_16  and  C_18
REMARK    7  A    between atoms: C_18  and  C_19
REMARK    8  A    between atoms: C_19  and  C_20
REMARK                            x       y       z     vdW  Elec       q    Type
REMARK                         _______ _______ _______ _____ _____    ______ ____
ROOT
ATOM      1  C   UNL     1       2.444   3.490  19.546  0.00  0.00    +0.000 C 
ATOM      2  C   UNL     1       1.278   2.919  18.732  0.00  0.00    +0.000 C 
ATOM      3  C   UNL     1       2.622   2.792  20.929  0.00  0.00    +0.000 C 
ATOM      4  C   UNL     1       1.731   3.871  21.538  0.00  0.00    +0.000 C 
ATOM      5  N   UNL     1       2.031   4.657  20.352  0.00  0.00    +0.000 N 
ATOM      6  C   UNL     1       1.719   5.951  20.029  0.00  0.00    +0.000 C 
ATOM      7  O   UNL     1       2.020   6.436  18.945  0.00  0.00    +0.000 OA
ENDROOT
BRANCH   1   9
ATOM      8  N   UNL     1       3.841   4.353  17.630  0.00  0.00    +0.000 N 
ATOM      9  C   UNL     1       3.773   3.490  18.713  0.00  0.00    +0.000 C 
ATOM     10  O   UNL     1       4.682   2.709  19.027  0.00  0.00    +0.000 OA
ATOM     11  H   UNL     1       2.964   4.790  17.346  0.00  0.00    +0.000 HD
BRANCH   8  16
ATOM     12  C   UNL     1       6.952   5.772  16.201  0.00  0.00    +0.000 A 
ATOM     13  C   UNL     1       7.155   4.959  15.087  0.00  0.00    +0.000 A 
ATOM     14  C   UNL     1       6.275   3.919  14.812  0.00  0.00    +0.000 A 
ATOM     15  C   UNL     1       5.184   3.695  15.652  0.00  0.00    +0.000 A 
ATOM     16  C   UNL     1       4.958   4.505  16.772  0.00  0.00    +0.000 A 
ATOM     17  C   UNL     1       5.872   5.526  17.061  0.00  0.00    +0.000 A 
BRANCH  12  19
ATOM     18  C   UNL     1       7.672   7.616  17.486  0.00  0.00    +0.000 C 
ATOM     19  O   UNL     1       7.879   6.767  16.363  0.00  0.00    +0.000 OA
ENDBRANCH  12  19
ENDBRANCH   8  16
ENDBRANCH   1   9
BRANCH   6  20
ATOM     20  C   UNL     1       1.078   6.746  21.168  0.00  0.00    +0.000 C 
BRANCH  20  21
ATOM     21  C   UNL     1       1.721   8.113  21.398  0.00  0.00    +0.000 C 
BRANCH  21  22
ATOM     22  C   UNL     1       0.683   9.206  21.603  0.00  0.00    +0.000 A 
ATOM     23  C   UNL     1       0.146   9.399  22.889  0.00  0.00    +0.000 A 
ATOM     24  C   UNL     1      -0.804  10.396  23.129  0.00  0.00    +0.000 A 
ATOM     25  C   UNL     1      -1.233  11.213  22.088  0.00  0.00    +0.000 A 
ATOM     26 CL   UNL     1      -2.394  12.447  22.388  0.00  0.00    +0.000 Cl
ATOM     27  C   UNL     1      -0.729  11.033  20.803  0.00  0.00    +0.000 A 
ATOM     28  C   UNL     1       0.217  10.031  20.560  0.00  0.00    +0.000 A 
ATOM     29 CL   UNL     1       0.778   9.847  18.937  0.00  0.00    +0.000 Cl
ENDBRANCH  21  22
ENDBRANCH  20  21
ENDBRANCH   6  20
TORSDOF 6
ENDMDL
MODEL 2
REMARK VINA RESULT:      -7.8      1.290      1.858
REMARK  Name = 
REMARK  8 active torsions:
REMARK  status: ('A' for Active; 'I' for Inactive)
REMARK    1  A    between atoms: C_1  and  O_2
REMARK    2  A    between atoms: O_2  and  C_3
REMARK    3  A    between atoms: C_7  and  N_8
REMARK    4  A    between atoms: C_9  and  C_11
REMARK    5  A    between atoms: C_11  and  C_12
REMARK    6  A    between atoms: C_16  and  C_18
REMARK    7  A    between atoms: C_18  and  C_19
REMARK    8  A    between atoms: C_19  and  C_20
REMARK                            x       y       z     vdW  Elec       q    Type
REMARK                         _______ _______ _______ _____ _____    ______ ____
ROOT
ATOM      1  C   UNL     1       2.402   3.328  19.395  0.00  0.00    +0.000 C 
ATOM      2  C   UNL     1       1.083   2.725  18.900  0.00  0.00    +0.000 C 
ATOM      3  C   UNL     1       2.835   2.785  20.791  0.00  0.00    +0.000 C 
ATOM      4  C   UNL     1       2.110   3.968  21.427  0.00  0.00    +0.000 C 
ATOM      5  N   UNL     1       2.187   4.598  20.119  0.00  0.00    +0.000 N 
ATOM      6  C   UNL     1       1.849   5.860  19.708  0.00  0.00    +0.000 C 
ATOM      7  O   UNL     1       1.939   6.203  18.536  0.00  0.00    +0.000 OA
ENDROOT
BRANCH   1   9
ATOM      8  N   UNL     1       4.020   4.328  17.738  0.00  0.00    +0.000 N 
ATOM      9  C   UNL     1       3.538   3.169  18.326  0.00  0.00    +0.000 C 
ATOM     10  O   UNL     1       3.931   2.032  18.027  0.00  0.00    +0.000 OA
ATOM     11  H   UNL     1       3.482   5.178  17.908  0.00  0.00    +0.000 HD
BRANCH   8  16
ATOM     12  C   UNL     1       5.688   4.155  14.433  0.00  0.00    +0.000 A 
ATOM     13  C   UNL     1       7.021   4.385  14.770  0.00  0.00    +0.000 A 
ATOM     14  C   UNL     1       7.376   4.622  16.092  0.00  0.00    +0.000 A 
ATOM     15  C   UNL     1       6.393   4.623  17.083  0.00  0.00    +0.000 A 
ATOM     16  C   UNL     1       5.050   4.387  16.767  0.00  0.00    +0.000 A 
ATOM     17  C   UNL     1       4.699   4.187  15.426  0.00  0.00    +0.000 A 
BRANCH  12  19
ATOM     18  C   UNL     1       6.620   3.624  12.331  0.00  0.00    +0.000 C 
ATOM     19  O   UNL     1       5.463   3.926  13.101  0.00  0.00    +0.000 OA
ENDBRANCH  12  19
ENDBRANCH   8  16
ENDBRANCH   1   9
BRANCH   6  20
ATOM     20  C   UNL     1       1.468   6.810  20.845  0.00  0.00    +0.000 C 
BRANCH  20  21
ATOM     21  C   UNL     1       1.774   8.277  20.546  0.00  0.00    +0.000 C 
BRANCH  21  22
ATOM     22  C   UNL     1       0.763   9.215  21.188  0.00  0.00    +0.000 A 
ATOM     23  C   UNL     1       0.524   9.111  22.570  0.00  0.00    +0.000 A 
ATOM     24  C   UNL     1      -0.390   9.957  23.207  0.00  0.00    +0.000 A 
ATOM     25  C   UNL     1      -1.080  10.916  22.472  0.00  0.00    +0.000 A 
ATOM     26 CL   UNL     1      -2.195  11.962  23.259  0.00  0.00    +0.000 Cl
ATOM     27  C   UNL     1      -0.873  11.029  21.099  0.00  0.00    +0.000 A 
ATOM     28  C   UNL     1       0.037  10.178  20.460  0.00  0.00    +0.000 A 
ATOM     29 CL   UNL     1       0.222  10.357  18.752  0.00  0.00    +0.000 Cl
ENDBRANCH  21  22
ENDBRANCH  20  21
ENDBRANCH   6  20
TORSDOF 6
ENDMDL
MODEL 3
REMARK VINA RESULT:      -7.8      1.082      1.567
REMARK  Name = 
REMARK  8 active torsions:
REMARK  status: ('A' for Active; 'I' for Inactive)
REMARK    1  A    between atoms: C_1  and  O_2
REMARK    2  A    between atoms: O_2  and  C_3
REMARK    3  A    between atoms: C_7  and  N_8
REMARK    4  A    between atoms: C_9  and  C_11
REMARK    5  A    between atoms: C_11  and  C_12
REMARK    6  A    between atoms: C_16  and  C_18
REMARK    7  A    between atoms: C_18  and  C_19
REMARK    8  A    between atoms: C_19  and  C_20
REMARK                            x       y       z     vdW  Elec       q    Type
REMARK                         _______ _______ _______ _____ _____    ______ ____
ROOT
ATOM      1  C   UNL     1       2.689   3.396  19.692  0.00  0.00    +0.000 C 
ATOM      2  C   UNL     1       1.566   2.680  18.934  0.00  0.00    +0.000 C 
ATOM      3  C   UNL     1       2.938   2.806  21.114  0.00  0.00    +0.000 C 
ATOM      4  C   UNL     1       1.967   3.846  21.666  0.00  0.00    +0.000 C 
ATOM      5  N   UNL     1       2.189   4.575  20.429  0.00  0.00    +0.000 N 
ATOM      6  C   UNL     1       1.768   5.815  20.028  0.00  0.00    +0.000 C 
ATOM      7  O   UNL     1       2.017   6.252  18.912  0.00  0.00    +0.000 OA
ENDROOT
BRANCH   1   9
ATOM      8  N   UNL     1       3.996   4.259  17.714  0.00  0.00    +0.000 N 
ATOM      9  C   UNL     1       4.005   3.451  18.841  0.00  0.00    +0.000 C 
ATOM     10  O   UNL     1       4.973   2.756  19.181  0.00  0.00    +0.000 OA
ATOM     11  H   UNL     1       3.087   4.615  17.422  0.00  0.00    +0.000 HD
BRANCH   8  16
ATOM     12  C   UNL     1       7.024   5.785  16.219  0.00  0.00    +0.000 A 
ATOM     13  C   UNL     1       7.235   4.976  15.103  0.00  0.00    +0.000 A 
ATOM     14  C   UNL     1       6.388   3.904  14.849  0.00  0.00    +0.000 A 
ATOM     15  C   UNL     1       5.322   3.644  15.711  0.00  0.00    +0.000 A 
ATOM     16  C   UNL     1       5.090   4.448  16.834  0.00  0.00    +0.000 A 
ATOM     17  C   UNL     1       5.972   5.503  17.101  0.00  0.00    +0.000 A 
BRANCH  12  19
ATOM     18  C   UNL     1       7.684   7.678  17.464  0.00  0.00    +0.000 C 
ATOM     19  O   UNL     1       7.918   6.813  16.359  0.00  0.00    +0.000 OA
ENDBRANCH  12  19
ENDBRANCH   8  16
ENDBRANCH   1   9
BRANCH   6  20
ATOM     20  C   UNL     1       1.075   6.628  21.124  0.00  0.00    +0.000 C 
BRANCH  20  21
ATOM     21  C   UNL     1       1.692   8.007  21.347  0.00  0.00    +0.000 C 
BRANCH  21  22
ATOM     22  C   UNL     1       0.782   9.126  20.865  0.00  0.00    +0.000 A 
ATOM     23  C   UNL     1       0.787   9.463  19.499  0.00  0.00    +0.000 A 
ATOM     24  C   UNL     1      -0.038  10.479  19.006  0.00  0.00    +0.000 A 
ATOM     25  C   UNL     1      -0.878  11.174  19.871  0.00  0.00    +0.000 A 
ATOM     26 CL   UNL     1      -1.900  12.416  19.260  0.00  0.00    +0.000 Cl
ATOM     27  C   UNL     1      -0.890  10.871  21.230  0.00  0.00    +0.000 A 
ATOM     28  C   UNL     1      -0.060   9.859  21.725  0.00  0.00    +0.000 A 
ATOM     29 CL   UNL     1      -0.108   9.556  23.425  0.00  0.00    +0.000 Cl
ENDBRANCH  21  22
ENDBRANCH  20  21
ENDBRANCH   6  20
TORSDOF 6
ENDMDL
MODEL 4
REMARK VINA RESULT:      -7.5      1.713      2.538
REMARK  Name = 
REMARK  8 active torsions:
REMARK  status: ('A' for Active; 'I' for Inactive)
REMARK    1  A    between atoms: C_1  and  O_2
REMARK    2  A    between atoms: O_2  and  C_3
REMARK    3  A    between atoms: C_7  and  N_8
REMARK    4  A    between atoms: C_9  and  C_11
REMARK    5  A    between atoms: C_11  and  C_12
REMARK    6  A    between atoms: C_16  and  C_18
REMARK    7  A    between atoms: C_18  and  C_19
REMARK    8  A    between atoms: C_19  and  C_20
REMARK                            x       y       z     vdW  Elec       q    Type
REMARK                         _______ _______ _______ _____ _____    ______ ____
ROOT
ATOM      1  C   UNL     1       2.561   4.206  19.210  0.00  0.00    +0.000 C 
ATOM      2  C   UNL     1       1.276   3.838  18.460  0.00  0.00    +0.000 C 
ATOM      3  C   UNL     1       2.711   3.456  20.569  0.00  0.00    +0.000 C 
ATOM      4  C   UNL     1       2.032   4.643  21.247  0.00  0.00    +0.000 C 
ATOM      5  N   UNL     1       2.379   5.402  20.057  0.00  0.00    +0.000 N 
ATOM      6  C   UNL     1       2.250   6.736  19.772  0.00  0.00    +0.000 C 
ATOM      7  O   UNL     1       2.557   7.195  18.680  0.00  0.00    +0.000 OA
ENDROOT
BRANCH   1   9
ATOM      8  N   UNL     1       3.986   4.924  17.256  0.00  0.00    +0.000 N 
ATOM      9  C   UNL     1       3.824   4.024  18.298  0.00  0.00    +0.000 C 
ATOM     10  O   UNL     1       4.596   3.080  18.517  0.00  0.00    +0.000 OA
ATOM     11  H   UNL     1       3.187   5.523  17.049  0.00  0.00    +0.000 HD
BRANCH   8  16
ATOM     12  C   UNL     1       5.969   4.145  14.223  0.00  0.00    +0.000 A 
ATOM     13  C   UNL     1       7.174   4.793  14.491  0.00  0.00    +0.000 A 
ATOM     14  C   UNL     1       7.332   5.512  15.669  0.00  0.00    +0.000 A 
ATOM     15  C   UNL     1       6.282   5.579  16.587  0.00  0.00    +0.000 A 
ATOM     16  C   UNL     1       5.067   4.930  16.340  0.00  0.00    +0.000 A 
ATOM     17  C   UNL     1       4.905   4.239  15.132  0.00  0.00    +0.000 A 
BRANCH  12  19
ATOM     18  C   UNL     1       6.932   3.833  12.092  0.00  0.00    +0.000 C 
ATOM     19  O   UNL     1       5.935   3.462  13.037  0.00  0.00    +0.000 OA
ENDBRANCH  12  19
ENDBRANCH   8  16
ENDBRANCH   1   9
BRANCH   6  20
ATOM     20  C   UNL     1       1.805   7.592  20.960  0.00  0.00    +0.000 C 
BRANCH  20  21
ATOM     21  C   UNL     1       0.327   7.978  20.917  0.00  0.00    +0.000 C 
BRANCH  21  22
ATOM     22  C   UNL     1       0.131   9.458  20.629  0.00  0.00    +0.000 A 
ATOM     23  C   UNL     1       0.347   9.930  19.322  0.00  0.00    +0.000 A 
ATOM     24  C   UNL     1       0.172  11.281  19.006  0.00  0.00    +0.000 A 
ATOM     25  C   UNL     1      -0.220  12.180  19.993  0.00  0.00    +0.000 A 
ATOM     26 CL   UNL     1      -0.447  13.840  19.600  0.00  0.00    +0.000 Cl
ATOM     27  C   UNL     1      -0.426  11.742  21.298  0.00  0.00    +0.000 A 
ATOM     28  C   UNL     1      -0.244  10.391  21.616  0.00  0.00    +0.000 A 
ATOM     29 CL   UNL     1      -0.490   9.924  23.261  0.00  0.00    +0.000 Cl
ENDBRANCH  21  22
ENDBRANCH  20  21
ENDBRANCH   6  20
TORSDOF 6
ENDMDL
MODEL 5
REMARK VINA RESULT:      -7.4      1.744      2.578
REMARK  Name = 
REMARK  8 active torsions:
REMARK  status: ('A' for Active; 'I' for Inactive)
REMARK    1  A    between atoms: C_1  and  O_2
REMARK    2  A    between atoms: O_2  and  C_3
REMARK    3  A    between atoms: C_7  and  N_8
REMARK    4  A    between atoms: C_9  and  C_11
REMARK    5  A    between atoms: C_11  and  C_12
REMARK    6  A    between atoms: C_16  and  C_18
REMARK    7  A    between atoms: C_18  and  C_19
REMARK    8  A    between atoms: C_19  and  C_20
REMARK                            x       y       z     vdW  Elec       q    Type
REMARK                         _______ _______ _______ _____ _____    ______ ____
ROOT
ATOM      1  C   UNL     1       2.583   2.998  19.495  0.00  0.00    +0.000 C 
ATOM      2  C   UNL     1       1.331   2.195  19.124  0.00  0.00    +0.000 C 
ATOM      3  C   UNL     1       3.191   2.578  20.868  0.00  0.00    +0.000 C 
ATOM      4  C   UNL     1       2.353   3.671  21.524  0.00  0.00    +0.000 C 
ATOM      5  N   UNL     1       2.242   4.253  20.196  0.00  0.00    +0.000 N 
ATOM      6  C   UNL     1       1.696   5.436  19.776  0.00  0.00    +0.000 C 
ATOM      7  O   UNL     1       1.649   5.741  18.591  0.00  0.00    +0.000 OA
ENDROOT
BRANCH   1   9
ATOM      8  N   UNL     1       4.181   4.169  17.934  0.00  0.00    +0.000 N 
ATOM      9  C   UNL     1       3.647   2.957  18.345  0.00  0.00    +0.000 C 
ATOM     10  O   UNL     1       3.940   1.868  17.832  0.00  0.00    +0.000 OA
ATOM     11  H   UNL     1       3.714   5.007  18.280  0.00  0.00    +0.000 HD
BRANCH   8  16
ATOM     12  C   UNL     1       5.693   4.288  14.553  0.00  0.00    +0.000 A 
ATOM     13  C   UNL     1       7.033   4.541  14.844  0.00  0.00    +0.000 A 
ATOM     14  C   UNL     1       7.443   4.696  16.163  0.00  0.00    +0.000 A 
ATOM     15  C   UNL     1       6.509   4.592  17.195  0.00  0.00    +0.000 A 
ATOM     16  C   UNL     1       5.160   4.332  16.924  0.00  0.00    +0.000 A 
ATOM     17  C   UNL     1       4.752   4.215  15.589  0.00  0.00    +0.000 A 
BRANCH  12  19
ATOM     18  C   UNL     1       6.363   3.395  12.473  0.00  0.00    +0.000 C 
ATOM     19  O   UNL     1       5.412   4.145  13.220  0.00  0.00    +0.000 OA
ENDBRANCH  12  19
ENDBRANCH   8  16
ENDBRANCH   1   9
BRANCH   6  20
ATOM     20  C   UNL     1       1.267   6.369  20.912  0.00  0.00    +0.000 C 
BRANCH  20  21
ATOM     21  C   UNL     1       1.974   7.723  20.892  0.00  0.00    +0.000 C 
BRANCH  21  22
ATOM     22  C   UNL     1       1.120   8.805  20.251  0.00  0.00    +0.000 A 
ATOM     23  C   UNL     1       1.327   9.117  18.895  0.00  0.00    +0.000 A 
ATOM     24  C   UNL     1       0.562  10.100  18.258  0.00  0.00    +0.000 A 
ATOM     25  C   UNL     1      -0.419  10.785  18.967  0.00  0.00    +0.000 A 
ATOM     26 CL   UNL     1      -1.368  11.985  18.179  0.00  0.00    +0.000 Cl
ATOM     27  C   UNL     1      -0.634  10.506  20.314  0.00  0.00    +0.000 A 
ATOM     28  C   UNL     1       0.137   9.528  20.954  0.00  0.00    +0.000 A 
ATOM     29 CL   UNL     1      -0.165   9.254  22.633  0.00  0.00    +0.000 Cl
ENDBRANCH  21  22
ENDBRANCH  20  21
ENDBRANCH   6  20
TORSDOF 6
ENDMDL
MODEL 6
REMARK VINA RESULT:      -7.3      4.401      8.840
REMARK  Name = 
REMARK  8 active torsions:
REMARK  status: ('A' for Active; 'I' for Inactive)
REMARK    1  A    between atoms: C_1  and  O_2
REMARK    2  A    between atoms: O_2  and  C_3
REMARK    3  A    between atoms: C_7  and  N_8
REMARK    4  A    between atoms: C_9  and  C_11
REMARK    5  A    between atoms: C_11  and  C_12
REMARK    6  A    between atoms: C_16  and  C_18
REMARK    7  A    between atoms: C_18  and  C_19
REMARK    8  A    between atoms: C_19  and  C_20
REMARK                            x       y       z     vdW  Elec       q    Type
REMARK                         _______ _______ _______ _____ _____    ______ ____
ROOT
ATOM      1  C   UNL     1      -0.198  11.507  20.776  0.00  0.00    +0.000 C 
ATOM      2  C   UNL     1       0.974  12.491  20.861  0.00  0.00    +0.000 C 
ATOM      3  C   UNL     1      -0.979  11.371  22.119  0.00  0.00    +0.000 C 
ATOM      4  C   UNL     1      -0.077  10.192  22.472  0.00  0.00    +0.000 C 
ATOM      5  N   UNL     1       0.228  10.120  21.052  0.00  0.00    +0.000 N 
ATOM      6  C   UNL     1       0.952   9.206  20.334  0.00  0.00    +0.000 C 
ATOM      7  O   UNL     1       1.146   9.338  19.132  0.00  0.00    +0.000 OA
ENDROOT
BRANCH   1   9
ATOM      8  N   UNL     1      -1.718  10.794  18.893  0.00  0.00    +0.000 N 
ATOM      9  C   UNL     1      -1.148  11.856  19.578  0.00  0.00    +0.000 C 
ATOM     10  O   UNL     1      -1.323  13.044  19.272  0.00  0.00    +0.000 OA
ATOM     11  H   UNL     1      -1.341   9.869  19.100  0.00  0.00    +0.000 HD
BRANCH   8  16
ATOM     12  C   UNL     1      -3.007  10.555  15.427  0.00  0.00    +0.000 A 
ATOM     13  C   UNL     1      -4.254  11.168  15.539  0.00  0.00    +0.000 A 
ATOM     14  C   UNL     1      -4.688  11.647  16.769  0.00  0.00    +0.000 A 
ATOM     15  C   UNL     1      -3.868  11.516  17.891  0.00  0.00    +0.000 A 
ATOM     16  C   UNL     1      -2.610  10.909  17.798  0.00  0.00    +0.000 A 
ATOM     17  C   UNL     1      -2.199  10.397  16.561  0.00  0.00    +0.000 A 
BRANCH  12  19
ATOM     18  C   UNL     1      -3.793   9.903  13.299  0.00  0.00    +0.000 C 
ATOM     19  O   UNL     1      -2.687  10.132  14.164  0.00  0.00    +0.000 OA
ENDBRANCH  12  19
ENDBRANCH   8  16
ENDBRANCH   1   9
BRANCH   6  20
ATOM     20  C   UNL     1       1.385   7.977  21.136  0.00  0.00    +0.000 C 
BRANCH  20  21
ATOM     21  C   UNL     1       2.549   7.214  20.505  0.00  0.00    +0.000 C 
BRANCH  21  22
ATOM     22  C   UNL     1       2.118   5.859  19.964  0.00  0.00    +0.000 A 
ATOM     23  C   UNL     1       1.425   4.978  20.814  0.00  0.00    +0.000 A 
ATOM     24  C   UNL     1       1.001   3.725  20.360  0.00  0.00    +0.000 A 
ATOM     25  C   UNL     1       1.266   3.334  19.051  0.00  0.00    +0.000 A 
ATOM     26 CL   UNL     1       0.733   1.796  18.492  0.00  0.00    +0.000 Cl
ATOM     27  C   UNL     1       1.964   4.180  18.194  0.00  0.00    +0.000 A 
ATOM     28  C   UNL     1       2.394   5.432  18.650  0.00  0.00    +0.000 A 
ATOM     29 CL   UNL     1       3.278   6.418  17.540  0.00  0.00    +0.000 Cl
ENDBRANCH  21  22
ENDBRANCH  20  21
ENDBRANCH   6  20
TORSDOF 6
ENDMDL
MODEL 7
REMARK VINA RESULT:      -7.3      4.436      9.346
REMARK  Name = 
REMARK  8 active torsions:
REMARK  status: ('A' for Active; 'I' for Inactive)
REMARK    1  A    between atoms: C_1  and  O_2
REMARK    2  A    between atoms: O_2  and  C_3
REMARK    3  A    between atoms: C_7  and  N_8
REMARK    4  A    between atoms: C_9  and  C_11
REMARK    5  A    between atoms: C_11  and  C_12
REMARK    6  A    between atoms: C_16  and  C_18
REMARK    7  A    between atoms: C_18  and  C_19
REMARK    8  A    between atoms: C_19  and  C_20
REMARK                            x       y       z     vdW  Elec       q    Type
REMARK                         _______ _______ _______ _____ _____    ______ ____
ROOT
ATOM      1  C   UNL     1       0.605  10.822  20.103  0.00  0.00    +0.000 C 
ATOM      2  C   UNL     1       1.737  11.846  20.241  0.00  0.00    +0.000 C 
ATOM      3  C   UNL     1       0.072  10.314  21.477  0.00  0.00    +0.000 C 
ATOM      4  C   UNL     1       1.064   9.158  21.385  0.00  0.00    +0.000 C 
ATOM      5  N   UNL     1       1.123   9.446  19.961  0.00  0.00    +0.000 N 
ATOM      6  C   UNL     1       1.747   8.786  18.935  0.00  0.00    +0.000 C 
ATOM      7  O   UNL     1       1.727   9.212  17.787  0.00  0.00    +0.000 OA
ENDROOT
BRANCH   1   9
ATOM      8  N   UNL     1      -1.651  10.547  19.007  0.00  0.00    +0.000 N 
ATOM      9  C   UNL     1      -0.549  11.368  19.192  0.00  0.00    +0.000 C 
ATOM     10  O   UNL     1      -0.420  12.477  18.654  0.00  0.00    +0.000 OA
ATOM     11  H   UNL     1      -1.554   9.583  19.326  0.00  0.00    +0.000 HD
BRANCH   8  16
ATOM     12  C   UNL     1      -3.934  10.724  16.093  0.00  0.00    +0.000 A 
ATOM     13  C   UNL     1      -4.964  11.528  16.581  0.00  0.00    +0.000 A 
ATOM     14  C   UNL     1      -4.921  12.000  17.887  0.00  0.00    +0.000 A 
ATOM     15  C   UNL     1      -3.841  11.671  18.708  0.00  0.00    +0.000 A 
ATOM     16  C   UNL     1      -2.794  10.871  18.235  0.00  0.00    +0.000 A 
ATOM     17  C   UNL     1      -2.866  10.370  16.929  0.00  0.00    +0.000 A 
BRANCH  12  19
ATOM     18  C   UNL     1      -2.882   9.954  14.126  0.00  0.00    +0.000 C 
ATOM     19  O   UNL     1      -4.083  10.327  14.791  0.00  0.00    +0.000 OA
ENDBRANCH  12  19
ENDBRANCH   8  16
ENDBRANCH   1   9
BRANCH   6  20
ATOM     20  C   UNL     1       2.357   7.440  19.333  0.00  0.00    +0.000 C 
BRANCH  20  21
ATOM     21  C   UNL     1       2.070   6.320  18.336  0.00  0.00    +0.000 C 
BRANCH  21  22
ATOM     22  C   UNL     1       3.335   5.826  17.650  0.00  0.00    +0.000 A 
ATOM     23  C   UNL     1       4.345   6.755  17.342  0.00  0.00    +0.000 A 
ATOM     24  C   UNL     1       5.530   6.348  16.719  0.00  0.00    +0.000 A 
ATOM     25  C   UNL     1       5.720   5.009  16.392  0.00  0.00    +0.000 A 
ATOM     26 CL   UNL     1       7.182   4.510  15.636  0.00  0.00    +0.000 Cl
ATOM     27  C   UNL     1       4.728   4.073  16.672  0.00  0.00    +0.000 A 
ATOM     28  C   UNL     1       3.540   4.480  17.289  0.00  0.00    +0.000 A 
ATOM     29 CL   UNL     1       2.343   3.268  17.581  0.00  0.00    +0.000 Cl
ENDBRANCH  21  22
ENDBRANCH  20  21
ENDBRANCH   6  20
TORSDOF 6
ENDMDL
MODEL 8
REMARK VINA RESULT:      -7.3      4.559      9.092
REMARK  Name = 
REMARK  8 active torsions:
REMARK  status: ('A' for Active; 'I' for Inactive)
REMARK    1  A    between atoms: C_1  and  O_2
REMARK    2  A    between atoms: O_2  and  C_3
REMARK    3  A    between atoms: C_7  and  N_8
REMARK    4  A    between atoms: C_9  and  C_11
REMARK    5  A    between atoms: C_11  and  C_12
REMARK    6  A    between atoms: C_16  and  C_18
REMARK    7  A    between atoms: C_18  and  C_19
REMARK    8  A    between atoms: C_19  and  C_20
REMARK                            x       y       z     vdW  Elec       q    Type
REMARK                         _______ _______ _______ _____ _____    ______ ____
ROOT
ATOM      1  C   UNL     1       0.143  10.555  20.571  0.00  0.00    +0.000 C 
ATOM      2  C   UNL     1       1.098  11.704  20.913  0.00  0.00    +0.000 C 
ATOM      3  C   UNL     1      -0.295   9.733  21.821  0.00  0.00    +0.000 C 
ATOM      4  C   UNL     1       0.869   8.784  21.550  0.00  0.00    +0.000 C 
ATOM      5  N   UNL     1       0.875   9.326  20.201  0.00  0.00    +0.000 N 
ATOM      6  C   UNL     1       1.590   8.965  19.091  0.00  0.00    +0.000 C 
ATOM      7  O   UNL     1       1.497   9.579  18.035  0.00  0.00    +0.000 OA
ENDROOT
BRANCH   1   9
ATOM      8  N   UNL     1      -1.379  10.393  18.566  0.00  0.00    +0.000 N 
ATOM      9  C   UNL     1      -1.087  11.065  19.743  0.00  0.00    +0.000 C 
ATOM     10  O   UNL     1      -1.719  12.051  20.146  0.00  0.00    +0.000 OA
ATOM     11  H   UNL     1      -0.672   9.737  18.233  0.00  0.00    +0.000 HD
BRANCH   8  16
ATOM     12  C   UNL     1      -3.300  10.754  15.417  0.00  0.00    +0.000 A 
ATOM     13  C   UNL     1      -4.482  11.341  15.865  0.00  0.00    +0.000 A 
ATOM     14  C   UNL     1      -4.662  11.602  17.218  0.00  0.00    +0.000 A 
ATOM     15  C   UNL     1      -3.653  11.280  18.126  0.00  0.00    +0.000 A 
ATOM     16  C   UNL     1      -2.455  10.696  17.695  0.00  0.00    +0.000 A 
ATOM     17  C   UNL     1      -2.300  10.403  16.335  0.00  0.00    +0.000 A 
BRANCH  12  19
ATOM     18  C   UNL     1      -4.280   9.760  13.514  0.00  0.00    +0.000 C 
ATOM     19  O   UNL     1      -3.235  10.554  14.064  0.00  0.00    +0.000 OA
ENDBRANCH  12  19
ENDBRANCH   8  16
ENDBRANCH   1   9
BRANCH   6  20
ATOM     20  C   UNL     1       2.409   7.683  19.260  0.00  0.00    +0.000 C 
BRANCH  20  21
ATOM     21  C   UNL     1       2.942   7.119  17.944  0.00  0.00    +0.000 C 
BRANCH  21  22
ATOM     22  C   UNL     1       3.171   5.617  18.015  0.00  0.00    +0.000 A 
ATOM     23  C   UNL     1       2.437   4.863  18.949  0.00  0.00    +0.000 A 
ATOM     24  C   UNL     1       2.606   3.479  19.048  0.00  0.00    +0.000 A 
ATOM     25  C   UNL     1       3.512   2.828  18.217  0.00  0.00    +0.000 A 
ATOM     26 CL   UNL     1       3.710   1.123  18.331  0.00  0.00    +0.000 Cl
ATOM     27  C   UNL     1       4.263   3.553  17.294  0.00  0.00    +0.000 A 
ATOM     28  C   UNL     1       4.099   4.940  17.200  0.00  0.00    +0.000 A 
ATOM     29 CL   UNL     1       5.082   5.777  16.053  0.00  0.00    +0.000 Cl
ENDBRANCH  21  22
ENDBRANCH  20  21
ENDBRANCH   6  20
TORSDOF 6
ENDMDL
MODEL 9
REMARK VINA RESULT:      -7.2      4.344     10.333
REMARK  Name = 
REMARK  8 active torsions:
REMARK  status: ('A' for Active; 'I' for Inactive)
REMARK    1  A    between atoms: C_1  and  O_2
REMARK    2  A    between atoms: O_2  and  C_3
REMARK    3  A    between atoms: C_7  and  N_8
REMARK    4  A    between atoms: C_9  and  C_11
REMARK    5  A    between atoms: C_11  and  C_12
REMARK    6  A    between atoms: C_16  and  C_18
REMARK    7  A    between atoms: C_18  and  C_19
REMARK    8  A    between atoms: C_19  and  C_20
REMARK                            x       y       z     vdW  Elec       q    Type
REMARK                         _______ _______ _______ _____ _____    ______ ____
ROOT
ATOM      1  C   UNL     1      -0.694  10.908  19.446  0.00  0.00    +0.000 C 
ATOM      2  C   UNL     1      -1.640  10.197  18.471  0.00  0.00    +0.000 C 
ATOM      3  C   UNL     1       0.492  11.625  18.731  0.00  0.00    +0.000 C 
ATOM      4  C   UNL     1       1.319  10.357  18.928  0.00  0.00    +0.000 C 
ATOM      5  N   UNL     1       0.354   9.999  19.955  0.00  0.00    +0.000 N 
ATOM      6  C   UNL     1       0.334   8.961  20.847  0.00  0.00    +0.000 C 
ATOM      7  O   UNL     1      -0.602   8.789  21.619  0.00  0.00    +0.000 OA
ENDROOT
BRANCH   1   9
ATOM      8  N   UNL     1      -1.217  11.783  21.754  0.00  0.00    +0.000 N 
ATOM      9  C   UNL     1      -1.479  11.878  20.395  0.00  0.00    +0.000 C 
ATOM     10  O   UNL     1      -2.314  12.654  19.909  0.00  0.00    +0.000 OA
ATOM     11  H   UNL     1      -0.672  10.974  22.052  0.00  0.00    +0.000 HD
BRANCH   8  16
ATOM     12  C   UNL     1      -3.689  12.923  24.268  0.00  0.00    +0.000 A 
ATOM     13  C   UNL     1      -3.133  14.129  24.694  0.00  0.00    +0.000 A 
ATOM     14  C   UNL     1      -1.923  14.564  24.168  0.00  0.00    +0.000 A 
ATOM     15  C   UNL     1      -1.268  13.792  23.207  0.00  0.00    +0.000 A 
ATOM     16  C   UNL     1      -1.813  12.581  22.761  0.00  0.00    +0.000 A 
ATOM     17  C   UNL     1      -3.014  12.135  23.325  0.00  0.00    +0.000 A 
BRANCH  12  19
ATOM     18  C   UNL     1      -6.025  12.713  24.005  0.00  0.00    +0.000 C 
ATOM     19  O   UNL     1      -4.886  12.605  24.852  0.00  0.00    +0.000 OA
ENDBRANCH  12  19
ENDBRANCH   8  16
ENDBRANCH   1   9
BRANCH   6  20
ATOM     20  C   UNL     1       1.615   8.123  20.865  0.00  0.00    +0.000 C 
BRANCH  20  21
ATOM     21  C   UNL     1       1.362   6.618  20.801  0.00  0.00    +0.000 C 
BRANCH  21  22
ATOM     22  C   UNL     1       2.144   5.954  19.677  0.00  0.00    +0.000 A 
ATOM     23  C   UNL     1       2.989   6.746  18.879  0.00  0.00    +0.000 A 
ATOM     24  C   UNL     1       3.734   6.180  17.839  0.00  0.00    +0.000 A 
ATOM     25  C   UNL     1       3.642   4.816  17.581  0.00  0.00    +0.000 A 
ATOM     26 CL   UNL     1       4.568   4.121  16.308  0.00  0.00    +0.000 Cl
ATOM     27  C   UNL     1       2.801   4.013  18.346  0.00  0.00    +0.000 A 
ATOM     28  C   UNL     1       2.050   4.579  19.383  0.00  0.00    +0.000 A 
ATOM     29 CL   UNL     1       1.008   3.527  20.272  0.00  0.00    +0.000 Cl
ENDBRANCH  21  22
ENDBRANCH  20  21
ENDBRANCH   6  20
TORSDOF 6
ENDMDL
