MODEL 1
REMARK VINA RESULT:      -8.7      0.000      0.000
REMARK  Name = 
REMARK  7 active torsions:
REMARK  status: ('A' for Active; 'I' for Inactive)
REMARK    1  A    between atoms: N_3  and  C_4
REMARK    2  A    between atoms: N_10  and  C_11
REMARK    3  A    between atoms: C_14  and  N_15
REMARK    4  A    between atoms: N_15  and  C_16
REMARK    5  A    between atoms: C_16  and  C_17
REMARK    6  A    between atoms: C_20  and  C_21
REMARK    7  A    between atoms: C_21  and  O_23
REMARK                            x       y       z     vdW  Elec       q    Type
REMARK                         _______ _______ _______ _____ _____    ______ ____
ROOT
ATOM      1  C   UNL     1       8.010   7.087  18.328  0.00  0.00    +0.000 A 
ATOM      2  C   UNL     1       7.314   7.240  17.128  0.00  0.00    +0.000 A 
ATOM      3  C   UNL     1       6.711   6.145  16.500  0.00  0.00    +0.000 A 
ATOM      4  C   UNL     1       6.824   4.855  17.022  0.00  0.00    +0.000 A 
ATOM      5  C   UNL     1       7.501   4.711  18.239  0.00  0.00    +0.000 A 
ATOM      6  C   UNL     1       8.104   5.809  18.878  0.00  0.00    +0.000 A 
ENDROOT
BRANCH   1  10
ATOM      7  O   UNL     1       8.012   9.846  17.549  0.00  0.00    +0.000 OA
ATOM      8  C   UNL     1       8.652   9.471  18.524  0.00  0.00    +0.000 C 
ATOM      9  N   UNL     1       9.491  10.287  19.269  0.00  0.00    +0.000 N 
ATOM     10  N   UNL     1       8.629   8.170  19.001  0.00  0.00    +0.000 N 
ATOM     11  H   UNL     1      10.151   9.821  19.874  0.00  0.00    +0.000 HD
ATOM     12  H   UNL     1       8.848   8.041  19.977  0.00  0.00    +0.000 HD
BRANCH   9  13
ATOM     13  C   UNL     1       9.717  11.665  19.023  0.00  0.00    +0.000 A 
ATOM     14  C   UNL     1       9.076  12.685  19.733  0.00  0.00    +0.000 A 
ATOM     15  C   UNL     1       9.283  14.028  19.413  0.00  0.00    +0.000 A 
ATOM     16  C   UNL     1      10.156  14.371  18.387  0.00  0.00    +0.000 A 
ATOM     17  C   UNL     1      10.829  13.369  17.693  0.00  0.00    +0.000 A 
ATOM     18  C   UNL     1      10.616  12.022  18.011  0.00  0.00    +0.000 A 
ENDBRANCH   9  13
ENDBRANCH   1  10
BRANCH   4  19
ATOM     19  N   UNL     1       6.150   3.809  16.377  0.00  0.00    +0.000 N 
ATOM     20  H   UNL     1       6.350   2.916  16.822  0.00  0.00    +0.000 HD
BRANCH  19  21
ATOM     21  C   UNL     1       4.720   3.963  16.136  0.00  0.00    +0.000 C 
BRANCH  21  22
ATOM     22  C   UNL     1       3.966   3.788  17.438  0.00  0.00    +0.000 A 
ATOM     23  C   UNL     1       3.024   4.735  17.857  0.00  0.00    +0.000 A 
ATOM     24  C   UNL     1       2.305   4.547  19.042  0.00  0.00    +0.000 A 
ATOM     25  C   UNL     1       2.522   3.405  19.826  0.00  0.00    +0.000 A 
ATOM     26  C   UNL     1       3.449   2.446  19.406  0.00  0.00    +0.000 A 
ATOM     27  C   UNL     1       4.173   2.645  18.225  0.00  0.00    +0.000 A 
BRANCH  25  28
ATOM     28  C   UNL     1       1.706   3.245  21.058  0.00  0.00    +0.000 C 
ATOM     29  O   UNL     1       2.174   3.363  22.178  0.00  0.00    +0.000 OA
BRANCH  28  30
ATOM     30  O   UNL     1       0.418   2.918  20.832  0.00  0.00    +0.000 OA
ATOM     31  H   UNL     1       0.222   2.588  19.936  0.00  0.00    +0.000 HD
ENDBRANCH  28  30
ENDBRANCH  25  28
ENDBRANCH  21  22
ENDBRANCH  19  21
ENDBRANCH   4  19
TORSDOF 7
ENDMDL
MODEL 2
REMARK VINA RESULT:      -8.7      0.363      1.301
REMARK  Name = 
REMARK  7 active torsions:
REMARK  status: ('A' for Active; 'I' for Inactive)
REMARK    1  A    between atoms: N_3  and  C_4
REMARK    2  A    between atoms: N_10  and  C_11
REMARK    3  A    between atoms: C_14  and  N_15
REMARK    4  A    between atoms: N_15  and  C_16
REMARK    5  A    between atoms: C_16  and  C_17
REMARK    6  A    between atoms: C_20  and  C_21
REMARK    7  A    between atoms: C_21  and  O_23
REMARK                            x       y       z     vdW  Elec       q    Type
REMARK                         _______ _______ _______ _____ _____    ______ ____
ROOT
ATOM      1  C   UNL     1       8.108   7.125  18.478  0.00  0.00    +0.000 A 
ATOM      2  C   UNL     1       7.475   7.267  17.243  0.00  0.00    +0.000 A 
ATOM      3  C   UNL     1       6.857   6.177  16.620  0.00  0.00    +0.000 A 
ATOM      4  C   UNL     1       6.893   4.901  17.186  0.00  0.00    +0.000 A 
ATOM      5  C   UNL     1       7.507   4.769  18.437  0.00  0.00    +0.000 A 
ATOM      6  C   UNL     1       8.125   5.862  19.070  0.00  0.00    +0.000 A 
ENDROOT
BRANCH   1  10
ATOM      7  O   UNL     1       8.091   9.890  17.719  0.00  0.00    +0.000 OA
ATOM      8  C   UNL     1       8.751   9.509  18.678  0.00  0.00    +0.000 C 
ATOM      9  N   UNL     1       9.605  10.319  19.412  0.00  0.00    +0.000 N 
ATOM     10  N   UNL     1       8.739   8.204  19.146  0.00  0.00    +0.000 N 
ATOM     11  H   UNL     1      10.277   9.850  20.000  0.00  0.00    +0.000 HD
ATOM     12  H   UNL     1       8.978   8.068  20.116  0.00  0.00    +0.000 HD
BRANCH   9  13
ATOM     13  C   UNL     1       9.824  11.700  19.172  0.00  0.00    +0.000 A 
ATOM     14  C   UNL     1      10.797  12.180  18.289  0.00  0.00    +0.000 A 
ATOM     15  C   UNL     1      11.017  13.549  18.132  0.00  0.00    +0.000 A 
ATOM     16  C   UNL     1      10.249  14.463  18.844  0.00  0.00    +0.000 A 
ATOM     17  C   UNL     1       9.253  14.002  19.702  0.00  0.00    +0.000 A 
ATOM     18  C   UNL     1       9.036  12.628  19.863  0.00  0.00    +0.000 A 
ENDBRANCH   9  13
ENDBRANCH   1  10
BRANCH   4  19
ATOM     19  N   UNL     1       6.207   3.862  16.542  0.00  0.00    +0.000 N 
ATOM     20  H   UNL     1       6.374   2.971  17.005  0.00  0.00    +0.000 HD
BRANCH  19  21
ATOM     21  C   UNL     1       4.787   4.048  16.266  0.00  0.00    +0.000 C 
BRANCH  21  22
ATOM     22  C   UNL     1       3.991   3.820  17.534  0.00  0.00    +0.000 A 
ATOM     23  C   UNL     1       3.629   2.528  17.935  0.00  0.00    +0.000 A 
ATOM     24  C   UNL     1       2.926   2.324  19.127  0.00  0.00    +0.000 A 
ATOM     25  C   UNL     1       2.573   3.414  19.934  0.00  0.00    +0.000 A 
ATOM     26  C   UNL     1       2.944   4.707  19.549  0.00  0.00    +0.000 A 
ATOM     27  C   UNL     1       3.639   4.905  18.351  0.00  0.00    +0.000 A 
BRANCH  25  28
ATOM     28  C   UNL     1       1.854   3.132  21.203  0.00  0.00    +0.000 C 
ATOM     29  O   UNL     1       2.407   3.139  22.290  0.00  0.00    +0.000 OA
BRANCH  28  30
ATOM     30  O   UNL     1       0.549   2.829  21.047  0.00  0.00    +0.000 OA
ATOM     31  H   UNL     1      -0.051   3.206  21.717  0.00  0.00    +0.000 HD
ENDBRANCH  28  30
ENDBRANCH  25  28
ENDBRANCH  21  22
ENDBRANCH  19  21
ENDBRANCH   4  19
TORSDOF 7
ENDMDL
MODEL 3
REMARK VINA RESULT:      -8.5      0.231      1.315
REMARK  Name = 
REMARK  7 active torsions:
REMARK  status: ('A' for Active; 'I' for Inactive)
REMARK    1  A    between atoms: N_3  and  C_4
REMARK    2  A    between atoms: N_10  and  C_11
REMARK    3  A    between atoms: C_14  and  N_15
REMARK    4  A    between atoms: N_15  and  C_16
REMARK    5  A    between atoms: C_16  and  C_17
REMARK    6  A    between atoms: C_20  and  C_21
REMARK    7  A    between atoms: C_21  and  O_23
REMARK                            x       y       z     vdW  Elec       q    Type
REMARK                         _______ _______ _______ _____ _____    ______ ____
ROOT
ATOM      1  C   UNL     1       8.070   7.148  18.436  0.00  0.00    +0.000 A 
ATOM      2  C   UNL     1       8.172   5.843  18.917  0.00  0.00    +0.000 A 
ATOM      3  C   UNL     1       7.516   4.785  18.278  0.00  0.00    +0.000 A 
ATOM      4  C   UNL     1       6.698   5.003  17.168  0.00  0.00    +0.000 A 
ATOM      5  C   UNL     1       6.620   6.311  16.673  0.00  0.00    +0.000 A 
ATOM      6  C   UNL     1       7.281   7.376  17.309  0.00  0.00    +0.000 A 
ENDROOT
BRANCH   1  10
ATOM      7  O   UNL     1       7.996   9.895  17.617  0.00  0.00    +0.000 OA
ATOM      8  C   UNL     1       8.703   9.540  18.551  0.00  0.00    +0.000 C 
ATOM      9  N   UNL     1       9.584  10.374  19.226  0.00  0.00    +0.000 N 
ATOM     10  N   UNL     1       8.724   8.247  19.049  0.00  0.00    +0.000 N 
ATOM     11  H   UNL     1      10.287   9.923  19.791  0.00  0.00    +0.000 HD
ATOM     12  H   UNL     1       9.009   8.135  20.009  0.00  0.00    +0.000 HD
BRANCH   9  13
ATOM     13  C   UNL     1       9.780  11.750  18.944  0.00  0.00    +0.000 A 
ATOM     14  C   UNL     1       9.188  12.776  19.687  0.00  0.00    +0.000 A 
ATOM     15  C   UNL     1       9.361  14.116  19.333  0.00  0.00    +0.000 A 
ATOM     16  C   UNL     1      10.150  14.449  18.239  0.00  0.00    +0.000 A 
ATOM     17  C   UNL     1      10.775  13.441  17.509  0.00  0.00    +0.000 A 
ATOM     18  C   UNL     1      10.597  12.097  17.861  0.00  0.00    +0.000 A 
ENDBRANCH   9  13
ENDBRANCH   1  10
BRANCH   4  19
ATOM     19  N   UNL     1       6.114   3.896  16.537  0.00  0.00    +0.000 N 
ATOM     20  H   UNL     1       6.363   3.031  17.013  0.00  0.00    +0.000 HD
BRANCH  19  21
ATOM     21  C   UNL     1       4.684   3.944  16.256  0.00  0.00    +0.000 C 
BRANCH  21  22
ATOM     22  C   UNL     1       3.909   3.690  17.532  0.00  0.00    +0.000 A 
ATOM     23  C   UNL     1       4.353   2.749  18.469  0.00  0.00    +0.000 A 
ATOM     24  C   UNL     1       3.650   2.548  19.663  0.00  0.00    +0.000 A 
ATOM     25  C   UNL     1       2.489   3.285  19.932  0.00  0.00    +0.000 A 
ATOM     26  C   UNL     1       2.048   4.239  19.008  0.00  0.00    +0.000 A 
ATOM     27  C   UNL     1       2.749   4.429  17.812  0.00  0.00    +0.000 A 
BRANCH  25  28
ATOM     28  C   UNL     1       1.804   3.050  21.229  0.00  0.00    +0.000 C 
ATOM     29  O   UNL     1       2.401   3.002  22.290  0.00  0.00    +0.000 OA
BRANCH  28  30
ATOM     30  O   UNL     1       0.473   2.853  21.125  0.00  0.00    +0.000 OA
ATOM     31  H   UNL     1       0.022   3.398  20.455  0.00  0.00    +0.000 HD
ENDBRANCH  28  30
ENDBRANCH  25  28
ENDBRANCH  21  22
ENDBRANCH  19  21
ENDBRANCH   4  19
TORSDOF 7
ENDMDL
MODEL 4
REMARK VINA RESULT:      -8.4      0.764      1.193
REMARK  Name = 
REMARK  7 active torsions:
REMARK  status: ('A' for Active; 'I' for Inactive)
REMARK    1  A    between atoms: N_3  and  C_4
REMARK    2  A    between atoms: N_10  and  C_11
REMARK    3  A    between atoms: C_14  and  N_15
REMARK    4  A    between atoms: N_15  and  C_16
REMARK    5  A    between atoms: C_16  and  C_17
REMARK    6  A    between atoms: C_20  and  C_21
REMARK    7  A    between atoms: C_21  and  O_23
REMARK                            x       y       z     vdW  Elec       q    Type
REMARK                         _______ _______ _______ _____ _____    ______ ____
ROOT
ATOM      1  C   UNL     1       8.159   7.244  18.482  0.00  0.00    +0.000 A 
ATOM      2  C   UNL     1       8.113   5.990  19.093  0.00  0.00    +0.000 A 
ATOM      3  C   UNL     1       7.536   4.892  18.445  0.00  0.00    +0.000 A 
ATOM      4  C   UNL     1       6.943   5.021  17.187  0.00  0.00    +0.000 A 
ATOM      5  C   UNL     1       7.014   6.275  16.568  0.00  0.00    +0.000 A 
ATOM      6  C   UNL     1       7.597   7.380  17.213  0.00  0.00    +0.000 A 
ENDROOT
BRANCH   1  10
ATOM      7  O   UNL     1       8.064   9.960  17.570  0.00  0.00    +0.000 OA
ATOM      8  C   UNL     1       8.717   9.655  18.560  0.00  0.00    +0.000 C 
ATOM      9  N   UNL     1       9.527  10.535  19.263  0.00  0.00    +0.000 N 
ATOM     10  N   UNL     1       8.739   8.379  19.100  0.00  0.00    +0.000 N 
ATOM     11  H   UNL     1      10.203  10.123  19.888  0.00  0.00    +0.000 HD
ATOM     12  H   UNL     1       8.963   8.305  20.080  0.00  0.00    +0.000 HD
BRANCH   9  13
ATOM     13  C   UNL     1       9.704  11.906  18.950  0.00  0.00    +0.000 A 
ATOM     14  C   UNL     1       9.059  12.939  19.638  0.00  0.00    +0.000 A 
ATOM     15  C   UNL     1       9.216  14.272  19.253  0.00  0.00    +0.000 A 
ATOM     16  C   UNL     1      10.043  14.593  18.183  0.00  0.00    +0.000 A 
ATOM     17  C   UNL     1      10.720  13.580  17.509  0.00  0.00    +0.000 A 
ATOM     18  C   UNL     1      10.558  12.243  17.892  0.00  0.00    +0.000 A 
ENDBRANCH   9  13
ENDBRANCH   1  10
BRANCH   4  19
ATOM     19  N   UNL     1       6.433   3.873  16.565  0.00  0.00    +0.000 N 
ATOM     20  H   UNL     1       6.479   3.069  17.188  0.00  0.00    +0.000 HD
BRANCH  19  21
ATOM     21  C   UNL     1       5.125   3.965  15.927  0.00  0.00    +0.000 C 
BRANCH  21  22
ATOM     22  C   UNL     1       4.041   3.882  16.981  0.00  0.00    +0.000 A 
ATOM     23  C   UNL     1       3.383   5.033  17.431  0.00  0.00    +0.000 A 
ATOM     24  C   UNL     1       2.356   4.943  18.377  0.00  0.00    +0.000 A 
ATOM     25  C   UNL     1       1.977   3.695  18.890  0.00  0.00    +0.000 A 
ATOM     26  C   UNL     1       2.618   2.537  18.435  0.00  0.00    +0.000 A 
ATOM     27  C   UNL     1       3.650   2.635  17.495  0.00  0.00    +0.000 A 
BRANCH  25  28
ATOM     28  C   UNL     1       0.860   3.658  19.869  0.00  0.00    +0.000 C 
ATOM     29  O   UNL     1       0.705   4.515  20.723  0.00  0.00    +0.000 OA
BRANCH  28  30
ATOM     30  O   UNL     1       0.059   2.579  19.758  0.00  0.00    +0.000 OA
ATOM     31  H   UNL     1      -0.501   2.554  18.961  0.00  0.00    +0.000 HD
ENDBRANCH  28  30
ENDBRANCH  25  28
ENDBRANCH  21  22
ENDBRANCH  19  21
ENDBRANCH   4  19
TORSDOF 7
ENDMDL
MODEL 5
REMARK VINA RESULT:      -8.3      0.674      1.078
REMARK  Name = 
REMARK  7 active torsions:
REMARK  status: ('A' for Active; 'I' for Inactive)
REMARK    1  A    between atoms: N_3  and  C_4
REMARK    2  A    between atoms: N_10  and  C_11
REMARK    3  A    between atoms: C_14  and  N_15
REMARK    4  A    between atoms: N_15  and  C_16
REMARK    5  A    between atoms: C_16  and  C_17
REMARK    6  A    between atoms: C_20  and  C_21
REMARK    7  A    between atoms: C_21  and  O_23
REMARK                            x       y       z     vdW  Elec       q    Type
REMARK                         _______ _______ _______ _____ _____    ______ ____
ROOT
ATOM      1  C   UNL     1       8.006   6.987  18.400  0.00  0.00    +0.000 A 
ATOM      2  C   UNL     1       7.417   7.220  17.157  0.00  0.00    +0.000 A 
ATOM      3  C   UNL     1       6.799   6.185  16.446  0.00  0.00    +0.000 A 
ATOM      4  C   UNL     1       6.795   4.875  16.929  0.00  0.00    +0.000 A 
ATOM      5  C   UNL     1       7.365   4.652  18.188  0.00  0.00    +0.000 A 
ATOM      6  C   UNL     1       7.981   5.689  18.909  0.00  0.00    +0.000 A 
ENDROOT
BRANCH   1  10
ATOM      7  O   UNL     1       8.125   9.785  17.783  0.00  0.00    +0.000 OA
ATOM      8  C   UNL     1       8.717   9.333  18.756  0.00  0.00    +0.000 C 
ATOM      9  N   UNL     1       9.554  10.075  19.576  0.00  0.00    +0.000 N 
ATOM     10  N   UNL     1       8.634   8.008  19.156  0.00  0.00    +0.000 N 
ATOM     11  H   UNL     1      10.176   9.554  20.175  0.00  0.00    +0.000 HD
ATOM     12  H   UNL     1       8.813   7.817  20.129  0.00  0.00    +0.000 HD
BRANCH   9  13
ATOM     13  C   UNL     1       9.833  11.457  19.419  0.00  0.00    +0.000 A 
ATOM     14  C   UNL     1       9.529  12.173  18.257  0.00  0.00    +0.000 A 
ATOM     15  C   UNL     1       9.878  13.518  18.125  0.00  0.00    +0.000 A 
ATOM     16  C   UNL     1      10.521  14.175  19.168  0.00  0.00    +0.000 A 
ATOM     17  C   UNL     1      10.801  13.485  20.345  0.00  0.00    +0.000 A 
ATOM     18  C   UNL     1      10.454  12.134  20.475  0.00  0.00    +0.000 A 
ENDBRANCH   9  13
ENDBRANCH   1  10
BRANCH   4  19
ATOM     19  N   UNL     1       6.111   3.894  16.198  0.00  0.00    +0.000 N 
ATOM     20  H   UNL     1       6.361   2.960  16.517  0.00  0.00    +0.000 HD
BRANCH  19  21
ATOM     21  C   UNL     1       4.666   4.027  16.057  0.00  0.00    +0.000 C 
BRANCH  21  22
ATOM     22  C   UNL     1       3.997   3.711  17.379  0.00  0.00    +0.000 A 
ATOM     23  C   UNL     1       3.351   4.710  18.117  0.00  0.00    +0.000 A 
ATOM     24  C   UNL     1       2.703   4.401  19.318  0.00  0.00    +0.000 A 
ATOM     25  C   UNL     1       2.698   3.084  19.799  0.00  0.00    +0.000 A 
ATOM     26  C   UNL     1       3.328   2.077  19.059  0.00  0.00    +0.000 A 
ATOM     27  C   UNL     1       3.981   2.394  17.864  0.00  0.00    +0.000 A 
BRANCH  25  28
ATOM     28  C   UNL     1       1.968   2.811  21.064  0.00  0.00    +0.000 C 
ATOM     29  O   UNL     1       0.762   2.952  21.172  0.00  0.00    +0.000 OA
BRANCH  28  30
ATOM     30  O   UNL     1       2.758   2.435  22.090  0.00  0.00    +0.000 OA
ATOM     31  H   UNL     1       2.371   1.778  22.696  0.00  0.00    +0.000 HD
ENDBRANCH  28  30
ENDBRANCH  25  28
ENDBRANCH  21  22
ENDBRANCH  19  21
ENDBRANCH   4  19
TORSDOF 7
ENDMDL
MODEL 6
REMARK VINA RESULT:      -8.2      7.209      9.183
REMARK  Name = 
REMARK  7 active torsions:
REMARK  status: ('A' for Active; 'I' for Inactive)
REMARK    1  A    between atoms: N_3  and  C_4
REMARK    2  A    between atoms: N_10  and  C_11
REMARK    3  A    between atoms: C_14  and  N_15
REMARK    4  A    between atoms: N_15  and  C_16
REMARK    5  A    between atoms: C_16  and  C_17
REMARK    6  A    between atoms: C_20  and  C_21
REMARK    7  A    between atoms: C_21  and  O_23
REMARK                            x       y       z     vdW  Elec       q    Type
REMARK                         _______ _______ _______ _____ _____    ______ ____
ROOT
ATOM      1  C   UNL     1       0.409   9.649  20.303  0.00  0.00    +0.000 A 
ATOM      2  C   UNL     1       0.577   8.633  21.245  0.00  0.00    +0.000 A 
ATOM      3  C   UNL     1       1.442   7.560  21.002  0.00  0.00    +0.000 A 
ATOM      4  C   UNL     1       2.130   7.442  19.792  0.00  0.00    +0.000 A 
ATOM      5  C   UNL     1       1.977   8.477  18.861  0.00  0.00    +0.000 A 
ATOM      6  C   UNL     1       1.113   9.559  19.103  0.00  0.00    +0.000 A 
ENDROOT
BRANCH   1  10
ATOM      7  O   UNL     1      -0.063  11.045  22.762  0.00  0.00    +0.000 OA
ATOM      8  C   UNL     1      -0.688  11.334  21.749  0.00  0.00    +0.000 C 
ATOM      9  N   UNL     1      -1.718  12.262  21.704  0.00  0.00    +0.000 N 
ATOM     10  N   UNL     1      -0.451  10.755  20.512  0.00  0.00    +0.000 N 
ATOM     11  H   UNL     1      -2.319  12.229  20.894  0.00  0.00    +0.000 HD
ATOM     12  H   UNL     1      -0.711  11.296  19.702  0.00  0.00    +0.000 HD
BRANCH   9  13
ATOM     13  C   UNL     1      -2.184  13.016  22.811  0.00  0.00    +0.000 A 
ATOM     14  C   UNL     1      -1.474  14.089  23.361  0.00  0.00    +0.000 A 
ATOM     15  C   UNL     1      -1.944  14.763  24.490  0.00  0.00    +0.000 A 
ATOM     16  C   UNL     1      -3.146  14.384  25.075  0.00  0.00    +0.000 A 
ATOM     17  C   UNL     1      -3.882  13.340  24.519  0.00  0.00    +0.000 A 
ATOM     18  C   UNL     1      -3.408  12.662  23.390  0.00  0.00    +0.000 A 
ENDBRANCH   9  13
ENDBRANCH   1  10
BRANCH   4  19
ATOM     19  N   UNL     1       3.025   6.375  19.632  0.00  0.00    +0.000 N 
ATOM     20  H   UNL     1       3.316   6.003  20.533  0.00  0.00    +0.000 HD
BRANCH  19  21
ATOM     21  C   UNL     1       2.652   5.300  18.719  0.00  0.00    +0.000 C 
BRANCH  21  22
ATOM     22  C   UNL     1       3.733   5.129  17.672  0.00  0.00    +0.000 A 
ATOM     23  C   UNL     1       4.124   3.854  17.242  0.00  0.00    +0.000 A 
ATOM     24  C   UNL     1       5.096   3.707  16.247  0.00  0.00    +0.000 A 
ATOM     25  C   UNL     1       5.694   4.836  15.670  0.00  0.00    +0.000 A 
ATOM     26  C   UNL     1       5.298   6.113  16.082  0.00  0.00    +0.000 A 
ATOM     27  C   UNL     1       4.331   6.254  17.084  0.00  0.00    +0.000 A 
BRANCH  25  28
ATOM     28  C   UNL     1       6.698   4.616  14.597  0.00  0.00    +0.000 C 
ATOM     29  O   UNL     1       7.659   5.348  14.434  0.00  0.00    +0.000 OA
BRANCH  28  30
ATOM     30  O   UNL     1       6.432   3.565  13.795  0.00  0.00    +0.000 OA
ATOM     31  H   UNL     1       7.034   2.805  13.890  0.00  0.00    +0.000 HD
ENDBRANCH  28  30
ENDBRANCH  25  28
ENDBRANCH  21  22
ENDBRANCH  19  21
ENDBRANCH   4  19
TORSDOF 7
ENDMDL
MODEL 7
REMARK VINA RESULT:      -8.2      5.264      7.917
REMARK  Name = 
REMARK  7 active torsions:
REMARK  status: ('A' for Active; 'I' for Inactive)
REMARK    1  A    between atoms: N_3  and  C_4
REMARK    2  A    between atoms: N_10  and  C_11
REMARK    3  A    between atoms: C_14  and  N_15
REMARK    4  A    between atoms: N_15  and  C_16
REMARK    5  A    between atoms: C_16  and  C_17
REMARK    6  A    between atoms: C_20  and  C_21
REMARK    7  A    between atoms: C_21  and  O_23
REMARK                            x       y       z     vdW  Elec       q    Type
REMARK                         _______ _______ _______ _____ _____    ______ ____
ROOT
ATOM      1  C   UNL     1       1.829   6.983  20.306  0.00  0.00    +0.000 A 
ATOM      2  C   UNL     1       1.624   5.647  20.651  0.00  0.00    +0.000 A 
ATOM      3  C   UNL     1       1.831   4.622  19.722  0.00  0.00    +0.000 A 
ATOM      4  C   UNL     1       2.202   4.900  18.405  0.00  0.00    +0.000 A 
ATOM      5  C   UNL     1       2.432   6.240  18.070  0.00  0.00    +0.000 A 
ATOM      6  C   UNL     1       2.230   7.274  19.001  0.00  0.00    +0.000 A 
ENDROOT
BRANCH   1  10
ATOM      7  O   UNL     1      -0.396   8.787  20.429  0.00  0.00    +0.000 OA
ATOM      8  C   UNL     1       0.569   8.933  21.170  0.00  0.00    +0.000 C 
ATOM      9  N   UNL     1       0.730   9.997  22.045  0.00  0.00    +0.000 N 
ATOM     10  N   UNL     1       1.638   8.051  21.218  0.00  0.00    +0.000 N 
ATOM     11  H   UNL     1       1.660  10.147  22.407  0.00  0.00    +0.000 HD
ATOM     12  H   UNL     1       2.163   8.021  22.078  0.00  0.00    +0.000 HD
BRANCH   9  13
ATOM     13  C   UNL     1      -0.198  11.054  22.221  0.00  0.00    +0.000 A 
ATOM     14  C   UNL     1      -0.089  12.286  21.567  0.00  0.00    +0.000 A 
ATOM     15  C   UNL     1      -0.993  13.320  21.819  0.00  0.00    +0.000 A 
ATOM     16  C   UNL     1      -2.037  13.127  22.717  0.00  0.00    +0.000 A 
ATOM     17  C   UNL     1      -2.180  11.895  23.350  0.00  0.00    +0.000 A 
ATOM     18  C   UNL     1      -1.270  10.860  23.101  0.00  0.00    +0.000 A 
ENDBRANCH   9  13
ENDBRANCH   1  10
BRANCH   4  19
ATOM     19  N   UNL     1       2.450   3.828  17.537  0.00  0.00    +0.000 N 
ATOM     20  H   UNL     1       2.221   4.074  16.576  0.00  0.00    +0.000 HD
BRANCH  19  21
ATOM     21  C   UNL     1       3.752   3.174  17.612  0.00  0.00    +0.000 C 
BRANCH  21  22
ATOM     22  C   UNL     1       4.840   4.223  17.705  0.00  0.00    +0.000 A 
ATOM     23  C   UNL     1       5.224   4.965  16.581  0.00  0.00    +0.000 A 
ATOM     24  C   UNL     1       6.204   5.958  16.686  0.00  0.00    +0.000 A 
ATOM     25  C   UNL     1       6.816   6.220  17.919  0.00  0.00    +0.000 A 
ATOM     26  C   UNL     1       6.427   5.494  19.050  0.00  0.00    +0.000 A 
ATOM     27  C   UNL     1       5.453   4.495  18.938  0.00  0.00    +0.000 A 
BRANCH  25  28
ATOM     28  C   UNL     1       7.828   7.306  17.974  0.00  0.00    +0.000 C 
ATOM     29  O   UNL     1       7.950   8.138  17.091  0.00  0.00    +0.000 OA
BRANCH  28  30
ATOM     30  O   UNL     1       8.624   7.269  19.063  0.00  0.00    +0.000 OA
ATOM     31  H   UNL     1       9.580   7.242  18.879  0.00  0.00    +0.000 HD
ENDBRANCH  28  30
ENDBRANCH  25  28
ENDBRANCH  21  22
ENDBRANCH  19  21
ENDBRANCH   4  19
TORSDOF 7
ENDMDL
MODEL 8
REMARK VINA RESULT:      -8.2      0.827      1.295
REMARK  Name = 
REMARK  7 active torsions:
REMARK  status: ('A' for Active; 'I' for Inactive)
REMARK    1  A    between atoms: N_3  and  C_4
REMARK    2  A    between atoms: N_10  and  C_11
REMARK    3  A    between atoms: C_14  and  N_15
REMARK    4  A    between atoms: N_15  and  C_16
REMARK    5  A    between atoms: C_16  and  C_17
REMARK    6  A    between atoms: C_20  and  C_21
REMARK    7  A    between atoms: C_21  and  O_23
REMARK                            x       y       z     vdW  Elec       q    Type
REMARK                         _______ _______ _______ _____ _____    ______ ____
ROOT
ATOM      1  C   UNL     1       8.031   7.026  18.413  0.00  0.00    +0.000 A 
ATOM      2  C   UNL     1       7.479   7.257  17.153  0.00  0.00    +0.000 A 
ATOM      3  C   UNL     1       6.930   6.211  16.403  0.00  0.00    +0.000 A 
ATOM      4  C   UNL     1       6.959   4.894  16.865  0.00  0.00    +0.000 A 
ATOM      5  C   UNL     1       7.491   4.671  18.141  0.00  0.00    +0.000 A 
ATOM      6  C   UNL     1       8.039   5.719  18.901  0.00  0.00    +0.000 A 
ENDROOT
BRANCH   1  10
ATOM      7  O   UNL     1       8.479   9.755  17.658  0.00  0.00    +0.000 OA
ATOM      8  C   UNL     1       8.847   9.340  18.750  0.00  0.00    +0.000 C 
ATOM      9  N   UNL     1       9.577  10.085  19.664  0.00  0.00    +0.000 N 
ATOM     10  N   UNL     1       8.590   8.057  19.209  0.00  0.00    +0.000 N 
ATOM     11  H   UNL     1      10.038   9.571  20.400  0.00  0.00    +0.000 HD
ATOM     12  H   UNL     1       8.574   7.928  20.208  0.00  0.00    +0.000 HD
BRANCH   9  13
ATOM     13  C   UNL     1       9.987  11.430  19.477  0.00  0.00    +0.000 A 
ATOM     14  C   UNL     1      11.157  11.788  18.799  0.00  0.00    +0.000 A 
ATOM     15  C   UNL     1      11.551  13.123  18.694  0.00  0.00    +0.000 A 
ATOM     16  C   UNL     1      10.765  14.125  19.249  0.00  0.00    +0.000 A 
ATOM     17  C   UNL     1       9.579  13.789  19.898  0.00  0.00    +0.000 A 
ATOM     18  C   UNL     1       9.187  12.449  20.007  0.00  0.00    +0.000 A 
ENDBRANCH   9  13
ENDBRANCH   1  10
BRANCH   4  19
ATOM     19  N   UNL     1       6.343   3.899  16.093  0.00  0.00    +0.000 N 
ATOM     20  H   UNL     1       6.543   2.972  16.464  0.00  0.00    +0.000 HD
BRANCH  19  21
ATOM     21  C   UNL     1       4.923   4.046  15.795  0.00  0.00    +0.000 C 
BRANCH  21  22
ATOM     22  C   UNL     1       4.143   4.148  17.089  0.00  0.00    +0.000 A 
ATOM     23  C   UNL     1       3.598   5.369  17.508  0.00  0.00    +0.000 A 
ATOM     24  C   UNL     1       2.847   5.446  18.685  0.00  0.00    +0.000 A 
ATOM     25  C   UNL     1       2.632   4.300  19.463  0.00  0.00    +0.000 A 
ATOM     26  C   UNL     1       3.159   3.073  19.044  0.00  0.00    +0.000 A 
ATOM     27  C   UNL     1       3.918   3.004  17.870  0.00  0.00    +0.000 A 
BRANCH  25  28
ATOM     28  C   UNL     1       1.801   4.438  20.687  0.00  0.00    +0.000 C 
ATOM     29  O   UNL     1       1.183   3.506  21.172  0.00  0.00    +0.000 OA
BRANCH  28  30
ATOM     30  O   UNL     1       1.756   5.689  21.189  0.00  0.00    +0.000 OA
ATOM     31  H   UNL     1       2.021   6.396  20.572  0.00  0.00    +0.000 HD
ENDBRANCH  28  30
ENDBRANCH  25  28
ENDBRANCH  21  22
ENDBRANCH  19  21
ENDBRANCH   4  19
TORSDOF 7
ENDMDL
MODEL 9
REMARK VINA RESULT:      -8.0      5.219      7.865
REMARK  Name = 
REMARK  7 active torsions:
REMARK  status: ('A' for Active; 'I' for Inactive)
REMARK    1  A    between atoms: N_3  and  C_4
REMARK    2  A    between atoms: N_10  and  C_11
REMARK    3  A    between atoms: C_14  and  N_15
REMARK    4  A    between atoms: N_15  and  C_16
REMARK    5  A    between atoms: C_16  and  C_17
REMARK    6  A    between atoms: C_20  and  C_21
REMARK    7  A    between atoms: C_21  and  O_23
REMARK                            x       y       z     vdW  Elec       q    Type
REMARK                         _______ _______ _______ _____ _____    ______ ____
ROOT
ATOM      1  C   UNL     1       1.826   6.919  20.284  0.00  0.00    +0.000 A 
ATOM      2  C   UNL     1       1.612   5.619  20.743  0.00  0.00    +0.000 A 
ATOM      3  C   UNL     1       1.754   4.519  19.889  0.00  0.00    +0.000 A 
ATOM      4  C   UNL     1       2.065   4.686  18.538  0.00  0.00    +0.000 A 
ATOM      5  C   UNL     1       2.304   5.990  18.088  0.00  0.00    +0.000 A 
ATOM      6  C   UNL     1       2.168   7.097  18.944  0.00  0.00    +0.000 A 
ENDROOT
BRANCH   1  10
ATOM      7  O   UNL     1      -0.512   8.529  20.687  0.00  0.00    +0.000 OA
ATOM      8  C   UNL     1       0.555   8.835  21.205  0.00  0.00    +0.000 C 
ATOM      9  N   UNL     1       0.767   9.997  21.932  0.00  0.00    +0.000 N 
ATOM     10  N   UNL     1       1.700   8.058  21.117  0.00  0.00    +0.000 N 
ATOM     11  H   UNL     1       1.727  10.264  22.086  0.00  0.00    +0.000 HD
ATOM     12  H   UNL     1       2.379   8.167  21.854  0.00  0.00    +0.000 HD
BRANCH   9  13
ATOM     13  C   UNL     1      -0.217  10.984  22.194  0.00  0.00    +0.000 A 
ATOM     14  C   UNL     1      -1.207  10.841  23.172  0.00  0.00    +0.000 A 
ATOM     15  C   UNL     1      -2.192  11.813  23.351  0.00  0.00    +0.000 A 
ATOM     16  C   UNL     1      -2.189  12.959  22.564  0.00  0.00    +0.000 A 
ATOM     17  C   UNL     1      -1.191  13.134  21.608  0.00  0.00    +0.000 A 
ATOM     18  C   UNL     1      -0.205  12.155  21.426  0.00  0.00    +0.000 A 
ENDBRANCH   9  13
ENDBRANCH   1  10
BRANCH   4  19
ATOM     19  N   UNL     1       2.250   3.544  17.747  0.00  0.00    +0.000 N 
ATOM     20  H   UNL     1       2.002   3.727  16.776  0.00  0.00    +0.000 HD
BRANCH  19  21
ATOM     21  C   UNL     1       3.529   2.849  17.836  0.00  0.00    +0.000 C 
BRANCH  21  22
ATOM     22  C   UNL     1       4.655   3.861  17.846  0.00  0.00    +0.000 A 
ATOM     23  C   UNL     1       5.090   4.467  16.661  0.00  0.00    +0.000 A 
ATOM     24  C   UNL     1       6.106   5.430  16.686  0.00  0.00    +0.000 A 
ATOM     25  C   UNL     1       6.702   5.796  17.900  0.00  0.00    +0.000 A 
ATOM     26  C   UNL     1       6.262   5.208  19.091  0.00  0.00    +0.000 A 
ATOM     27  C   UNL     1       5.253   4.239  19.059  0.00  0.00    +0.000 A 
BRANCH  25  28
ATOM     28  C   UNL     1       7.754   6.845  17.867  0.00  0.00    +0.000 C 
ATOM     29  O   UNL     1       8.399   7.163  18.851  0.00  0.00    +0.000 OA
BRANCH  28  30
ATOM     30  O   UNL     1       7.904   7.442  16.666  0.00  0.00    +0.000 OA
ATOM     31  H   UNL     1       7.136   7.956  16.357  0.00  0.00    +0.000 HD
ENDBRANCH  28  30
ENDBRANCH  25  28
ENDBRANCH  21  22
ENDBRANCH  19  21
ENDBRANCH   4  19
TORSDOF 7
ENDMDL
