MODEL 1
REMARK VINA RESULT:      -7.0      0.000      0.000
REMARK  Name = 
REMARK  6 active torsions:
REMARK  status: ('A' for Active; 'I' for Inactive)
REMARK    1  A    between atoms: C_1  and  N_2
REMARK    2  A    between atoms: C_3  and  C_4
REMARK    3  A    between atoms: C_4  and  C_5
REMARK    4  A    between atoms: N_7  and  C_8
REMARK    5  A    between atoms: C_11  and  C_12
REMARK    6  A    between atoms: N_20  and  C_21
REMARK                            x       y       z     vdW  Elec       q    Type
REMARK                         _______ _______ _______ _____ _____    ______ ____
ROOT
ATOM      1  C   UNL     1       1.866  12.210  20.212  0.00  0.00    +0.000 C 
ATOM      2  N   UNL     1       0.653  11.622  19.660  0.00  0.00    +0.000 N 
ATOM      3  C   UNL     1       0.591  10.587  18.703  0.00  0.00    +0.000 A 
ATOM      4  C   UNL     1      -0.661  10.263  18.340  0.00  0.00    +0.000 A 
ATOM      5  S   UNL     1      -1.840  11.260  19.114  0.00  0.00    +0.000 S 
ATOM      6  C   UNL     1      -0.599  11.980  20.172  0.00  0.00    +0.000 A 
ATOM      7  N   UNL     1      -0.804  12.666  21.257  0.00  0.00    +0.000 NA
ENDROOT
BRANCH   7   8
ATOM      8  C   UNL     1      -2.083  12.884  21.800  0.00  0.00    +0.000 A 
ATOM      9  C   UNL     1      -2.529  12.266  22.982  0.00  0.00    +0.000 A 
ATOM     10  C   UNL     1      -3.816  12.476  23.480  0.00  0.00    +0.000 A 
ATOM     11  C   UNL     1      -4.647  13.399  22.859  0.00  0.00    +0.000 A 
ATOM     12 BR   UNL     1      -6.377  13.707  23.550  0.00  0.00    +0.000 Br
ATOM     13  C   UNL     1      -4.197  14.108  21.748  0.00  0.00    +0.000 A 
ATOM     14  C   UNL     1      -2.924  13.842  21.220  0.00  0.00    +0.000 A 
ENDBRANCH   7   8
BRANCH   3  15
ATOM     15  C   UNL     1       1.788   9.883  18.143  0.00  0.00    +0.000 C 
BRANCH  15  16
ATOM     16  C   UNL     1       1.995   8.472  18.686  0.00  0.00    +0.000 C 
ATOM     17  O   UNL     1       1.687   8.218  19.852  0.00  0.00    +0.000 OA
ATOM     18  N   UNL     1       2.600   7.575  17.824  0.00  0.00    +0.000 N 
ATOM     19  H   UNL     1       3.099   7.953  17.027  0.00  0.00    +0.000 HD
BRANCH  18  20
ATOM     20  C   UNL     1       2.832   6.223  18.125  0.00  0.00    +0.000 A 
ATOM     21  C   UNL     1       1.863   5.238  17.927  0.00  0.00    +0.000 A 
ATOM     22  C   UNL     1       2.138   3.909  18.251  0.00  0.00    +0.000 A 
ATOM     23  C   UNL     1       3.378   3.555  18.800  0.00  0.00    +0.000 A 
ATOM     24  C   UNL     1       4.344   4.554  18.996  0.00  0.00    +0.000 A 
ATOM     25  C   UNL     1       4.084   5.873  18.628  0.00  0.00    +0.000 A 
BRANCH  23  26
ATOM     26  C   UNL     1       3.653   2.132  19.218  0.00  0.00    +0.000 C 
ATOM     27  F   UNL     1       3.776   1.284  18.158  0.00  0.00    +0.000 F 
ATOM     28  F   UNL     1       4.804   2.002  19.933  0.00  0.00    +0.000 F 
ENDBRANCH  23  26
ENDBRANCH  18  20
ENDBRANCH  15  16
ENDBRANCH   3  15
TORSDOF 5
ENDMDL
MODEL 2
REMARK VINA RESULT:      -6.9      0.519      1.461
REMARK  Name = 
REMARK  6 active torsions:
REMARK  status: ('A' for Active; 'I' for Inactive)
REMARK    1  A    between atoms: C_1  and  N_2
REMARK    2  A    between atoms: C_3  and  C_4
REMARK    3  A    between atoms: C_4  and  C_5
REMARK    4  A    between atoms: N_7  and  C_8
REMARK    5  A    between atoms: C_11  and  C_12
REMARK    6  A    between atoms: N_20  and  C_21
REMARK                            x       y       z     vdW  Elec       q    Type
REMARK                         _______ _______ _______ _____ _____    ______ ____
ROOT
ATOM      1  C   UNL     1       1.761  12.259  20.231  0.00  0.00    +0.000 C 
ATOM      2  N   UNL     1       0.548  11.687  19.664  0.00  0.00    +0.000 N 
ATOM      3  C   UNL     1       0.485  10.651  18.707  0.00  0.00    +0.000 A 
ATOM      4  C   UNL     1      -0.767  10.342  18.329  0.00  0.00    +0.000 A 
ATOM      5  S   UNL     1      -1.943  11.355  19.088  0.00  0.00    +0.000 S 
ATOM      6  C   UNL     1      -0.706  12.060  20.161  0.00  0.00    +0.000 A 
ATOM      7  N   UNL     1      -0.916  12.750  21.243  0.00  0.00    +0.000 NA
ENDROOT
BRANCH   7   8
ATOM      8  C   UNL     1      -2.198  12.984  21.770  0.00  0.00    +0.000 A 
ATOM      9  C   UNL     1      -3.145  13.812  21.142  0.00  0.00    +0.000 A 
ATOM     10  C   UNL     1      -4.400  14.052  21.705  0.00  0.00    +0.000 A 
ATOM     11  C   UNL     1      -4.772  13.374  22.858  0.00  0.00    +0.000 A 
ATOM     12 BR   UNL     1      -6.481  13.673  23.603  0.00  0.00    +0.000 Br
ATOM     13  C   UNL     1      -3.897  12.465  23.447  0.00  0.00    +0.000 A 
ATOM     14  C   UNL     1      -2.615  12.280  22.907  0.00  0.00    +0.000 A 
ENDBRANCH   7   8
BRANCH   3  15
ATOM     15  C   UNL     1       1.680   9.932  18.163  0.00  0.00    +0.000 C 
BRANCH  15  16
ATOM     16  C   UNL     1       1.881   8.531  18.734  0.00  0.00    +0.000 C 
ATOM     17  O   UNL     1       1.621   8.315  19.919  0.00  0.00    +0.000 OA
ATOM     18  N   UNL     1       2.426   7.599  17.870  0.00  0.00    +0.000 N 
ATOM     19  H   UNL     1       2.896   7.944  17.042  0.00  0.00    +0.000 HD
BRANCH  18  20
ATOM     20  C   UNL     1       2.642   6.250  18.198  0.00  0.00    +0.000 A 
ATOM     21  C   UNL     1       3.764   5.827  18.913  0.00  0.00    +0.000 A 
ATOM     22  C   UNL     1       3.940   4.474  19.205  0.00  0.00    +0.000 A 
ATOM     23  C   UNL     1       3.006   3.526  18.765  0.00  0.00    +0.000 A 
ATOM     24  C   UNL     1       1.883   3.963  18.046  0.00  0.00    +0.000 A 
ATOM     25  C   UNL     1       1.685   5.320  17.795  0.00  0.00    +0.000 A 
BRANCH  23  26
ATOM     26  C   UNL     1       3.229   2.056  19.018  0.00  0.00    +0.000 C 
ATOM     27  F   UNL     1       2.104   1.415  19.442  0.00  0.00    +0.000 F 
ATOM     28  F   UNL     1       3.644   1.383  17.909  0.00  0.00    +0.000 F 
ENDBRANCH  23  26
ENDBRANCH  18  20
ENDBRANCH  15  16
ENDBRANCH   3  15
TORSDOF 5
ENDMDL
MODEL 3
REMARK VINA RESULT:      -6.8      2.291      2.696
REMARK  Name = 
REMARK  6 active torsions:
REMARK  status: ('A' for Active; 'I' for Inactive)
REMARK    1  A    between atoms: C_1  and  N_2
REMARK    2  A    between atoms: C_3  and  C_4
REMARK    3  A    between atoms: C_4  and  C_5
REMARK    4  A    between atoms: N_7  and  C_8
REMARK    5  A    between atoms: C_11  and  C_12
REMARK    6  A    between atoms: N_20  and  C_21
REMARK                            x       y       z     vdW  Elec       q    Type
REMARK                         _______ _______ _______ _____ _____    ______ ____
ROOT
ATOM      1  C   UNL     1       0.401   8.925  21.043  0.00  0.00    +0.000 C 
ATOM      2  N   UNL     1       0.036  10.136  20.323  0.00  0.00    +0.000 N 
ATOM      3  C   UNL     1       0.064  10.313  18.922  0.00  0.00    +0.000 A 
ATOM      4  C   UNL     1      -0.287  11.548  18.527  0.00  0.00    +0.000 A 
ATOM      5  S   UNL     1      -0.617  12.588  19.866  0.00  0.00    +0.000 S 
ATOM      6  C   UNL     1      -0.524  11.221  21.007  0.00  0.00    +0.000 A 
ATOM      7  N   UNL     1      -0.948  11.203  22.236  0.00  0.00    +0.000 NA
ENDROOT
BRANCH   7   8
ATOM      8  C   UNL     1      -1.624  12.281  22.833  0.00  0.00    +0.000 A 
ATOM      9  C   UNL     1      -2.977  12.223  23.211  0.00  0.00    +0.000 A 
ATOM     10  C   UNL     1      -3.632  13.321  23.772  0.00  0.00    +0.000 A 
ATOM     11  C   UNL     1      -2.909  14.469  24.069  0.00  0.00    +0.000 A 
ATOM     12 BR   UNL     1      -3.786  15.943  24.857  0.00  0.00    +0.000 Br
ATOM     13  C   UNL     1      -1.542  14.522  23.806  0.00  0.00    +0.000 A 
ATOM     14  C   UNL     1      -0.910  13.434  23.184  0.00  0.00    +0.000 A 
ENDBRANCH   7   8
BRANCH   3  15
ATOM     15  C   UNL     1       0.428   9.239  17.944  0.00  0.00    +0.000 C 
BRANCH  15  16
ATOM     16  C   UNL     1       1.878   8.772  18.038  0.00  0.00    +0.000 C 
ATOM     17  O   UNL     1       2.782   9.607  18.101  0.00  0.00    +0.000 OA
ATOM     18  N   UNL     1       2.078   7.406  17.969  0.00  0.00    +0.000 N 
ATOM     19  H   UNL     1       1.325   6.838  17.599  0.00  0.00    +0.000 HD
BRANCH  18  20
ATOM     20  C   UNL     1       3.333   6.785  18.083  0.00  0.00    +0.000 A 
ATOM     21  C   UNL     1       3.670   5.978  19.171  0.00  0.00    +0.000 A 
ATOM     22  C   UNL     1       4.933   5.390  19.244  0.00  0.00    +0.000 A 
ATOM     23  C   UNL     1       5.883   5.623  18.239  0.00  0.00    +0.000 A 
ATOM     24  C   UNL     1       5.533   6.437  17.151  0.00  0.00    +0.000 A 
ATOM     25  C   UNL     1       4.255   6.985  17.057  0.00  0.00    +0.000 A 
BRANCH  23  26
ATOM     26  C   UNL     1       7.272   5.047  18.351  0.00  0.00    +0.000 C 
ATOM     27  F   UNL     1       7.768   4.626  17.154  0.00  0.00    +0.000 F 
ATOM     28  F   UNL     1       8.179   5.940  18.835  0.00  0.00    +0.000 F 
ENDBRANCH  23  26
ENDBRANCH  18  20
ENDBRANCH  15  16
ENDBRANCH   3  15
TORSDOF 5
ENDMDL
MODEL 4
REMARK VINA RESULT:      -6.7      2.218      2.688
REMARK  Name = 
REMARK  6 active torsions:
REMARK  status: ('A' for Active; 'I' for Inactive)
REMARK    1  A    between atoms: C_1  and  N_2
REMARK    2  A    between atoms: C_3  and  C_4
REMARK    3  A    between atoms: C_4  and  C_5
REMARK    4  A    between atoms: N_7  and  C_8
REMARK    5  A    between atoms: C_11  and  C_12
REMARK    6  A    between atoms: N_20  and  C_21
REMARK                            x       y       z     vdW  Elec       q    Type
REMARK                         _______ _______ _______ _____ _____    ______ ____
ROOT
ATOM      1  C   UNL     1       0.593   9.089  21.035  0.00  0.00    +0.000 C 
ATOM      2  N   UNL     1       0.094  10.238  20.292  0.00  0.00    +0.000 N 
ATOM      3  C   UNL     1      -0.000  10.344  18.888  0.00  0.00    +0.000 A 
ATOM      4  C   UNL     1      -0.461  11.534  18.467  0.00  0.00    +0.000 A 
ATOM      5  S   UNL     1      -0.750  12.619  19.780  0.00  0.00    +0.000 S 
ATOM      6  C   UNL     1      -0.479  11.320  20.970  0.00  0.00    +0.000 A 
ATOM      7  N   UNL     1      -0.801  11.339  22.230  0.00  0.00    +0.000 NA
ENDROOT
BRANCH   7   8
ATOM      8  C   UNL     1      -1.497  12.403  22.831  0.00  0.00    +0.000 A 
ATOM      9  C   UNL     1      -0.880  13.612  23.195  0.00  0.00    +0.000 A 
ATOM     10  C   UNL     1      -1.590  14.640  23.820  0.00  0.00    +0.000 A 
ATOM     11  C   UNL     1      -2.962  14.516  23.991  0.00  0.00    +0.000 A 
ATOM     12 BR   UNL     1      -3.928  15.918  24.808  0.00  0.00    +0.000 Br
ATOM     13  C   UNL     1      -3.622  13.374  23.544  0.00  0.00    +0.000 A 
ATOM     14  C   UNL     1      -2.888  12.322  22.975  0.00  0.00    +0.000 A 
ENDBRANCH   7   8
BRANCH   3  15
ATOM     15  C   UNL     1       0.353   9.246  17.933  0.00  0.00    +0.000 C 
BRANCH  15  16
ATOM     16  C   UNL     1       1.822   8.831  17.974  0.00  0.00    +0.000 C 
ATOM     17  O   UNL     1       2.698   9.697  17.980  0.00  0.00    +0.000 OA
ATOM     18  N   UNL     1       2.066   7.471  17.925  0.00  0.00    +0.000 N 
ATOM     19  H   UNL     1       1.317   6.870  17.600  0.00  0.00    +0.000 HD
BRANCH  18  20
ATOM     20  C   UNL     1       3.344   6.894  17.998  0.00  0.00    +0.000 A 
ATOM     21  C   UNL     1       4.327   7.135  17.035  0.00  0.00    +0.000 A 
ATOM     22  C   UNL     1       5.580   6.531  17.146  0.00  0.00    +0.000 A 
ATOM     23  C   UNL     1       5.856   5.661  18.210  0.00  0.00    +0.000 A 
ATOM     24  C   UNL     1       4.861   5.426  19.171  0.00  0.00    +0.000 A 
ATOM     25  C   UNL     1       3.626   6.066  19.084  0.00  0.00    +0.000 A 
BRANCH  23  26
ATOM     26  C   UNL     1       7.184   4.951  18.294  0.00  0.00    +0.000 C 
ATOM     27  F   UNL     1       7.580   4.424  17.102  0.00  0.00    +0.000 F 
ATOM     28  F   UNL     1       8.198   5.769  18.692  0.00  0.00    +0.000 F 
ENDBRANCH  23  26
ENDBRANCH  18  20
ENDBRANCH  15  16
ENDBRANCH   3  15
TORSDOF 5
ENDMDL
MODEL 5
REMARK VINA RESULT:      -6.6      2.208      2.777
REMARK  Name = 
REMARK  6 active torsions:
REMARK  status: ('A' for Active; 'I' for Inactive)
REMARK    1  A    between atoms: C_1  and  N_2
REMARK    2  A    between atoms: C_3  and  C_4
REMARK    3  A    between atoms: C_4  and  C_5
REMARK    4  A    between atoms: N_7  and  C_8
REMARK    5  A    between atoms: C_11  and  C_12
REMARK    6  A    between atoms: N_20  and  C_21
REMARK                            x       y       z     vdW  Elec       q    Type
REMARK                         _______ _______ _______ _____ _____    ______ ____
ROOT
ATOM      1  C   UNL     1      -0.985  11.142  23.129  0.00  0.00    +0.000 C 
ATOM      2  N   UNL     1      -0.857  11.474  21.717  0.00  0.00    +0.000 N 
ATOM      3  C   UNL     1       0.156  11.021  20.844  0.00  0.00    +0.000 A 
ATOM      4  C   UNL     1       0.055  11.515  19.599  0.00  0.00    +0.000 A 
ATOM      5  S   UNL     1      -1.264  12.619  19.444  0.00  0.00    +0.000 S 
ATOM      6  C   UNL     1      -1.864  12.200  21.069  0.00  0.00    +0.000 A 
ATOM      7  N   UNL     1      -3.039  12.464  21.558  0.00  0.00    +0.000 NA
ENDROOT
BRANCH   7   8
ATOM      8  C   UNL     1      -4.061  13.080  20.815  0.00  0.00    +0.000 A 
ATOM      9  C   UNL     1      -4.843  12.393  19.871  0.00  0.00    +0.000 A 
ATOM     10  C   UNL     1      -5.830  13.039  19.123  0.00  0.00    +0.000 A 
ATOM     11  C   UNL     1      -6.126  14.370  19.389  0.00  0.00    +0.000 A 
ATOM     12 BR   UNL     1      -7.481  15.237  18.400  0.00  0.00    +0.000 Br
ATOM     13  C   UNL     1      -5.442  15.051  20.392  0.00  0.00    +0.000 A 
ATOM     14  C   UNL     1      -4.410  14.408  21.093  0.00  0.00    +0.000 A 
ENDBRANCH   7   8
BRANCH   3  15
ATOM     15  C   UNL     1       1.240  10.065  21.235  0.00  0.00    +0.000 C 
BRANCH  15  16
ATOM     16  C   UNL     1       0.951   8.610  20.875  0.00  0.00    +0.000 C 
ATOM     17  O   UNL     1      -0.156   8.131  21.125  0.00  0.00    +0.000 OA
ATOM     18  N   UNL     1       2.011   7.897  20.345  0.00  0.00    +0.000 N 
ATOM     19  H   UNL     1       2.943   8.272  20.477  0.00  0.00    +0.000 HD
BRANCH  18  20
ATOM     20  C   UNL     1       1.928   6.564  19.911  0.00  0.00    +0.000 A 
ATOM     21  C   UNL     1       1.556   5.524  20.764  0.00  0.00    +0.000 A 
ATOM     22  C   UNL     1       1.497   4.213  20.289  0.00  0.00    +0.000 A 
ATOM     23  C   UNL     1       1.833   3.926  18.958  0.00  0.00    +0.000 A 
ATOM     24  C   UNL     1       2.206   4.980  18.109  0.00  0.00    +0.000 A 
ATOM     25  C   UNL     1       2.219   6.294  18.574  0.00  0.00    +0.000 A 
BRANCH  23  26
ATOM     26  C   UNL     1       1.839   2.503  18.459  0.00  0.00    +0.000 C 
ATOM     27  F   UNL     1       2.540   2.350  17.302  0.00  0.00    +0.000 F 
ATOM     28  F   UNL     1       2.394   1.632  19.347  0.00  0.00    +0.000 F 
ENDBRANCH  23  26
ENDBRANCH  18  20
ENDBRANCH  15  16
ENDBRANCH   3  15
TORSDOF 5
ENDMDL
MODEL 6
REMARK VINA RESULT:      -6.6      2.147      2.727
REMARK  Name = 
REMARK  6 active torsions:
REMARK  status: ('A' for Active; 'I' for Inactive)
REMARK    1  A    between atoms: C_1  and  N_2
REMARK    2  A    between atoms: C_3  and  C_4
REMARK    3  A    between atoms: C_4  and  C_5
REMARK    4  A    between atoms: N_7  and  C_8
REMARK    5  A    between atoms: C_11  and  C_12
REMARK    6  A    between atoms: N_20  and  C_21
REMARK                            x       y       z     vdW  Elec       q    Type
REMARK                         _______ _______ _______ _____ _____    ______ ____
ROOT
ATOM      1  C   UNL     1      -0.209  11.403  19.449  0.00  0.00    +0.000 C 
ATOM      2  N   UNL     1      -0.640  11.341  20.838  0.00  0.00    +0.000 N 
ATOM      3  C   UNL     1      -0.045  10.571  21.861  0.00  0.00    +0.000 A 
ATOM      4  C   UNL     1      -0.672  10.672  23.045  0.00  0.00    +0.000 A 
ATOM      5  S   UNL     1      -2.074  11.677  22.955  0.00  0.00    +0.000 S 
ATOM      6  C   UNL     1      -1.651  12.192  21.301  0.00  0.00    +0.000 A 
ATOM      7  N   UNL     1      -2.142  13.206  20.652  0.00  0.00    +0.000 NA
ENDROOT
BRANCH   7   8
ATOM      8  C   UNL     1      -3.061  14.109  21.216  0.00  0.00    +0.000 A 
ATOM      9  C   UNL     1      -4.441  13.853  21.285  0.00  0.00    +0.000 A 
ATOM     10  C   UNL     1      -5.335  14.783  21.822  0.00  0.00    +0.000 A 
ATOM     11  C   UNL     1      -4.844  15.945  22.402  0.00  0.00    +0.000 A 
ATOM     12 BR   UNL     1      -6.048  17.188  23.157  0.00  0.00    +0.000 Br
ATOM     13  C   UNL     1      -3.472  16.179  22.446  0.00  0.00    +0.000 A 
ATOM     14  C   UNL     1      -2.590  15.266  21.847  0.00  0.00    +0.000 A 
ENDBRANCH   7   8
BRANCH   3  15
ATOM     15  C   UNL     1       1.180   9.730  21.679  0.00  0.00    +0.000 C 
BRANCH  15  16
ATOM     16  C   UNL     1       0.899   8.321  21.165  0.00  0.00    +0.000 C 
ATOM     17  O   UNL     1      -0.247   7.872  21.215  0.00  0.00    +0.000 OA
ATOM     18  N   UNL     1       2.002   7.604  20.736  0.00  0.00    +0.000 N 
ATOM     19  H   UNL     1       2.917   7.927  21.030  0.00  0.00    +0.000 HD
BRANCH  18  20
ATOM     20  C   UNL     1       1.940   6.313  20.188  0.00  0.00    +0.000 A 
ATOM     21  C   UNL     1       1.680   5.184  20.966  0.00  0.00    +0.000 A 
ATOM     22  C   UNL     1       1.638   3.920  20.377  0.00  0.00    +0.000 A 
ATOM     23  C   UNL     1       1.881   3.769  19.004  0.00  0.00    +0.000 A 
ATOM     24  C   UNL     1       2.143   4.911  18.232  0.00  0.00    +0.000 A 
ATOM     25  C   UNL     1       2.138   6.177  18.814  0.00  0.00    +0.000 A 
BRANCH  23  26
ATOM     26  C   UNL     1       1.907   2.397  18.377  0.00  0.00    +0.000 C 
ATOM     27  F   UNL     1       2.794   1.557  18.978  0.00  0.00    +0.000 F 
ATOM     28  F   UNL     1       0.702   1.766  18.433  0.00  0.00    +0.000 F 
ENDBRANCH  23  26
ENDBRANCH  18  20
ENDBRANCH  15  16
ENDBRANCH   3  15
TORSDOF 5
ENDMDL
MODEL 7
REMARK VINA RESULT:      -6.6      1.298      1.996
REMARK  Name = 
REMARK  6 active torsions:
REMARK  status: ('A' for Active; 'I' for Inactive)
REMARK    1  A    between atoms: C_1  and  N_2
REMARK    2  A    between atoms: C_3  and  C_4
REMARK    3  A    between atoms: C_4  and  C_5
REMARK    4  A    between atoms: N_7  and  C_8
REMARK    5  A    between atoms: C_11  and  C_12
REMARK    6  A    between atoms: N_20  and  C_21
REMARK                            x       y       z     vdW  Elec       q    Type
REMARK                         _______ _______ _______ _____ _____    ______ ____
ROOT
ATOM      1  C   UNL     1      -1.613  10.341  18.336  0.00  0.00    +0.000 C 
ATOM      2  N   UNL     1      -0.823  10.892  19.428  0.00  0.00    +0.000 N 
ATOM      3  C   UNL     1       0.577  10.790  19.577  0.00  0.00    +0.000 A 
ATOM      4  C   UNL     1       1.043  11.358  20.702  0.00  0.00    +0.000 A 
ATOM      5  S   UNL     1      -0.229  12.002  21.679  0.00  0.00    +0.000 S 
ATOM      6  C   UNL     1      -1.424  11.717  20.386  0.00  0.00    +0.000 A 
ATOM      7  N   UNL     1      -2.619  12.223  20.306  0.00  0.00    +0.000 NA
ENDROOT
BRANCH   7   8
ATOM      8  C   UNL     1      -3.124  13.153  21.231  0.00  0.00    +0.000 A 
ATOM      9  C   UNL     1      -3.774  12.777  22.419  0.00  0.00    +0.000 A 
ATOM     10  C   UNL     1      -4.295  13.724  23.304  0.00  0.00    +0.000 A 
ATOM     11  C   UNL     1      -4.074  15.074  23.066  0.00  0.00    +0.000 A 
ATOM     12 BR   UNL     1      -4.751  16.354  24.279  0.00  0.00    +0.000 Br
ATOM     13  C   UNL     1      -3.341  15.478  21.954  0.00  0.00    +0.000 A 
ATOM     14  C   UNL     1      -2.878  14.519  21.039  0.00  0.00    +0.000 A 
ENDBRANCH   7   8
BRANCH   3  15
ATOM     15  C   UNL     1       1.485  10.136  18.582  0.00  0.00    +0.000 C 
BRANCH  15  16
ATOM     16  C   UNL     1       1.826   8.684  18.908  0.00  0.00    +0.000 C 
ATOM     17  O   UNL     1       1.601   8.245  20.037  0.00  0.00    +0.000 OA
ATOM     18  N   UNL     1       2.451   7.971  17.901  0.00  0.00    +0.000 N 
ATOM     19  H   UNL     1       2.877   8.496  17.147  0.00  0.00    +0.000 HD
BRANCH  18  20
ATOM     20  C   UNL     1       2.800   6.614  17.995  0.00  0.00    +0.000 A 
ATOM     21  C   UNL     1       4.107   6.196  18.250  0.00  0.00    +0.000 A 
ATOM     22  C   UNL     1       4.407   4.835  18.324  0.00  0.00    +0.000 A 
ATOM     23  C   UNL     1       3.405   3.876  18.120  0.00  0.00    +0.000 A 
ATOM     24  C   UNL     1       2.094   4.308  17.864  0.00  0.00    +0.000 A 
ATOM     25  C   UNL     1       1.789   5.667  17.836  0.00  0.00    +0.000 A 
BRANCH  23  26
ATOM     26  C   UNL     1       3.739   2.405  18.130  0.00  0.00    +0.000 C 
ATOM     27  F   UNL     1       4.180   1.970  19.343  0.00  0.00    +0.000 F 
ATOM     28  F   UNL     1       2.673   1.617  17.818  0.00  0.00    +0.000 F 
ENDBRANCH  23  26
ENDBRANCH  18  20
ENDBRANCH  15  16
ENDBRANCH   3  15
TORSDOF 5
ENDMDL
MODEL 8
REMARK VINA RESULT:      -6.6      0.519      1.044
REMARK  Name = 
REMARK  6 active torsions:
REMARK  status: ('A' for Active; 'I' for Inactive)
REMARK    1  A    between atoms: C_1  and  N_2
REMARK    2  A    between atoms: C_3  and  C_4
REMARK    3  A    between atoms: C_4  and  C_5
REMARK    4  A    between atoms: N_7  and  C_8
REMARK    5  A    between atoms: C_11  and  C_12
REMARK    6  A    between atoms: N_20  and  C_21
REMARK                            x       y       z     vdW  Elec       q    Type
REMARK                         _______ _______ _______ _____ _____    ______ ____
ROOT
ATOM      1  C   UNL     1       1.519  12.096  20.545  0.00  0.00    +0.000 C 
ATOM      2  N   UNL     1       0.313  11.633  19.875  0.00  0.00    +0.000 N 
ATOM      3  C   UNL     1       0.256  10.713  18.805  0.00  0.00    +0.000 A 
ATOM      4  C   UNL     1      -0.989  10.492  18.350  0.00  0.00    +0.000 A 
ATOM      5  S   UNL     1      -2.163  11.454  19.175  0.00  0.00    +0.000 S 
ATOM      6  C   UNL     1      -0.948  11.992  20.365  0.00  0.00    +0.000 A 
ATOM      7  N   UNL     1      -1.180  12.564  21.510  0.00  0.00    +0.000 NA
ENDROOT
BRANCH   7   8
ATOM      8  C   UNL     1      -2.474  12.781  22.013  0.00  0.00    +0.000 A 
ATOM      9  C   UNL     1      -3.509  13.346  21.247  0.00  0.00    +0.000 A 
ATOM     10  C   UNL     1      -4.777  13.580  21.783  0.00  0.00    +0.000 A 
ATOM     11  C   UNL     1      -5.064  13.149  23.072  0.00  0.00    +0.000 A 
ATOM     12 BR   UNL     1      -6.787  13.437  23.787  0.00  0.00    +0.000 Br
ATOM     13  C   UNL     1      -4.093  12.489  23.821  0.00  0.00    +0.000 A 
ATOM     14  C   UNL     1      -2.804  12.316  23.292  0.00  0.00    +0.000 A 
ENDBRANCH   7   8
BRANCH   3  15
ATOM     15  C   UNL     1       1.449  10.018  18.226  0.00  0.00    +0.000 C 
BRANCH  15  16
ATOM     16  C   UNL     1       1.727   8.645  18.831  0.00  0.00    +0.000 C 
ATOM     17  O   UNL     1       1.524   8.457  20.032  0.00  0.00    +0.000 OA
ATOM     18  N   UNL     1       2.275   7.708  17.974  0.00  0.00    +0.000 N 
ATOM     19  H   UNL     1       2.698   8.044  17.117  0.00  0.00    +0.000 HD
BRANCH  18  20
ATOM     20  C   UNL     1       2.558   6.379  18.333  0.00  0.00    +0.000 A 
ATOM     21  C   UNL     1       1.806   5.303  17.860  0.00  0.00    +0.000 A 
ATOM     22  C   UNL     1       2.119   4.001  18.253  0.00  0.00    +0.000 A 
ATOM     23  C   UNL     1       3.176   3.765  19.144  0.00  0.00    +0.000 A 
ATOM     24  C   UNL     1       3.924   4.855  19.614  0.00  0.00    +0.000 A 
ATOM     25  C   UNL     1       3.638   6.150  19.184  0.00  0.00    +0.000 A 
BRANCH  23  26
ATOM     26  C   UNL     1       3.473   2.367  19.626  0.00  0.00    +0.000 C 
ATOM     27  F   UNL     1       2.912   1.406  18.841  0.00  0.00    +0.000 F 
ATOM     28  F   UNL     1       4.805   2.089  19.659  0.00  0.00    +0.000 F 
ENDBRANCH  23  26
ENDBRANCH  18  20
ENDBRANCH  15  16
ENDBRANCH   3  15
TORSDOF 5
ENDMDL
MODEL 9
REMARK VINA RESULT:      -6.6      5.984     10.499
REMARK  Name = 
REMARK  6 active torsions:
REMARK  status: ('A' for Active; 'I' for Inactive)
REMARK    1  A    between atoms: C_1  and  N_2
REMARK    2  A    between atoms: C_3  and  C_4
REMARK    3  A    between atoms: C_4  and  C_5
REMARK    4  A    between atoms: N_7  and  C_8
REMARK    5  A    between atoms: C_11  and  C_12
REMARK    6  A    between atoms: N_20  and  C_21
REMARK                            x       y       z     vdW  Elec       q    Type
REMARK                         _______ _______ _______ _____ _____    ______ ____
ROOT
ATOM      1  C   UNL     1       1.013   8.565  21.657  0.00  0.00    +0.000 C 
ATOM      2  N   UNL     1       1.266   9.023  20.298  0.00  0.00    +0.000 N 
ATOM      3  C   UNL     1       1.071  10.333  19.811  0.00  0.00    +0.000 A 
ATOM      4  C   UNL     1       1.347  10.469  18.503  0.00  0.00    +0.000 A 
ATOM      5  S   UNL     1       1.809   8.971  17.778  0.00  0.00    +0.000 S 
ATOM      6  C   UNL     1       1.879   8.172  19.370  0.00  0.00    +0.000 A 
ATOM      7  N   UNL     1       2.443   7.033  19.646  0.00  0.00    +0.000 NA
ENDROOT
BRANCH   7   8
ATOM      8  C   UNL     1       3.161   6.282  18.699  0.00  0.00    +0.000 A 
ATOM      9  C   UNL     1       2.684   5.076  18.157  0.00  0.00    +0.000 A 
ATOM     10  C   UNL     1       3.434   4.334  17.242  0.00  0.00    +0.000 A 
ATOM     11  C   UNL     1       4.635   4.846  16.769  0.00  0.00    +0.000 A 
ATOM     12 BR   UNL     1       5.635   3.858  15.508  0.00  0.00    +0.000 Br
ATOM     13  C   UNL     1       5.085   6.089  17.205  0.00  0.00    +0.000 A 
ATOM     14  C   UNL     1       4.352   6.796  18.172  0.00  0.00    +0.000 A 
ENDBRANCH   7   8
BRANCH   3  15
ATOM     15  C   UNL     1       0.619  11.487  20.652  0.00  0.00    +0.000 C 
BRANCH  15  16
ATOM     16  C   UNL     1      -0.894  11.569  20.839  0.00  0.00    +0.000 C 
ATOM     17  O   UNL     1      -1.636  10.960  20.067  0.00  0.00    +0.000 OA
ATOM     18  N   UNL     1      -1.333  12.407  21.848  0.00  0.00    +0.000 N 
ATOM     19  H   UNL     1      -0.680  13.097  22.204  0.00  0.00    +0.000 HD
BRANCH  18  20
ATOM     20  C   UNL     1      -2.681  12.579  22.202  0.00  0.00    +0.000 A 
ATOM     21  C   UNL     1      -3.656  12.941  21.271  0.00  0.00    +0.000 A 
ATOM     22  C   UNL     1      -4.981  13.109  21.673  0.00  0.00    +0.000 A 
ATOM     23  C   UNL     1      -5.342  12.940  23.017  0.00  0.00    +0.000 A 
ATOM     24  C   UNL     1      -4.353  12.577  23.945  0.00  0.00    +0.000 A 
ATOM     25  C   UNL     1      -3.038  12.364  23.532  0.00  0.00    +0.000 A 
BRANCH  23  26
ATOM     26  C   UNL     1      -6.759  13.190  23.468  0.00  0.00    +0.000 C 
ATOM     27  F   UNL     1      -7.312  12.116  24.098  0.00  0.00    +0.000 F 
ATOM     28  F   UNL     1      -6.862  14.228  24.343  0.00  0.00    +0.000 F 
ENDBRANCH  23  26
ENDBRANCH  18  20
ENDBRANCH  15  16
ENDBRANCH   3  15
TORSDOF 5
ENDMDL
