MODEL 1
REMARK VINA RESULT:      -7.1      0.000      0.000
REMARK  Name = 
REMARK  2 active torsions:
REMARK  status: ('A' for Active; 'I' for Inactive)
REMARK    1  A    between atoms: O_1  and  C_2
REMARK    2  A    between atoms: C_3  and  C_4
REMARK                            x       y       z     vdW  Elec       q    Type
REMARK                         _______ _______ _______ _____ _____    ______ ____
ROOT
ATOM      1  C   UNL     1       3.947   3.733  17.258  0.00  0.00    +0.000 A 
ATOM      2  C   UNL     1       4.212   3.790  18.623  0.00  0.00    +0.000 A 
ATOM      3  N   UNL     1       5.524   4.167  18.859  0.00  0.00    +0.000 NA
ATOM      4  C   UNL     1       6.047   4.289  17.659  0.00  0.00    +0.000 A 
ATOM      5  C   UNL     1       7.383   4.661  17.284  0.00  0.00    +0.000 A 
ATOM      6  N   UNL     1       7.752   4.747  16.030  0.00  0.00    +0.000 NA
ATOM      7  C   UNL     1       6.800   4.464  15.062  0.00  0.00    +0.000 A 
ATOM      8  C   UNL     1       5.531   4.114  15.333  0.00  0.00    +0.000 A 
ATOM      9  N   UNL     1       5.149   4.026  16.660  0.00  0.00    +0.000 N 
ENDROOT
BRANCH   2  10
ATOM     10  C   UNL     1       3.245   3.559  19.686  0.00  0.00    +0.000 A 
ATOM     11  C   UNL     1       3.478   2.604  20.687  0.00  0.00    +0.000 A 
ATOM     12  C   UNL     1       2.498   2.315  21.638  0.00  0.00    +0.000 A 
ATOM     13  C   UNL     1       1.289   3.007  21.623  0.00  0.00    +0.000 A 
ATOM     14  C   UNL     1       1.070   4.002  20.671  0.00  0.00    +0.000 A 
ATOM     15  C   UNL     1       2.045   4.280  19.708  0.00  0.00    +0.000 A 
ENDBRANCH   2  10
BRANCH   1  16
ATOM     16  O   UNL     1       2.854   3.510  16.530  0.00  0.00    +0.000 OA
ATOM     17  H   UNL     1       3.129   3.023  15.732  0.00  0.00    +0.000 HD
ENDBRANCH   1  16
TORSDOF 2
ENDMDL
MODEL 2
REMARK VINA RESULT:      -7.0      1.476      1.897
REMARK  Name = 
REMARK  2 active torsions:
REMARK  status: ('A' for Active; 'I' for Inactive)
REMARK    1  A    between atoms: O_1  and  C_2
REMARK    2  A    between atoms: C_3  and  C_4
REMARK                            x       y       z     vdW  Elec       q    Type
REMARK                         _______ _______ _______ _____ _____    ______ ____
ROOT
ATOM      1  C   UNL     1       5.433   4.489  18.575  0.00  0.00    +0.000 A 
ATOM      2  C   UNL     1       4.145   4.001  18.375  0.00  0.00    +0.000 A 
ATOM      3  N   UNL     1       3.912   3.751  17.033  0.00  0.00    +0.000 NA
ATOM      4  C   UNL     1       5.022   4.126  16.436  0.00  0.00    +0.000 A 
ATOM      5  C   UNL     1       5.356   4.095  15.039  0.00  0.00    +0.000 A 
ATOM      6  N   UNL     1       6.520   4.501  14.596  0.00  0.00    +0.000 NA
ATOM      7  C   UNL     1       7.433   4.966  15.531  0.00  0.00    +0.000 A 
ATOM      8  C   UNL     1       7.196   5.021  16.853  0.00  0.00    +0.000 A 
ATOM      9  N   UNL     1       5.964   4.592  17.312  0.00  0.00    +0.000 N 
ENDROOT
BRANCH   2  10
ATOM     10  C   UNL     1       3.175   3.714  19.421  0.00  0.00    +0.000 A 
ATOM     11  C   UNL     1       3.486   2.858  20.488  0.00  0.00    +0.000 A 
ATOM     12  C   UNL     1       2.513   2.507  21.426  0.00  0.00    +0.000 A 
ATOM     13  C   UNL     1       1.231   3.039  21.331  0.00  0.00    +0.000 A 
ATOM     14  C   UNL     1       0.926   3.940  20.311  0.00  0.00    +0.000 A 
ATOM     15  C   UNL     1       1.895   4.279  19.361  0.00  0.00    +0.000 A 
ENDBRANCH   2  10
BRANCH   1  16
ATOM     16  O   UNL     1       6.156   4.796  19.651  0.00  0.00    +0.000 OA
ATOM     17  H   UNL     1       5.589   4.662  20.433  0.00  0.00    +0.000 HD
ENDBRANCH   1  16
TORSDOF 2
ENDMDL
MODEL 3
REMARK VINA RESULT:      -6.9      1.461      2.239
REMARK  Name = 
REMARK  2 active torsions:
REMARK  status: ('A' for Active; 'I' for Inactive)
REMARK    1  A    between atoms: O_1  and  C_2
REMARK    2  A    between atoms: C_3  and  C_4
REMARK                            x       y       z     vdW  Elec       q    Type
REMARK                         _______ _______ _______ _____ _____    ______ ____
ROOT
ATOM      1  C   UNL     1       5.404   4.465  18.550  0.00  0.00    +0.000 A 
ATOM      2  C   UNL     1       4.129   3.952  18.325  0.00  0.00    +0.000 A 
ATOM      3  N   UNL     1       3.926   3.701  16.978  0.00  0.00    +0.000 NA
ATOM      4  C   UNL     1       5.040   4.099  16.403  0.00  0.00    +0.000 A 
ATOM      5  C   UNL     1       5.401   4.077  15.012  0.00  0.00    +0.000 A 
ATOM      6  N   UNL     1       6.566   4.506  14.592  0.00  0.00    +0.000 NA
ATOM      7  C   UNL     1       7.452   4.987  15.545  0.00  0.00    +0.000 A 
ATOM      8  C   UNL     1       7.189   5.034  16.863  0.00  0.00    +0.000 A 
ATOM      9  N   UNL     1       5.957   4.580  17.297  0.00  0.00    +0.000 N 
ENDROOT
BRANCH   2  10
ATOM     10  C   UNL     1       3.145   3.645  19.351  0.00  0.00    +0.000 A 
ATOM     11  C   UNL     1       1.880   4.251  19.352  0.00  0.00    +0.000 A 
ATOM     12  C   UNL     1       0.985   4.030  20.400  0.00  0.00    +0.000 A 
ATOM     13  C   UNL     1       1.328   3.168  21.438  0.00  0.00    +0.000 A 
ATOM     14  C   UNL     1       2.558   2.510  21.417  0.00  0.00    +0.000 A 
ATOM     15  C   UNL     1       3.462   2.745  20.376  0.00  0.00    +0.000 A 
ENDBRANCH   2  10
BRANCH   1  16
ATOM     16  O   UNL     1       6.100   4.783  19.640  0.00  0.00    +0.000 OA
ATOM     17  H   UNL     1       6.845   4.157  19.704  0.00  0.00    +0.000 HD
ENDBRANCH   1  16
TORSDOF 2
ENDMDL
MODEL 4
REMARK VINA RESULT:      -6.9      2.432      5.434
REMARK  Name = 
REMARK  2 active torsions:
REMARK  status: ('A' for Active; 'I' for Inactive)
REMARK    1  A    between atoms: O_1  and  C_2
REMARK    2  A    between atoms: C_3  and  C_4
REMARK                            x       y       z     vdW  Elec       q    Type
REMARK                         _______ _______ _______ _____ _____    ______ ____
ROOT
ATOM      1  C   UNL     1       4.144   3.735  17.979  0.00  0.00    +0.000 A 
ATOM      2  C   UNL     1       4.493   4.915  18.630  0.00  0.00    +0.000 A 
ATOM      3  N   UNL     1       3.546   5.255  19.583  0.00  0.00    +0.000 NA
ATOM      4  C   UNL     1       2.626   4.323  19.472  0.00  0.00    +0.000 A 
ATOM      5  C   UNL     1       1.404   4.161  20.211  0.00  0.00    +0.000 A 
ATOM      6  N   UNL     1       0.586   3.163  19.986  0.00  0.00    +0.000 NA
ATOM      7  C   UNL     1       0.940   2.255  18.999  0.00  0.00    +0.000 A 
ATOM      8  C   UNL     1       2.067   2.336  18.270  0.00  0.00    +0.000 A 
ATOM      9  N   UNL     1       2.925   3.392  18.514  0.00  0.00    +0.000 N 
ENDROOT
BRANCH   2  10
ATOM     10  C   UNL     1       5.715   5.675  18.413  0.00  0.00    +0.000 A 
ATOM     11  C   UNL     1       6.854   5.464  19.204  0.00  0.00    +0.000 A 
ATOM     12  C   UNL     1       7.983   6.272  19.056  0.00  0.00    +0.000 A 
ATOM     13  C   UNL     1       8.000   7.273  18.088  0.00  0.00    +0.000 A 
ATOM     14  C   UNL     1       6.898   7.450  17.253  0.00  0.00    +0.000 A 
ATOM     15  C   UNL     1       5.761   6.653  17.412  0.00  0.00    +0.000 A 
ENDBRANCH   2  10
BRANCH   1  16
ATOM     16  O   UNL     1       4.737   2.963  17.070  0.00  0.00    +0.000 OA
ATOM     17  H   UNL     1       4.128   2.227  16.870  0.00  0.00    +0.000 HD
ENDBRANCH   1  16
TORSDOF 2
ENDMDL
MODEL 5
REMARK VINA RESULT:      -6.9      1.040      1.043
REMARK  Name = 
REMARK  2 active torsions:
REMARK  status: ('A' for Active; 'I' for Inactive)
REMARK    1  A    between atoms: O_1  and  C_2
REMARK    2  A    between atoms: C_3  and  C_4
REMARK                            x       y       z     vdW  Elec       q    Type
REMARK                         _______ _______ _______ _____ _____    ______ ____
ROOT
ATOM      1  C   UNL     1       4.646   3.533  17.607  0.00  0.00    +0.000 A 
ATOM      2  C   UNL     1       4.238   4.284  18.706  0.00  0.00    +0.000 A 
ATOM      3  N   UNL     1       4.885   5.507  18.739  0.00  0.00    +0.000 NA
ATOM      4  C   UNL     1       5.699   5.471  17.707  0.00  0.00    +0.000 A 
ATOM      5  C   UNL     1       6.621   6.471  17.243  0.00  0.00    +0.000 A 
ATOM      6  N   UNL     1       7.366   6.286  16.180  0.00  0.00    +0.000 NA
ATOM      7  C   UNL     1       7.233   5.081  15.508  0.00  0.00    +0.000 A 
ATOM      8  C   UNL     1       6.390   4.101  15.877  0.00  0.00    +0.000 A 
ATOM      9  N   UNL     1       5.608   4.303  17.000  0.00  0.00    +0.000 N 
ENDROOT
BRANCH   2  10
ATOM     10  C   UNL     1       3.220   3.893  19.669  0.00  0.00    +0.000 A 
ATOM     11  C   UNL     1       3.495   2.964  20.684  0.00  0.00    +0.000 A 
ATOM     12  C   UNL     1       2.483   2.517  21.535  0.00  0.00    +0.000 A 
ATOM     13  C   UNL     1       1.192   3.024  21.407  0.00  0.00    +0.000 A 
ATOM     14  C   UNL     1       0.920   3.995  20.443  0.00  0.00    +0.000 A 
ATOM     15  C   UNL     1       1.929   4.430  19.579  0.00  0.00    +0.000 A 
ENDBRANCH   2  10
BRANCH   1  16
ATOM     16  O   UNL     1       4.278   2.361  17.092  0.00  0.00    +0.000 OA
ATOM     17  H   UNL     1       3.450   2.506  16.597  0.00  0.00    +0.000 HD
ENDBRANCH   1  16
TORSDOF 2
ENDMDL
MODEL 6
REMARK VINA RESULT:      -6.8      2.487      5.544
REMARK  Name = 
REMARK  2 active torsions:
REMARK  status: ('A' for Active; 'I' for Inactive)
REMARK    1  A    between atoms: O_1  and  C_2
REMARK    2  A    between atoms: C_3  and  C_4
REMARK                            x       y       z     vdW  Elec       q    Type
REMARK                         _______ _______ _______ _____ _____    ______ ____
ROOT
ATOM      1  C   UNL     1       4.094   3.725  18.005  0.00  0.00    +0.000 A 
ATOM      2  C   UNL     1       4.387   4.916  18.663  0.00  0.00    +0.000 A 
ATOM      3  N   UNL     1       3.401   5.230  19.584  0.00  0.00    +0.000 NA
ATOM      4  C   UNL     1       2.512   4.270  19.446  0.00  0.00    +0.000 A 
ATOM      5  C   UNL     1       1.273   4.073  20.146  0.00  0.00    +0.000 A 
ATOM      6  N   UNL     1       0.492   3.051  19.898  0.00  0.00    +0.000 NA
ATOM      7  C   UNL     1       0.905   2.151  18.927  0.00  0.00    +0.000 A 
ATOM      8  C   UNL     1       2.052   2.264  18.234  0.00  0.00    +0.000 A 
ATOM      9  N   UNL     1       2.870   3.347  18.501  0.00  0.00    +0.000 N 
ENDROOT
BRANCH   2  10
ATOM     10  C   UNL     1       5.592   5.711  18.482  0.00  0.00    +0.000 A 
ATOM     11  C   UNL     1       5.659   6.719  17.509  0.00  0.00    +0.000 A 
ATOM     12  C   UNL     1       6.854   7.402  17.272  0.00  0.00    +0.000 A 
ATOM     13  C   UNL     1       7.983   7.113  18.034  0.00  0.00    +0.000 A 
ATOM     14  C   UNL     1       7.912   6.157  19.047  0.00  0.00    +0.000 A 
ATOM     15  C   UNL     1       6.721   5.461  19.273  0.00  0.00    +0.000 A 
ENDBRANCH   2  10
BRANCH   1  16
ATOM     16  O   UNL     1       4.738   2.968  17.118  0.00  0.00    +0.000 OA
ATOM     17  H   UNL     1       5.620   3.364  16.982  0.00  0.00    +0.000 HD
ENDBRANCH   1  16
TORSDOF 2
ENDMDL
MODEL 7
REMARK VINA RESULT:      -6.8      2.582      5.557
REMARK  Name = 
REMARK  2 active torsions:
REMARK  status: ('A' for Active; 'I' for Inactive)
REMARK    1  A    between atoms: O_1  and  C_2
REMARK    2  A    between atoms: C_3  and  C_4
REMARK                            x       y       z     vdW  Elec       q    Type
REMARK                         _______ _______ _______ _____ _____    ______ ____
ROOT
ATOM      1  C   UNL     1       3.414   5.275  19.441  0.00  0.00    +0.000 A 
ATOM      2  C   UNL     1       4.477   4.887  18.630  0.00  0.00    +0.000 A 
ATOM      3  N   UNL     1       4.206   3.684  17.998  0.00  0.00    +0.000 NA
ATOM      4  C   UNL     1       3.024   3.336  18.457  0.00  0.00    +0.000 A 
ATOM      5  C   UNL     1       2.237   2.174  18.150  0.00  0.00    +0.000 A 
ATOM      6  N   UNL     1       1.061   1.971  18.690  0.00  0.00    +0.000 NA
ATOM      7  C   UNL     1       0.592   2.927  19.579  0.00  0.00    +0.000 A 
ATOM      8  C   UNL     1       1.267   4.041  19.912  0.00  0.00    +0.000 A 
ATOM      9  N   UNL     1       2.508   4.247  19.338  0.00  0.00    +0.000 N 
ENDROOT
BRANCH   2  10
ATOM     10  C   UNL     1       5.692   5.653  18.401  0.00  0.00    +0.000 A 
ATOM     11  C   UNL     1       6.840   5.448  19.181  0.00  0.00    +0.000 A 
ATOM     12  C   UNL     1       7.964   6.261  19.023  0.00  0.00    +0.000 A 
ATOM     13  C   UNL     1       7.967   7.263  18.056  0.00  0.00    +0.000 A 
ATOM     14  C   UNL     1       6.856   7.435  17.231  0.00  0.00    +0.000 A 
ATOM     15  C   UNL     1       5.724   6.633  17.400  0.00  0.00    +0.000 A 
ENDBRANCH   2  10
BRANCH   1  16
ATOM     16  O   UNL     1       3.147   6.355  20.173  0.00  0.00    +0.000 OA
ATOM     17  H   UNL     1       3.777   7.051  19.907  0.00  0.00    +0.000 HD
ENDBRANCH   1  16
TORSDOF 2
ENDMDL
MODEL 8
REMARK VINA RESULT:      -6.7      0.420      1.274
REMARK  Name = 
REMARK  2 active torsions:
REMARK  status: ('A' for Active; 'I' for Inactive)
REMARK    1  A    between atoms: O_1  and  C_2
REMARK    2  A    between atoms: C_3  and  C_4
REMARK                            x       y       z     vdW  Elec       q    Type
REMARK                         _______ _______ _______ _____ _____    ______ ____
ROOT
ATOM      1  C   UNL     1       3.932   3.781  17.075  0.00  0.00    +0.000 A 
ATOM      2  C   UNL     1       4.118   3.998  18.438  0.00  0.00    +0.000 A 
ATOM      3  N   UNL     1       5.311   4.659  18.678  0.00  0.00    +0.000 NA
ATOM      4  C   UNL     1       5.851   4.794  17.487  0.00  0.00    +0.000 A 
ATOM      5  C   UNL     1       7.097   5.410  17.120  0.00  0.00    +0.000 A 
ATOM      6  N   UNL     1       7.497   5.473  15.874  0.00  0.00    +0.000 NA
ATOM      7  C   UNL     1       6.669   4.923  14.907  0.00  0.00    +0.000 A 
ATOM      8  C   UNL     1       5.489   4.336  15.171  0.00  0.00    +0.000 A 
ATOM      9  N   UNL     1       5.074   4.272  16.489  0.00  0.00    +0.000 N 
ENDROOT
BRANCH   2  10
ATOM     10  C   UNL     1       3.172   3.651  19.488  0.00  0.00    +0.000 A 
ATOM     11  C   UNL     1       1.911   4.261  19.562  0.00  0.00    +0.000 A 
ATOM     12  C   UNL     1       1.055   4.000  20.634  0.00  0.00    +0.000 A 
ATOM     13  C   UNL     1       1.434   3.095  21.622  0.00  0.00    +0.000 A 
ATOM     14  C   UNL     1       2.659   2.435  21.527  0.00  0.00    +0.000 A 
ATOM     15  C   UNL     1       3.523   2.709  20.463  0.00  0.00    +0.000 A 
ENDBRANCH   2  10
BRANCH   1  16
ATOM     16  O   UNL     1       2.944   3.278  16.338  0.00  0.00    +0.000 OA
ATOM     17  H   UNL     1       2.752   2.384  16.677  0.00  0.00    +0.000 HD
ENDBRANCH   1  16
TORSDOF 2
ENDMDL
MODEL 9
REMARK VINA RESULT:      -6.7      1.392      1.864
REMARK  Name = 
REMARK  2 active torsions:
REMARK  status: ('A' for Active; 'I' for Inactive)
REMARK    1  A    between atoms: O_1  and  C_2
REMARK    2  A    between atoms: C_3  and  C_4
REMARK                            x       y       z     vdW  Elec       q    Type
REMARK                         _______ _______ _______ _____ _____    ______ ____
ROOT
ATOM      1  C   UNL     1       4.307   3.172  17.385  0.00  0.00    +0.000 A 
ATOM      2  C   UNL     1       3.634   4.015  18.265  0.00  0.00    +0.000 A 
ATOM      3  N   UNL     1       3.808   5.343  17.913  0.00  0.00    +0.000 NA
ATOM      4  C   UNL     1       4.607   5.299  16.869  0.00  0.00    +0.000 A 
ATOM      5  C   UNL     1       5.130   6.380  16.080  0.00  0.00    +0.000 A 
ATOM      6  N   UNL     1       5.917   6.171  15.054  0.00  0.00    +0.000 NA
ATOM      7  C   UNL     1       6.234   4.856  14.748  0.00  0.00    +0.000 A 
ATOM      8  C   UNL     1       5.781   3.792  15.435  0.00  0.00    +0.000 A 
ATOM      9  N   UNL     1       4.951   4.022  16.517  0.00  0.00    +0.000 N 
ENDROOT
BRANCH   2  10
ATOM     10  C   UNL     1       2.795   3.587  19.374  0.00  0.00    +0.000 A 
ATOM     11  C   UNL     1       1.424   3.882  19.406  0.00  0.00    +0.000 A 
ATOM     12  C   UNL     1       0.652   3.560  20.524  0.00  0.00    +0.000 A 
ATOM     13  C   UNL     1       1.233   2.903  21.605  0.00  0.00    +0.000 A 
ATOM     14  C   UNL     1       2.581   2.548  21.559  0.00  0.00    +0.000 A 
ATOM     15  C   UNL     1       3.359   2.885  20.448  0.00  0.00    +0.000 A 
ENDBRANCH   2  10
BRANCH   1  16
ATOM     16  O   UNL     1       4.388   1.851  17.238  0.00  0.00    +0.000 OA
ATOM     17  H   UNL     1       3.656   1.455  17.746  0.00  0.00    +0.000 HD
ENDBRANCH   1  16
TORSDOF 2
ENDMDL
