MODEL 1
REMARK VINA RESULT:      -8.0      0.000      0.000
REMARK  Name = 
REMARK  5 active torsions:
REMARK  status: ('A' for Active; 'I' for Inactive)
REMARK    1  A    between atoms: C_2  and  C_3
REMARK    2  A    between atoms: C_3  and  C_4
REMARK    3  A    between atoms: C_4  and  C_5
REMARK    4  A    between atoms: C_4  and  N_10
REMARK    5  A    between atoms: C_12  and  C_13
REMARK                            x       y       z     vdW  Elec       q    Type
REMARK                         _______ _______ _______ _____ _____    ______ ____
ROOT
ATOM      1  N   UNL     1       2.518   7.131  18.864  0.00  0.00    +0.000 N 
ATOM      2  C   UNL     1       1.672   7.856  19.636  0.00  0.00    +0.000 A 
ATOM      3  C   UNL     1       1.474   8.993  18.879  0.00  0.00    +0.000 A 
ATOM      4  C   UNL     1       2.300   8.847  17.744  0.00  0.00    +0.000 A 
ATOM      5  N   UNL     1       2.956   7.695  17.743  0.00  0.00    +0.000 NA
ENDROOT
BRANCH   3   6
ATOM      6  C   UNL     1       0.654  10.132  19.162  0.00  0.00    +0.000 A 
ATOM      7  N   UNL     1       1.129  10.824  20.234  0.00  0.00    +0.000 NA
ATOM      8  C   UNL     1       0.553  11.996  20.500  0.00  0.00    +0.000 A 
ATOM      9  N   UNL     1      -0.298  12.666  19.746  0.00  0.00    +0.000 NA
ATOM     10  C   UNL     1      -0.785  11.901  18.744  0.00  0.00    +0.000 A 
ATOM     11  N   UNL     1      -1.730  12.315  17.857  0.00  0.00    +0.000 N 
ATOM     12  C   UNL     1      -2.274  11.203  17.264  0.00  0.00    +0.000 A 
ATOM     13  C   UNL     1      -1.439  10.127  17.538  0.00  0.00    +0.000 A 
ATOM     14  C   UNL     1      -0.444  10.589  18.451  0.00  0.00    +0.000 A 
ATOM     15  H   UNL     1      -2.062  13.256  17.806  0.00  0.00    +0.000 HD
ENDBRANCH   3   6
BRANCH   1  16
ATOM     16  C   UNL     1       3.046   5.834  19.186  0.00  0.00    +0.000 C 
BRANCH  16  17
ATOM     17  C   UNL     1       1.729   4.706  19.173  0.00  0.00    +0.000 C 
ATOM     18  C   UNL     1       1.064   4.217  20.540  0.00  0.00    +0.000 C 
ATOM     19  C   UNL     1       1.913   3.069  20.993  0.00  0.00    +0.000 C 
ATOM     20  C   UNL     1       2.279   2.374  19.697  0.00  0.00    +0.000 C 
ATOM     21  C   UNL     1       1.892   3.319  18.558  0.00  0.00    +0.000 C 
ENDBRANCH  16  17
BRANCH  16  22
ATOM     22  C   UNL     1       4.551   5.818  18.438  0.00  0.00    +0.000 C 
BRANCH  22  24
ATOM     23  N   UNL     1       6.832   5.245  19.724  0.00  0.00    +0.000 NA
ATOM     24  C   UNL     1       5.772   5.465  19.210  0.00  0.00    +0.000 C 
ENDBRANCH  22  24
ENDBRANCH  16  22
ENDBRANCH   1  16
TORSDOF 5
ENDMDL
MODEL 2
REMARK VINA RESULT:      -7.8      1.573      2.465
REMARK  Name = 
REMARK  5 active torsions:
REMARK  status: ('A' for Active; 'I' for Inactive)
REMARK    1  A    between atoms: C_2  and  C_3
REMARK    2  A    between atoms: C_3  and  C_4
REMARK    3  A    between atoms: C_4  and  C_5
REMARK    4  A    between atoms: C_4  and  N_10
REMARK    5  A    between atoms: C_12  and  C_13
REMARK                            x       y       z     vdW  Elec       q    Type
REMARK                         _______ _______ _______ _____ _____    ______ ____
ROOT
ATOM      1  N   UNL     1       2.836   6.773  18.661  0.00  0.00    +0.000 N 
ATOM      2  C   UNL     1       2.112   7.304  19.676  0.00  0.00    +0.000 A 
ATOM      3  C   UNL     1       1.797   8.559  19.196  0.00  0.00    +0.000 A 
ATOM      4  C   UNL     1       2.445   8.666  17.947  0.00  0.00    +0.000 A 
ATOM      5  N   UNL     1       3.099   7.559  17.622  0.00  0.00    +0.000 NA
ENDROOT
BRANCH   3   6
ATOM      6  C   UNL     1       1.023   9.593  19.815  0.00  0.00    +0.000 A 
ATOM      7  N   UNL     1       0.675  10.552  18.914  0.00  0.00    +0.000 NA
ATOM      8  C   UNL     1      -0.184  11.483  19.325  0.00  0.00    +0.000 A 
ATOM      9  N   UNL     1      -0.891  11.493  20.439  0.00  0.00    +0.000 NA
ATOM     10  C   UNL     1      -0.449  10.567  21.318  0.00  0.00    +0.000 A 
ATOM     11  N   UNL     1      -0.951  10.403  22.572  0.00  0.00    +0.000 N 
ATOM     12  C   UNL     1      -0.036   9.691  23.307  0.00  0.00    +0.000 A 
ATOM     13  C   UNL     1       0.876   9.131  22.420  0.00  0.00    +0.000 A 
ATOM     14  C   UNL     1       0.576   9.653  21.126  0.00  0.00    +0.000 A 
ATOM     15  H   UNL     1      -1.761  10.881  22.907  0.00  0.00    +0.000 HD
ENDBRANCH   3   6
BRANCH   1  16
ATOM     16  C   UNL     1       3.412   5.457  18.640  0.00  0.00    +0.000 C 
BRANCH  16  17
ATOM     17  C   UNL     1       2.203   4.356  18.063  0.00  0.00    +0.000 C 
ATOM     18  C   UNL     1       1.269   3.566  19.089  0.00  0.00    +0.000 C 
ATOM     19  C   UNL     1       2.055   2.348  19.468  0.00  0.00    +0.000 C 
ATOM     20  C   UNL     1       2.752   1.968  18.176  0.00  0.00    +0.000 C 
ATOM     21  C   UNL     1       2.585   3.146  17.215  0.00  0.00    +0.000 C 
ENDBRANCH  16  17
BRANCH  16  22
ATOM     22  C   UNL     1       5.005   5.725  18.175  0.00  0.00    +0.000 C 
BRANCH  22  24
ATOM     23  N   UNL     1       7.093   5.307  19.803  0.00  0.00    +0.000 NA
ATOM     24  C   UNL     1       6.118   5.519  19.139  0.00  0.00    +0.000 C 
ENDBRANCH  22  24
ENDBRANCH  16  22
ENDBRANCH   1  16
TORSDOF 5
ENDMDL
MODEL 3
REMARK VINA RESULT:      -7.8      1.741      2.775
REMARK  Name = 
REMARK  5 active torsions:
REMARK  status: ('A' for Active; 'I' for Inactive)
REMARK    1  A    between atoms: C_2  and  C_3
REMARK    2  A    between atoms: C_3  and  C_4
REMARK    3  A    between atoms: C_4  and  C_5
REMARK    4  A    between atoms: C_4  and  N_10
REMARK    5  A    between atoms: C_12  and  C_13
REMARK                            x       y       z     vdW  Elec       q    Type
REMARK                         _______ _______ _______ _____ _____    ______ ____
ROOT
ATOM      1  N   UNL     1       3.460   6.160  18.644  0.00  0.00    +0.000 N 
ATOM      2  C   UNL     1       2.586   6.701  19.527  0.00  0.00    +0.000 A 
ATOM      3  C   UNL     1       2.260   7.901  18.928  0.00  0.00    +0.000 A 
ATOM      4  C   UNL     1       3.049   7.975  17.761  0.00  0.00    +0.000 A 
ATOM      5  N   UNL     1       3.803   6.898  17.594  0.00  0.00    +0.000 NA
ENDROOT
BRANCH   3   6
ATOM      6  C   UNL     1       1.355   8.916  19.378  0.00  0.00    +0.000 A 
ATOM      7  N   UNL     1       0.864   9.635  18.331  0.00  0.00    +0.000 NA
ATOM      8  C   UNL     1      -0.113  10.501  18.598  0.00  0.00    +0.000 A 
ATOM      9  N   UNL     1      -0.801  10.620  19.717  0.00  0.00    +0.000 NA
ATOM     10  C   UNL     1      -0.223   9.941  20.733  0.00  0.00    +0.000 A 
ATOM     11  N   UNL     1      -0.681   9.945  22.014  0.00  0.00    +0.000 N 
ATOM     12  C   UNL     1       0.333   9.513  22.831  0.00  0.00    +0.000 A 
ATOM     13  C   UNL     1       1.304   8.928  22.027  0.00  0.00    +0.000 A 
ATOM     14  C   UNL     1       0.919   9.156  20.671  0.00  0.00    +0.000 A 
ATOM     15  H   UNL     1      -1.547  10.362  22.287  0.00  0.00    +0.000 HD
ENDBRANCH   3   6
BRANCH   1  16
ATOM     16  C   UNL     1       4.111   4.886  18.782  0.00  0.00    +0.000 C 
BRANCH  16  17
ATOM     17  C   UNL     1       3.306   3.761  17.736  0.00  0.00    +0.000 C 
ATOM     18  C   UNL     1       1.718   3.793  17.577  0.00  0.00    +0.000 C 
ATOM     19  C   UNL     1       1.200   2.959  18.709  0.00  0.00    +0.000 C 
ATOM     20  C   UNL     1       2.222   1.844  18.816  0.00  0.00    +0.000 C 
ATOM     21  C   UNL     1       3.424   2.257  17.964  0.00  0.00    +0.000 C 
ENDBRANCH  16  17
BRANCH  16  22
ATOM     22  C   UNL     1       5.733   5.284  18.973  0.00  0.00    +0.000 C 
BRANCH  22  24
ATOM     23  N   UNL     1       7.602   4.594  17.181  0.00  0.00    +0.000 NA
ATOM     24  C   UNL     1       6.745   4.825  17.985  0.00  0.00    +0.000 C 
ENDBRANCH  22  24
ENDBRANCH  16  22
ENDBRANCH   1  16
TORSDOF 5
ENDMDL
MODEL 4
REMARK VINA RESULT:      -7.8      1.022      1.105
REMARK  Name = 
REMARK  5 active torsions:
REMARK  status: ('A' for Active; 'I' for Inactive)
REMARK    1  A    between atoms: C_2  and  C_3
REMARK    2  A    between atoms: C_3  and  C_4
REMARK    3  A    between atoms: C_4  and  C_5
REMARK    4  A    between atoms: C_4  and  N_10
REMARK    5  A    between atoms: C_12  and  C_13
REMARK                            x       y       z     vdW  Elec       q    Type
REMARK                         _______ _______ _______ _____ _____    ______ ____
ROOT
ATOM      1  N   UNL     1       2.447   7.102  19.293  0.00  0.00    +0.000 N 
ATOM      2  C   UNL     1       1.741   8.007  20.012  0.00  0.00    +0.000 A 
ATOM      3  C   UNL     1       1.379   8.934  19.055  0.00  0.00    +0.000 A 
ATOM      4  C   UNL     1       1.985   8.505  17.856  0.00  0.00    +0.000 A 
ATOM      5  N   UNL     1       2.658   7.373  18.009  0.00  0.00    +0.000 NA
ENDROOT
BRANCH   3   6
ATOM      6  C   UNL     1       0.596  10.125  19.205  0.00  0.00    +0.000 A 
ATOM      7  N   UNL     1       1.064  10.894  20.226  0.00  0.00    +0.000 NA
ATOM      8  C   UNL     1       0.528  12.106  20.364  0.00  0.00    +0.000 A 
ATOM      9  N   UNL     1      -0.271  12.734  19.523  0.00  0.00    +0.000 NA
ATOM     10  C   UNL     1      -0.756  11.899  18.578  0.00  0.00    +0.000 A 
ATOM     11  N   UNL     1      -1.656  12.265  17.624  0.00  0.00    +0.000 N 
ATOM     12  C   UNL     1      -2.224  11.124  17.116  0.00  0.00    +0.000 A 
ATOM     13  C   UNL     1      -1.443  10.047  17.515  0.00  0.00    +0.000 A 
ATOM     14  C   UNL     1      -0.460  10.554  18.417  0.00  0.00    +0.000 A 
ATOM     15  H   UNL     1      -1.947  13.209  17.476  0.00  0.00    +0.000 HD
ENDBRANCH   3   6
BRANCH   1  16
ATOM     16  C   UNL     1       3.058   5.909  19.812  0.00  0.00    +0.000 C 
BRANCH  16  17
ATOM     17  C   UNL     1       1.793   4.872  20.389  0.00  0.00    +0.000 C 
ATOM     18  C   UNL     1       2.064   3.846  21.581  0.00  0.00    +0.000 C 
ATOM     19  C   UNL     1       2.627   2.626  20.919  0.00  0.00    +0.000 C 
ATOM     20  C   UNL     1       1.849   2.544  19.621  0.00  0.00    +0.000 C 
ATOM     21  C   UNL     1       1.112   3.874  19.457  0.00  0.00    +0.000 C 
ENDBRANCH  16  17
BRANCH  16  22
ATOM     22  C   UNL     1       4.352   5.637  18.774  0.00  0.00    +0.000 C 
BRANCH  22  24
ATOM     23  N   UNL     1       4.482   3.544  17.106  0.00  0.00    +0.000 NA
ATOM     24  C   UNL     1       4.379   4.434  17.901  0.00  0.00    +0.000 C 
ENDBRANCH  22  24
ENDBRANCH  16  22
ENDBRANCH   1  16
TORSDOF 5
ENDMDL
MODEL 5
REMARK VINA RESULT:      -7.7      1.503      2.033
REMARK  Name = 
REMARK  5 active torsions:
REMARK  status: ('A' for Active; 'I' for Inactive)
REMARK    1  A    between atoms: C_2  and  C_3
REMARK    2  A    between atoms: C_3  and  C_4
REMARK    3  A    between atoms: C_4  and  C_5
REMARK    4  A    between atoms: C_4  and  N_10
REMARK    5  A    between atoms: C_12  and  C_13
REMARK                            x       y       z     vdW  Elec       q    Type
REMARK                         _______ _______ _______ _____ _____    ______ ____
ROOT
ATOM      1  N   UNL     1       2.683   6.617  18.947  0.00  0.00    +0.000 N 
ATOM      2  C   UNL     1       2.076   6.929  20.118  0.00  0.00    +0.000 A 
ATOM      3  C   UNL     1       1.587   8.197  19.874  0.00  0.00    +0.000 A 
ATOM      4  C   UNL     1       2.030   8.536  18.578  0.00  0.00    +0.000 A 
ATOM      5  N   UNL     1       2.720   7.558  18.009  0.00  0.00    +0.000 NA
ENDROOT
BRANCH   3   6
ATOM      6  C   UNL     1       0.828   9.051  20.737  0.00  0.00    +0.000 A 
ATOM      7  N   UNL     1       0.957   8.672  22.039  0.00  0.00    +0.000 NA
ATOM      8  C   UNL     1       0.435   9.482  22.958  0.00  0.00    +0.000 A 
ATOM      9  N   UNL     1      -0.030  10.705  22.785  0.00  0.00    +0.000 NA
ATOM     10  C   UNL     1      -0.202  10.992  21.475  0.00  0.00    +0.000 A 
ATOM     11  N   UNL     1      -0.731  12.157  21.011  0.00  0.00    +0.000 N 
ATOM     12  C   UNL     1      -1.131  11.955  19.714  0.00  0.00    +0.000 A 
ATOM     13  C   UNL     1      -0.549  10.774  19.270  0.00  0.00    +0.000 A 
ATOM     14  C   UNL     1       0.098  10.178  20.394  0.00  0.00    +0.000 A 
ATOM     15  H   UNL     1      -0.935  12.940  21.597  0.00  0.00    +0.000 HD
ENDBRANCH   3   6
BRANCH   1  16
ATOM     16  C   UNL     1       3.360   5.384  18.655  0.00  0.00    +0.000 C 
BRANCH  16  17
ATOM     17  C   UNL     1       2.229   4.329  17.871  0.00  0.00    +0.000 C 
ATOM     18  C   UNL     1       1.180   3.483  18.726  0.00  0.00    +0.000 C 
ATOM     19  C   UNL     1       1.917   2.239  19.120  0.00  0.00    +0.000 C 
ATOM     20  C   UNL     1       2.763   1.935  17.899  0.00  0.00    +0.000 C 
ATOM     21  C   UNL     1       2.712   3.172  17.000  0.00  0.00    +0.000 C 
ENDBRANCH  16  17
BRANCH  16  22
ATOM     22  C   UNL     1       4.918   5.869  18.248  0.00  0.00    +0.000 C 
BRANCH  22  24
ATOM     23  N   UNL     1       7.073   5.340  19.750  0.00  0.00    +0.000 NA
ATOM     24  C   UNL     1       6.064   5.553  19.141  0.00  0.00    +0.000 C 
ENDBRANCH  22  24
ENDBRANCH  16  22
ENDBRANCH   1  16
TORSDOF 5
ENDMDL
MODEL 6
REMARK VINA RESULT:      -7.7      1.461      1.836
REMARK  Name = 
REMARK  5 active torsions:
REMARK  status: ('A' for Active; 'I' for Inactive)
REMARK    1  A    between atoms: C_2  and  C_3
REMARK    2  A    between atoms: C_3  and  C_4
REMARK    3  A    between atoms: C_4  and  C_5
REMARK    4  A    between atoms: C_4  and  N_10
REMARK    5  A    between atoms: C_12  and  C_13
REMARK                            x       y       z     vdW  Elec       q    Type
REMARK                         _______ _______ _______ _____ _____    ______ ____
ROOT
ATOM      1  N   UNL     1       2.303   7.506  19.283  0.00  0.00    +0.000 N 
ATOM      2  C   UNL     1       1.828   8.547  18.557  0.00  0.00    +0.000 A 
ATOM      3  C   UNL     1       1.109   9.262  19.493  0.00  0.00    +0.000 A 
ATOM      4  C   UNL     1       1.178   8.510  20.685  0.00  0.00    +0.000 A 
ATOM      5  N   UNL     1       1.911   7.414  20.549  0.00  0.00    +0.000 NA
ENDROOT
BRANCH   3   6
ATOM      6  C   UNL     1       0.384  10.486  19.330  0.00  0.00    +0.000 A 
ATOM      7  N   UNL     1       0.877  11.460  20.144  0.00  0.00    +0.000 NA
ATOM      8  C   UNL     1       0.400  12.692  19.970  0.00  0.00    +0.000 A 
ATOM      9  N   UNL     1      -0.356  13.131  18.982  0.00  0.00    +0.000 NA
ATOM     10  C   UNL     1      -0.871  12.113  18.257  0.00  0.00    +0.000 A 
ATOM     11  N   UNL     1      -1.740  12.275  17.222  0.00  0.00    +0.000 N 
ATOM     12  C   UNL     1      -2.358  11.071  16.993  0.00  0.00    +0.000 A 
ATOM     13  C   UNL     1      -1.635  10.090  17.661  0.00  0.00    +0.000 A 
ATOM     14  C   UNL     1      -0.639  10.758  18.436  0.00  0.00    +0.000 A 
ATOM     15  H   UNL     1      -1.982  13.166  16.842  0.00  0.00    +0.000 HD
ENDBRANCH   3   6
BRANCH   1  16
ATOM     16  C   UNL     1       3.135   6.445  18.784  0.00  0.00    +0.000 C 
BRANCH  16  17
ATOM     17  C   UNL     1       2.250   4.961  18.931  0.00  0.00    +0.000 C 
ATOM     18  C   UNL     1       2.957   3.647  19.501  0.00  0.00    +0.000 C 
ATOM     19  C   UNL     1       3.619   3.020  18.312  0.00  0.00    +0.000 C 
ATOM     20  C   UNL     1       2.635   3.279  17.188  0.00  0.00    +0.000 C 
ATOM     21  C   UNL     1       1.621   4.300  17.708  0.00  0.00    +0.000 C 
ENDBRANCH  16  17
BRANCH  16  22
ATOM     22  C   UNL     1       3.949   7.149  17.493  0.00  0.00    +0.000 C 
BRANCH  22  24
ATOM     23  N   UNL     1       5.485   5.565  15.971  0.00  0.00    +0.000 NA
ATOM     24  C   UNL     1       4.785   6.319  16.586  0.00  0.00    +0.000 C 
ENDBRANCH  22  24
ENDBRANCH  16  22
ENDBRANCH   1  16
TORSDOF 5
ENDMDL
MODEL 7
REMARK VINA RESULT:      -7.6      1.824      2.337
REMARK  Name = 
REMARK  5 active torsions:
REMARK  status: ('A' for Active; 'I' for Inactive)
REMARK    1  A    between atoms: C_2  and  C_3
REMARK    2  A    between atoms: C_3  and  C_4
REMARK    3  A    between atoms: C_4  and  C_5
REMARK    4  A    between atoms: C_4  and  N_10
REMARK    5  A    between atoms: C_12  and  C_13
REMARK                            x       y       z     vdW  Elec       q    Type
REMARK                         _______ _______ _______ _____ _____    ______ ____
ROOT
ATOM      1  N   UNL     1       2.684   6.823  18.811  0.00  0.00    +0.000 N 
ATOM      2  C   UNL     1       2.094   7.051  20.010  0.00  0.00    +0.000 A 
ATOM      3  C   UNL     1       1.536   8.301  19.836  0.00  0.00    +0.000 A 
ATOM      4  C   UNL     1       1.925   8.720  18.546  0.00  0.00    +0.000 A 
ATOM      5  N   UNL     1       2.648   7.804  17.916  0.00  0.00    +0.000 NA
ENDROOT
BRANCH   3   6
ATOM      6  C   UNL     1       0.758   9.076  20.756  0.00  0.00    +0.000 A 
ATOM      7  N   UNL     1       1.021   8.718  22.043  0.00  0.00    +0.000 NA
ATOM      8  C   UNL     1       0.488   9.474  23.002  0.00  0.00    +0.000 A 
ATOM      9  N   UNL     1      -0.113  10.641  22.867  0.00  0.00    +0.000 NA
ATOM     10  C   UNL     1      -0.409  10.904  21.575  0.00  0.00    +0.000 A 
ATOM     11  N   UNL     1      -1.089  12.005  21.155  0.00  0.00    +0.000 N 
ATOM     12  C   UNL     1      -1.561  11.758  19.890  0.00  0.00    +0.000 A 
ATOM     13  C   UNL     1      -0.894  10.641  19.401  0.00  0.00    +0.000 A 
ATOM     14  C   UNL     1      -0.108  10.120  20.472  0.00  0.00    +0.000 A 
ATOM     15  H   UNL     1      -1.329  12.766  21.757  0.00  0.00    +0.000 HD
ENDBRANCH   3   6
BRANCH   1  16
ATOM     16  C   UNL     1       3.414   5.640  18.447  0.00  0.00    +0.000 C 
BRANCH  16  17
ATOM     17  C   UNL     1       2.279   4.481  17.834  0.00  0.00    +0.000 C 
ATOM     18  C   UNL     1       1.298   3.703  18.825  0.00  0.00    +0.000 C 
ATOM     19  C   UNL     1       2.090   2.525  19.305  0.00  0.00    +0.000 C 
ATOM     20  C   UNL     1       2.885   2.118  18.081  0.00  0.00    +0.000 C 
ATOM     21  C   UNL     1       2.752   3.253  17.063  0.00  0.00    +0.000 C 
ENDBRANCH  16  17
BRANCH  16  22
ATOM     22  C   UNL     1       4.859   6.237  17.829  0.00  0.00    +0.000 C 
BRANCH  22  24
ATOM     23  N   UNL     1       5.456   6.109  15.219  0.00  0.00    +0.000 NA
ATOM     24  C   UNL     1       5.182   6.085  16.385  0.00  0.00    +0.000 C 
ENDBRANCH  22  24
ENDBRANCH  16  22
ENDBRANCH   1  16
TORSDOF 5
ENDMDL
MODEL 8
REMARK VINA RESULT:      -7.6      1.537      3.107
REMARK  Name = 
REMARK  5 active torsions:
REMARK  status: ('A' for Active; 'I' for Inactive)
REMARK    1  A    between atoms: C_2  and  C_3
REMARK    2  A    between atoms: C_3  and  C_4
REMARK    3  A    between atoms: C_4  and  C_5
REMARK    4  A    between atoms: C_4  and  N_10
REMARK    5  A    between atoms: C_12  and  C_13
REMARK                            x       y       z     vdW  Elec       q    Type
REMARK                         _______ _______ _______ _____ _____    ______ ____
ROOT
ATOM      1  N   UNL     1       2.274   7.259  18.585  0.00  0.00    +0.000 N 
ATOM      2  C   UNL     1       1.698   8.346  18.015  0.00  0.00    +0.000 A 
ATOM      3  C   UNL     1       1.323   9.095  19.112  0.00  0.00    +0.000 A 
ATOM      4  C   UNL     1       1.661   8.320  20.241  0.00  0.00    +0.000 A 
ATOM      5  N   UNL     1       2.241   7.175  19.911  0.00  0.00    +0.000 NA
ENDROOT
BRANCH   3   6
ATOM      6  C   UNL     1       0.678  10.374  19.152  0.00  0.00    +0.000 A 
ATOM      7  N   UNL     1       1.352  11.238  19.960  0.00  0.00    +0.000 NA
ATOM      8  C   UNL     1       0.950  12.508  19.954  0.00  0.00    +0.000 A 
ATOM      9  N   UNL     1       0.100  13.081  19.123  0.00  0.00    +0.000 NA
ATOM     10  C   UNL     1      -0.586  12.166  18.403  0.00  0.00    +0.000 A 
ATOM     11  N   UNL     1      -1.575  12.474  17.519  0.00  0.00    +0.000 N 
ATOM     12  C   UNL     1      -2.308  11.337  17.288  0.00  0.00    +0.000 A 
ATOM     13  C   UNL     1      -1.577  10.257  17.766  0.00  0.00    +0.000 A 
ATOM     14  C   UNL     1      -0.436  10.788  18.439  0.00  0.00    +0.000 A 
ATOM     15  H   UNL     1      -1.799  13.409  17.249  0.00  0.00    +0.000 HD
ENDBRANCH   3   6
BRANCH   1  16
ATOM     16  C   UNL     1       2.851   6.148  17.879  0.00  0.00    +0.000 C 
BRANCH  16  17
ATOM     17  C   UNL     1       4.535   6.486  17.642  0.00  0.00    +0.000 C 
ATOM     18  C   UNL     1       5.148   6.564  16.170  0.00  0.00    +0.000 C 
ATOM     19  C   UNL     1       5.484   5.148  15.816  0.00  0.00    +0.000 C 
ATOM     20  C   UNL     1       5.975   4.568  17.128  0.00  0.00    +0.000 C 
ATOM     21  C   UNL     1       5.607   5.569  18.224  0.00  0.00    +0.000 C 
ENDBRANCH  16  17
BRANCH  16  22
ATOM     22  C   UNL     1       2.047   4.813  18.508  0.00  0.00    +0.000 C 
BRANCH  22  24
ATOM     23  N   UNL     1       2.265   2.347  17.480  0.00  0.00    +0.000 NA
ATOM     24  C   UNL     1       2.242   3.465  17.912  0.00  0.00    +0.000 C 
ENDBRANCH  22  24
ENDBRANCH  16  22
ENDBRANCH   1  16
TORSDOF 5
ENDMDL
MODEL 9
REMARK VINA RESULT:      -7.5      2.002      7.431
REMARK  Name = 
REMARK  5 active torsions:
REMARK  status: ('A' for Active; 'I' for Inactive)
REMARK    1  A    between atoms: C_2  and  C_3
REMARK    2  A    between atoms: C_3  and  C_4
REMARK    3  A    between atoms: C_4  and  C_5
REMARK    4  A    between atoms: C_4  and  N_10
REMARK    5  A    between atoms: C_12  and  C_13
REMARK                            x       y       z     vdW  Elec       q    Type
REMARK                         _______ _______ _______ _____ _____    ______ ____
ROOT
ATOM      1  N   UNL     1       1.735   8.635  19.275  0.00  0.00    +0.000 N 
ATOM      2  C   UNL     1       1.976   7.404  19.789  0.00  0.00    +0.000 A 
ATOM      3  C   UNL     1       2.785   6.832  18.828  0.00  0.00    +0.000 A 
ATOM      4  C   UNL     1       2.879   7.782  17.790  0.00  0.00    +0.000 A 
ATOM      5  N   UNL     1       2.217   8.897  18.065  0.00  0.00    +0.000 NA
ENDROOT
BRANCH   3   6
ATOM      6  C   UNL     1       3.386   5.532  18.814  0.00  0.00    +0.000 A 
ATOM      7  N   UNL     1       4.732   5.612  19.001  0.00  0.00    +0.000 NA
ATOM      8  C   UNL     1       5.388   4.465  19.174  0.00  0.00    +0.000 A 
ATOM      9  N   UNL     1       4.875   3.266  19.375  0.00  0.00    +0.000 NA
ATOM     10  C   UNL     1       3.551   3.238  19.104  0.00  0.00    +0.000 A 
ATOM     11  N   UNL     1       2.783   2.116  19.160  0.00  0.00    +0.000 N 
ATOM     12  C   UNL     1       1.632   2.352  18.451  0.00  0.00    +0.000 A 
ATOM     13  C   UNL     1       1.539   3.722  18.238  0.00  0.00    +0.000 A 
ATOM     14  C   UNL     1       2.755   4.303  18.709  0.00  0.00    +0.000 A 
ATOM     15  H   UNL     1       3.112   1.241  19.514  0.00  0.00    +0.000 HD
ENDBRANCH   3   6
BRANCH   1  16
ATOM     16  C   UNL     1       0.937   9.660  19.891  0.00  0.00    +0.000 C 
BRANCH  16  17
ATOM     17  C   UNL     1       0.191  10.584  18.628  0.00  0.00    +0.000 C 
ATOM     18  C   UNL     1       0.078  12.173  18.742  0.00  0.00    +0.000 C 
ATOM     19  C   UNL     1      -1.176  12.415  19.525  0.00  0.00    +0.000 C 
ATOM     20  C   UNL     1      -2.111  11.329  19.029  0.00  0.00    +0.000 C 
ATOM     21  C   UNL     1      -1.261  10.338  18.231  0.00  0.00    +0.000 C 
ENDBRANCH  16  17
BRANCH  16  22
ATOM     22  C   UNL     1       0.311   8.911  21.260  0.00  0.00    +0.000 C 
BRANCH  22  24
ATOM     23  N   UNL     1      -0.396  10.478  23.316  0.00  0.00    +0.000 NA
ATOM     24  C   UNL     1      -0.127   9.720  22.428  0.00  0.00    +0.000 C 
ENDBRANCH  22  24
ENDBRANCH  16  22
ENDBRANCH   1  16
TORSDOF 5
ENDMDL
