MODEL 1
REMARK VINA RESULT:      -9.1      0.000      0.000
REMARK  Name = 
REMARK  6 active torsions:
REMARK  status: ('A' for Active; 'I' for Inactive)
REMARK    1  A    between atoms: C_1  and  C_2
REMARK    2  A    between atoms: C_4  and  C_5
REMARK    3  A    between atoms: C_16  and  C_17
REMARK    4  A    between atoms: C_20  and  C_21
REMARK    5  A    between atoms: C_24  and  C_25
REMARK    6  A    between atoms: N_36  and  C_37
REMARK                            x       y       z     vdW  Elec       q    Type
REMARK                         _______ _______ _______ _____ _____    ______ ____
ROOT
ATOM      1  C   UNL     1       0.921   9.344  20.908  0.00  0.00    +0.000 A 
ATOM      2  N   UNL     1       1.218   9.600  22.171  0.00  0.00    +0.000 NA
ATOM      3  N   UNL     1       0.220  10.368  22.731  0.00  0.00    +0.000 NA
ATOM      4  C   UNL     1      -0.685  10.626  21.809  0.00  0.00    +0.000 A 
ATOM      5  N   UNL     1      -0.305   9.938  20.658  0.00  0.00    +0.000 N 
ATOM      6  C   UNL     1      -1.066   9.802  19.438  0.00  0.00    +0.000 C 
ENDROOT
BRANCH   1  13
ATOM      7  C   UNL     1       1.827  10.421  18.264  0.00  0.00    +0.000 C 
ATOM      8  C   UNL     1       2.183   9.034  18.737  0.00  0.00    +0.000 A 
ATOM      9  C   UNL     1       2.979   8.231  17.883  0.00  0.00    +0.000 A 
ATOM     10  C   UNL     1       3.370   6.922  18.219  0.00  0.00    +0.000 A 
ATOM     11  C   UNL     1       2.901   6.413  19.435  0.00  0.00    +0.000 A 
ATOM     12  C   UNL     1       2.074   7.188  20.272  0.00  0.00    +0.000 A 
ATOM     13  C   UNL     1       1.732   8.518  19.970  0.00  0.00    +0.000 A 
BRANCH  10  14
ATOM     14  C   UNL     1       4.267   6.138  17.333  0.00  0.00    +0.000 C 
ATOM     15  C   UNL     1       3.981   4.883  16.942  0.00  0.00    +0.000 C 
ATOM     16  C   UNL     1       4.824   4.044  16.017  0.00  0.00    +0.000 C 
ATOM     17  N   UNL     1       5.918   4.811  15.420  0.00  0.00    +0.000 N 
ATOM     18  C   UNL     1       6.555   4.369  14.295  0.00  0.00    +0.000 C 
ATOM     19  N   UNL     1       6.315   3.307  13.609  0.00  0.00    +0.000 NA
ATOM     20  N   UNL     1       7.529   5.169  13.818  0.00  0.00    +0.000 N 
ATOM     21  C   UNL     1       6.565   5.731  16.367  0.00  0.00    +0.000 C 
ATOM     22  C   UNL     1       5.550   6.778  16.842  0.00  0.00    +0.000 C 
ATOM     23  H   UNL     1       5.560   2.769  14.029  0.00  0.00    +0.000 HD
ATOM     24  H   UNL     1       7.230   6.131  13.740  0.00  0.00    +0.000 HD
ATOM     25  H   UNL     1       7.812   4.818  12.912  0.00  0.00    +0.000 HD
ENDBRANCH  10  14
ENDBRANCH   1  13
BRANCH   4  26
ATOM     26  C   UNL     1      -1.814  11.568  21.953  0.00  0.00    +0.000 A 
ATOM     27  C   UNL     1      -2.275  12.223  20.824  0.00  0.00    +0.000 A 
ATOM     28  C   UNL     1      -3.301  13.157  20.915  0.00  0.00    +0.000 A 
ATOM     29  C   UNL     1      -4.014  13.453  22.103  0.00  0.00    +0.000 A 
ATOM     30  C   UNL     1      -3.499  12.865  23.263  0.00  0.00    +0.000 A 
ATOM     31  C   UNL     1      -2.404  11.938  23.183  0.00  0.00    +0.000 A 
BRANCH  29  32
ATOM     32  C   UNL     1      -5.231  14.319  21.927  0.00  0.00    +0.000 C 
ATOM     33  C   UNL     1      -5.330  15.286  22.859  0.00  0.00    +0.000 C 
ATOM     34  C   UNL     1      -6.563  16.033  23.145  0.00  0.00    +0.000 C 
ATOM     35  N   UNL     1      -7.051  16.569  21.901  0.00  0.00    +0.000 N 
ATOM     36  C   UNL     1      -7.120  17.932  21.768  0.00  0.00    +0.000 C 
ATOM     37  N   UNL     1      -7.118  18.631  20.692  0.00  0.00    +0.000 NA
ATOM     38  N   UNL     1      -7.136  18.628  22.929  0.00  0.00    +0.000 N 
ATOM     39  C   UNL     1      -7.279  15.559  20.837  0.00  0.00    +0.000 C 
ATOM     40  C   UNL     1      -6.353  14.262  20.907  0.00  0.00    +0.000 C 
ATOM     41  H   UNL     1      -7.032  18.015  19.887  0.00  0.00    +0.000 HD
ATOM     42  H   UNL     1      -7.892  18.372  23.552  0.00  0.00    +0.000 HD
ATOM     43  H   UNL     1      -7.135  19.628  22.754  0.00  0.00    +0.000 HD
ENDBRANCH  29  32
ENDBRANCH   4  26
TORSDOF 4
ENDMDL
MODEL 2
REMARK VINA RESULT:      -8.8      1.354     13.479
REMARK  Name = 
REMARK  6 active torsions:
REMARK  status: ('A' for Active; 'I' for Inactive)
REMARK    1  A    between atoms: C_1  and  C_2
REMARK    2  A    between atoms: C_4  and  C_5
REMARK    3  A    between atoms: C_16  and  C_17
REMARK    4  A    between atoms: C_20  and  C_21
REMARK    5  A    between atoms: C_24  and  C_25
REMARK    6  A    between atoms: N_36  and  C_37
REMARK                            x       y       z     vdW  Elec       q    Type
REMARK                         _______ _______ _______ _____ _____    ______ ____
ROOT
ATOM      1  C   UNL     1      -0.338  10.904  22.159  0.00  0.00    +0.000 A 
ATOM      2  N   UNL     1       0.158  10.265  23.205  0.00  0.00    +0.000 NA
ATOM      3  N   UNL     1       0.997   9.260  22.775  0.00  0.00    +0.000 NA
ATOM      4  C   UNL     1       0.997   9.243  21.457  0.00  0.00    +0.000 A 
ATOM      5  N   UNL     1       0.213  10.314  21.033  0.00  0.00    +0.000 N 
ATOM      6  C   UNL     1       0.042  10.780  19.677  0.00  0.00    +0.000 C 
ENDROOT
BRANCH   1  13
ATOM      7  C   UNL     1       0.641  13.686  21.633  0.00  0.00    +0.000 C 
ATOM      8  C   UNL     1      -0.806  13.381  21.930  0.00  0.00    +0.000 A 
ATOM      9  C   UNL     1      -1.718  14.465  21.952  0.00  0.00    +0.000 A 
ATOM     10  C   UNL     1      -3.089  14.299  22.220  0.00  0.00    +0.000 A 
ATOM     11  C   UNL     1      -3.525  13.001  22.511  0.00  0.00    +0.000 A 
ATOM     12  C   UNL     1      -2.619  11.922  22.533  0.00  0.00    +0.000 A 
ATOM     13  C   UNL     1      -1.259  12.073  22.205  0.00  0.00    +0.000 A 
BRANCH  10  14
ATOM     14  C   UNL     1      -4.027  15.448  22.160  0.00  0.00    +0.000 C 
ATOM     15  C   UNL     1      -4.471  15.960  20.998  0.00  0.00    +0.000 C 
ATOM     16  C   UNL     1      -5.449  17.098  20.864  0.00  0.00    +0.000 C 
ATOM     17  N   UNL     1      -6.030  17.481  22.151  0.00  0.00    +0.000 N 
ATOM     18  C   UNL     1      -7.186  18.206  22.213  0.00  0.00    +0.000 C 
ATOM     19  N   UNL     1      -7.917  18.626  21.240  0.00  0.00    +0.000 NA
ATOM     20  N   UNL     1      -7.644  18.479  23.451  0.00  0.00    +0.000 N 
ATOM     21  C   UNL     1      -5.054  17.482  23.250  0.00  0.00    +0.000 C 
ATOM     22  C   UNL     1      -4.511  16.062  23.458  0.00  0.00    +0.000 C 
ATOM     23  H   UNL     1      -7.508  18.367  20.345  0.00  0.00    +0.000 HD
ATOM     24  H   UNL     1      -7.672  17.656  24.038  0.00  0.00    +0.000 HD
ATOM     25  H   UNL     1      -8.571  18.877  23.366  0.00  0.00    +0.000 HD
ENDBRANCH  10  14
ENDBRANCH   1  13
BRANCH   4  26
ATOM     26  C   UNL     1       1.618   8.202  20.612  0.00  0.00    +0.000 A 
ATOM     27  C   UNL     1       2.065   8.556  19.350  0.00  0.00    +0.000 A 
ATOM     28  C   UNL     1       2.609   7.603  18.497  0.00  0.00    +0.000 A 
ATOM     29  C   UNL     1       2.843   6.250  18.850  0.00  0.00    +0.000 A 
ATOM     30  C   UNL     1       2.316   5.863  20.086  0.00  0.00    +0.000 A 
ATOM     31  C   UNL     1       1.703   6.833  20.951  0.00  0.00    +0.000 A 
BRANCH  29  32
ATOM     32  C   UNL     1       3.651   5.457  17.860  0.00  0.00    +0.000 C 
ATOM     33  C   UNL     1       4.357   6.231  17.014  0.00  0.00    +0.000 C 
ATOM     34  C   UNL     1       4.937   5.755  15.750  0.00  0.00    +0.000 C 
ATOM     35  N   UNL     1       5.726   4.586  16.039  0.00  0.00    +0.000 N 
ATOM     36  C   UNL     1       7.074   4.640  15.795  0.00  0.00    +0.000 C 
ATOM     37  N   UNL     1       8.010   3.937  16.321  0.00  0.00    +0.000 NA
ATOM     38  N   UNL     1       7.468   5.600  14.926  0.00  0.00    +0.000 N 
ATOM     39  C   UNL     1       4.989   3.496  16.727  0.00  0.00    +0.000 C 
ATOM     40  C   UNL     1       3.773   3.959  17.649  0.00  0.00    +0.000 C 
ATOM     41  H   UNL     1       7.612   3.301  17.008  0.00  0.00    +0.000 HD
ATOM     42  H   UNL     1       7.025   5.540  14.018  0.00  0.00    +0.000 HD
ATOM     43  H   UNL     1       8.480   5.614  14.834  0.00  0.00    +0.000 HD
ENDBRANCH  29  32
ENDBRANCH   4  26
TORSDOF 4
ENDMDL
MODEL 3
REMARK VINA RESULT:      -8.7      0.978      1.228
REMARK  Name = 
REMARK  6 active torsions:
REMARK  status: ('A' for Active; 'I' for Inactive)
REMARK    1  A    between atoms: C_1  and  C_2
REMARK    2  A    between atoms: C_4  and  C_5
REMARK    3  A    between atoms: C_16  and  C_17
REMARK    4  A    between atoms: C_20  and  C_21
REMARK    5  A    between atoms: C_24  and  C_25
REMARK    6  A    between atoms: N_36  and  C_37
REMARK                            x       y       z     vdW  Elec       q    Type
REMARK                         _______ _______ _______ _____ _____    ______ ____
ROOT
ATOM      1  C   UNL     1       0.737   9.263  21.303  0.00  0.00    +0.000 A 
ATOM      2  N   UNL     1       0.913   9.296  22.613  0.00  0.00    +0.000 NA
ATOM      3  N   UNL     1      -0.012  10.144  23.180  0.00  0.00    +0.000 NA
ATOM      4  C   UNL     1      -0.744  10.675  22.222  0.00  0.00    +0.000 A 
ATOM      5  N   UNL     1      -0.339  10.090  21.024  0.00  0.00    +0.000 N 
ATOM      6  C   UNL     1      -0.956  10.251  19.728  0.00  0.00    +0.000 C 
ENDROOT
BRANCH   1  13
ATOM      7  C   UNL     1       1.635  10.378  18.671  0.00  0.00    +0.000 C 
ATOM      8  C   UNL     1       1.964   8.972  19.109  0.00  0.00    +0.000 A 
ATOM      9  C   UNL     1       2.731   8.171  18.227  0.00  0.00    +0.000 A 
ATOM     10  C   UNL     1       3.095   6.846  18.529  0.00  0.00    +0.000 A 
ATOM     11  C   UNL     1       2.630   6.321  19.740  0.00  0.00    +0.000 A 
ATOM     12  C   UNL     1       1.831   7.096  20.605  0.00  0.00    +0.000 A 
ATOM     13  C   UNL     1       1.517   8.441  20.336  0.00  0.00    +0.000 A 
BRANCH  10  14
ATOM     14  C   UNL     1       3.962   6.061  17.615  0.00  0.00    +0.000 C 
ATOM     15  C   UNL     1       3.670   4.801  17.244  0.00  0.00    +0.000 C 
ATOM     16  C   UNL     1       4.483   3.961  16.293  0.00  0.00    +0.000 C 
ATOM     17  N   UNL     1       5.547   4.731  15.649  0.00  0.00    +0.000 N 
ATOM     18  C   UNL     1       6.142   4.285  14.503  0.00  0.00    +0.000 C 
ATOM     19  N   UNL     1       5.883   3.216  13.834  0.00  0.00    +0.000 NA
ATOM     20  N   UNL     1       7.091   5.088  13.982  0.00  0.00    +0.000 N 
ATOM     21  C   UNL     1       6.224   5.662  16.563  0.00  0.00    +0.000 C 
ATOM     22  C   UNL     1       5.220   6.706  17.070  0.00  0.00    +0.000 C 
ATOM     23  H   UNL     1       5.149   2.677  14.287  0.00  0.00    +0.000 HD
ATOM     24  H   UNL     1       6.782   6.047  13.909  0.00  0.00    +0.000 HD
ATOM     25  H   UNL     1       7.341   4.731  13.068  0.00  0.00    +0.000 HD
ENDBRANCH  10  14
ENDBRANCH   1  13
BRANCH   4  26
ATOM     26  C   UNL     1      -1.719  11.773  22.393  0.00  0.00    +0.000 A 
ATOM     27  C   UNL     1      -1.624  12.876  21.563  0.00  0.00    +0.000 A 
ATOM     28  C   UNL     1      -2.484  13.957  21.718  0.00  0.00    +0.000 A 
ATOM     29  C   UNL     1      -3.563  14.000  22.636  0.00  0.00    +0.000 A 
ATOM     30  C   UNL     1      -3.613  12.931  23.538  0.00  0.00    +0.000 A 
ATOM     31  C   UNL     1      -2.692  11.835  23.417  0.00  0.00    +0.000 A 
BRANCH  29  32
ATOM     32  C   UNL     1      -4.502  15.163  22.475  0.00  0.00    +0.000 C 
ATOM     33  C   UNL     1      -4.115  16.024  21.514  0.00  0.00    +0.000 C 
ATOM     34  C   UNL     1      -4.625  17.396  21.381  0.00  0.00    +0.000 C 
ATOM     35  N   UNL     1      -6.063  17.331  21.360  0.00  0.00    +0.000 N 
ATOM     36  C   UNL     1      -6.712  17.756  20.231  0.00  0.00    +0.000 C 
ATOM     37  N   UNL     1      -7.883  17.435  19.813  0.00  0.00    +0.000 NA
ATOM     38  N   UNL     1      -5.999  18.578  19.425  0.00  0.00    +0.000 N 
ATOM     39  C   UNL     1      -6.669  16.652  22.533  0.00  0.00    +0.000 C 
ATOM     40  C   UNL     1      -5.771  15.529  23.222  0.00  0.00    +0.000 C 
ATOM     41  H   UNL     1      -8.298  16.762  20.451  0.00  0.00    +0.000 HD
ATOM     42  H   UNL     1      -5.666  19.416  19.886  0.00  0.00    +0.000 HD
ATOM     43  H   UNL     1      -6.522  18.810  18.586  0.00  0.00    +0.000 HD
ENDBRANCH  29  32
ENDBRANCH   4  26
TORSDOF 4
ENDMDL
MODEL 4
REMARK VINA RESULT:      -8.4      1.342     13.564
REMARK  Name = 
REMARK  6 active torsions:
REMARK  status: ('A' for Active; 'I' for Inactive)
REMARK    1  A    between atoms: C_1  and  C_2
REMARK    2  A    between atoms: C_4  and  C_5
REMARK    3  A    between atoms: C_16  and  C_17
REMARK    4  A    between atoms: C_20  and  C_21
REMARK    5  A    between atoms: C_24  and  C_25
REMARK    6  A    between atoms: N_36  and  C_37
REMARK                            x       y       z     vdW  Elec       q    Type
REMARK                         _______ _______ _______ _____ _____    ______ ____
ROOT
ATOM      1  C   UNL     1       0.064   9.728  20.725  0.00  0.00    +0.000 A 
ATOM      2  N   UNL     1       0.059   8.736  21.599  0.00  0.00    +0.000 NA
ATOM      3  N   UNL     1       0.983   7.786  21.222  0.00  0.00    +0.000 NA
ATOM      4  C   UNL     1       1.541   8.164  20.090  0.00  0.00    +0.000 A 
ATOM      5  N   UNL     1       1.029   9.422  19.779  0.00  0.00    +0.000 N 
ATOM      6  C   UNL     1       1.457  10.293  18.710  0.00  0.00    +0.000 C 
ENDROOT
BRANCH   1  13
ATOM      7  C   UNL     1      -1.892  10.418  18.563  0.00  0.00    +0.000 C 
ATOM      8  C   UNL     1      -1.711  11.273  19.794  0.00  0.00    +0.000 A 
ATOM      9  C   UNL     1      -2.510  12.437  19.910  0.00  0.00    +0.000 A 
ATOM     10  C   UNL     1      -2.426  13.308  21.012  0.00  0.00    +0.000 A 
ATOM     11  C   UNL     1      -1.475  13.000  21.991  0.00  0.00    +0.000 A 
ATOM     12  C   UNL     1      -0.647  11.868  21.864  0.00  0.00    +0.000 A 
ATOM     13  C   UNL     1      -0.770  10.961  20.797  0.00  0.00    +0.000 A 
BRANCH  10  14
ATOM     14  C   UNL     1      -3.332  14.477  21.136  0.00  0.00    +0.000 C 
ATOM     15  C   UNL     1      -2.976  15.713  20.740  0.00  0.00    +0.000 C 
ATOM     16  C   UNL     1      -3.856  16.935  20.802  0.00  0.00    +0.000 C 
ATOM     17  N   UNL     1      -5.233  16.606  21.169  0.00  0.00    +0.000 N 
ATOM     18  C   UNL     1      -6.255  17.478  20.920  0.00  0.00    +0.000 C 
ATOM     19  N   UNL     1      -6.198  18.630  20.349  0.00  0.00    +0.000 NA
ATOM     20  N   UNL     1      -7.485  17.059  21.276  0.00  0.00    +0.000 N 
ATOM     21  C   UNL     1      -5.323  15.586  22.225  0.00  0.00    +0.000 C 
ATOM     22  C   UNL     1      -4.714  14.271  21.722  0.00  0.00    +0.000 C 
ATOM     23  H   UNL     1      -5.239  18.862  20.102  0.00  0.00    +0.000 HD
ATOM     24  H   UNL     1      -7.683  16.126  20.942  0.00  0.00    +0.000 HD
ATOM     25  H   UNL     1      -8.163  17.713  20.904  0.00  0.00    +0.000 HD
ENDBRANCH  10  14
ENDBRANCH   1  13
BRANCH   4  26
ATOM     26  C   UNL     1       2.443   7.339  19.260  0.00  0.00    +0.000 A 
ATOM     27  C   UNL     1       3.059   7.927  18.168  0.00  0.00    +0.000 A 
ATOM     28  C   UNL     1       3.875   7.180  17.327  0.00  0.00    +0.000 A 
ATOM     29  C   UNL     1       4.226   5.825  17.543  0.00  0.00    +0.000 A 
ATOM     30  C   UNL     1       3.542   5.198  18.590  0.00  0.00    +0.000 A 
ATOM     31  C   UNL     1       2.654   5.952  19.432  0.00  0.00    +0.000 A 
BRANCH  29  32
ATOM     32  C   UNL     1       5.302   5.285  16.642  0.00  0.00    +0.000 C 
ATOM     33  C   UNL     1       4.879   4.269  15.865  0.00  0.00    +0.000 C 
ATOM     34  C   UNL     1       5.774   3.336  15.167  0.00  0.00    +0.000 C 
ATOM     35  N   UNL     1       6.711   4.115  14.400  0.00  0.00    +0.000 N 
ATOM     36  C   UNL     1       6.697   3.982  13.036  0.00  0.00    +0.000 C 
ATOM     37  N   UNL     1       7.108   4.813  12.148  0.00  0.00    +0.000 NA
ATOM     38  N   UNL     1       6.124   2.847  12.569  0.00  0.00    +0.000 N 
ATOM     39  C   UNL     1       7.488   5.103  15.190  0.00  0.00    +0.000 C 
ATOM     40  C   UNL     1       6.761   5.673  16.490  0.00  0.00    +0.000 C 
ATOM     41  H   UNL     1       7.451   5.654  12.603  0.00  0.00    +0.000 HD
ATOM     42  H   UNL     1       6.544   1.998  12.926  0.00  0.00    +0.000 HD
ATOM     43  H   UNL     1       6.104   2.841  11.554  0.00  0.00    +0.000 HD
ENDBRANCH  29  32
ENDBRANCH   4  26
TORSDOF 4
ENDMDL
MODEL 5
REMARK VINA RESULT:      -8.4      1.436     13.596
REMARK  Name = 
REMARK  6 active torsions:
REMARK  status: ('A' for Active; 'I' for Inactive)
REMARK    1  A    between atoms: C_1  and  C_2
REMARK    2  A    between atoms: C_4  and  C_5
REMARK    3  A    between atoms: C_16  and  C_17
REMARK    4  A    between atoms: C_20  and  C_21
REMARK    5  A    between atoms: C_24  and  C_25
REMARK    6  A    between atoms: N_36  and  C_37
REMARK                            x       y       z     vdW  Elec       q    Type
REMARK                         _______ _______ _______ _____ _____    ______ ____
ROOT
ATOM      1  C   UNL     1       0.083   9.727  20.689  0.00  0.00    +0.000 A 
ATOM      2  N   UNL     1       0.049   8.717  21.541  0.00  0.00    +0.000 NA
ATOM      3  N   UNL     1       0.965   7.761  21.159  0.00  0.00    +0.000 NA
ATOM      4  C   UNL     1       1.546   8.153  20.043  0.00  0.00    +0.000 A 
ATOM      5  N   UNL     1       1.058   9.425  19.752  0.00  0.00    +0.000 N 
ATOM      6  C   UNL     1       1.517  10.311  18.707  0.00  0.00    +0.000 C 
ENDROOT
BRANCH   1  13
ATOM      7  C   UNL     1      -1.918  10.428  18.572  0.00  0.00    +0.000 C 
ATOM      8  C   UNL     1      -1.695  11.288  19.792  0.00  0.00    +0.000 A 
ATOM      9  C   UNL     1      -2.476  12.463  19.921  0.00  0.00    +0.000 A 
ATOM     10  C   UNL     1      -2.353  13.340  21.014  0.00  0.00    +0.000 A 
ATOM     11  C   UNL     1      -1.382  13.026  21.972  0.00  0.00    +0.000 A 
ATOM     12  C   UNL     1      -0.571  11.882  21.831  0.00  0.00    +0.000 A 
ATOM     13  C   UNL     1      -0.733  10.970  20.773  0.00  0.00    +0.000 A 
BRANCH  10  14
ATOM     14  C   UNL     1      -3.240  14.522  21.153  0.00  0.00    +0.000 C 
ATOM     15  C   UNL     1      -4.522  14.516  20.745  0.00  0.00    +0.000 C 
ATOM     16  C   UNL     1      -5.488  15.664  20.889  0.00  0.00    +0.000 C 
ATOM     17  N   UNL     1      -4.939  16.748  21.703  0.00  0.00    +0.000 N 
ATOM     18  C   UNL     1      -5.755  17.689  22.264  0.00  0.00    +0.000 C 
ATOM     19  N   UNL     1      -7.038  17.770  22.202  0.00  0.00    +0.000 NA
ATOM     20  N   UNL     1      -5.144  18.626  23.016  0.00  0.00    +0.000 N 
ATOM     21  C   UNL     1      -3.519  17.017  21.430  0.00  0.00    +0.000 C 
ATOM     22  C   UNL     1      -2.684  15.781  21.787  0.00  0.00    +0.000 C 
ATOM     23  H   UNL     1      -7.419  17.021  21.629  0.00  0.00    +0.000 HD
ATOM     24  H   UNL     1      -4.504  18.221  23.685  0.00  0.00    +0.000 HD
ATOM     25  H   UNL     1      -5.856  19.161  23.496  0.00  0.00    +0.000 HD
ENDBRANCH  10  14
ENDBRANCH   1  13
BRANCH   4  26
ATOM     26  C   UNL     1       2.449   7.331  19.210  0.00  0.00    +0.000 A 
ATOM     27  C   UNL     1       3.120   7.941  18.165  0.00  0.00    +0.000 A 
ATOM     28  C   UNL     1       3.940   7.201  17.321  0.00  0.00    +0.000 A 
ATOM     29  C   UNL     1       4.239   5.826  17.493  0.00  0.00    +0.000 A 
ATOM     30  C   UNL     1       3.499   5.182  18.491  0.00  0.00    +0.000 A 
ATOM     31  C   UNL     1       2.608   5.932  19.333  0.00  0.00    +0.000 A 
BRANCH  29  32
ATOM     32  C   UNL     1       5.326   5.286  16.606  0.00  0.00    +0.000 C 
ATOM     33  C   UNL     1       4.915   4.266  15.829  0.00  0.00    +0.000 C 
ATOM     34  C   UNL     1       5.822   3.334  15.144  0.00  0.00    +0.000 C 
ATOM     35  N   UNL     1       6.765   4.113  14.385  0.00  0.00    +0.000 N 
ATOM     36  C   UNL     1       6.767   3.975  13.022  0.00  0.00    +0.000 C 
ATOM     37  N   UNL     1       7.186   4.804  12.136  0.00  0.00    +0.000 NA
ATOM     38  N   UNL     1       6.203   2.837  12.552  0.00  0.00    +0.000 N 
ATOM     39  C   UNL     1       7.529   5.106  15.181  0.00  0.00    +0.000 C 
ATOM     40  C   UNL     1       6.786   5.679  16.470  0.00  0.00    +0.000 C 
ATOM     41  H   UNL     1       7.521   5.648  12.592  0.00  0.00    +0.000 HD
ATOM     42  H   UNL     1       6.621   1.990  12.917  0.00  0.00    +0.000 HD
ATOM     43  H   UNL     1       6.194   2.827  11.537  0.00  0.00    +0.000 HD
ENDBRANCH  29  32
ENDBRANCH   4  26
TORSDOF 4
ENDMDL
MODEL 6
REMARK VINA RESULT:      -8.3      1.587     13.506
REMARK  Name = 
REMARK  6 active torsions:
REMARK  status: ('A' for Active; 'I' for Inactive)
REMARK    1  A    between atoms: C_1  and  C_2
REMARK    2  A    between atoms: C_4  and  C_5
REMARK    3  A    between atoms: C_16  and  C_17
REMARK    4  A    between atoms: C_20  and  C_21
REMARK    5  A    between atoms: C_24  and  C_25
REMARK    6  A    between atoms: N_36  and  C_37
REMARK                            x       y       z     vdW  Elec       q    Type
REMARK                         _______ _______ _______ _____ _____    ______ ____
ROOT
ATOM      1  C   UNL     1      -0.236   9.513  21.244  0.00  0.00    +0.000 A 
ATOM      2  N   UNL     1      -0.656   8.375  21.770  0.00  0.00    +0.000 NA
ATOM      3  N   UNL     1       0.218   7.364  21.436  0.00  0.00    +0.000 NA
ATOM      4  C   UNL     1       1.167   7.860  20.668  0.00  0.00    +0.000 A 
ATOM      5  N   UNL     1       0.946   9.233  20.579  0.00  0.00    +0.000 N 
ATOM      6  C   UNL     1       1.813  10.212  19.965  0.00  0.00    +0.000 C 
ENDROOT
BRANCH   1  13
ATOM      7  C   UNL     1      -1.579  10.878  18.940  0.00  0.00    +0.000 C 
ATOM      8  C   UNL     1      -1.546  11.474  20.326  0.00  0.00    +0.000 A 
ATOM      9  C   UNL     1      -2.183  12.724  20.521  0.00  0.00    +0.000 A 
ATOM     10  C   UNL     1      -2.214  13.375  21.768  0.00  0.00    +0.000 A 
ATOM     11  C   UNL     1      -1.542  12.750  22.825  0.00  0.00    +0.000 A 
ATOM     12  C   UNL     1      -0.869  11.527  22.631  0.00  0.00    +0.000 A 
ATOM     13  C   UNL     1      -0.889  10.843  21.403  0.00  0.00    +0.000 A 
BRANCH  10  14
ATOM     14  C   UNL     1      -2.955  14.647  21.952  0.00  0.00    +0.000 C 
ATOM     15  C   UNL     1      -3.103  15.548  20.963  0.00  0.00    +0.000 C 
ATOM     16  C   UNL     1      -3.872  16.840  21.068  0.00  0.00    +0.000 C 
ATOM     17  N   UNL     1      -4.619  16.936  22.322  0.00  0.00    +0.000 N 
ATOM     18  C   UNL     1      -5.655  17.817  22.457  0.00  0.00    +0.000 C 
ATOM     19  N   UNL     1      -6.129  18.631  21.580  0.00  0.00    +0.000 NA
ATOM     20  N   UNL     1      -6.289  17.802  23.647  0.00  0.00    +0.000 N 
ATOM     21  C   UNL     1      -3.870  16.435  23.484  0.00  0.00    +0.000 C 
ATOM     22  C   UNL     1      -3.579  14.940  23.301  0.00  0.00    +0.000 C 
ATOM     23  H   UNL     1      -5.603  18.570  20.711  0.00  0.00    +0.000 HD
ATOM     24  H   UNL     1      -6.538  16.866  23.935  0.00  0.00    +0.000 HD
ATOM     25  H   UNL     1      -7.120  18.375  23.571  0.00  0.00    +0.000 HD
ENDBRANCH  10  14
ENDBRANCH   1  13
BRANCH   4  26
ATOM     26  C   UNL     1       2.188   7.072  19.947  0.00  0.00    +0.000 A 
ATOM     27  C   UNL     1       2.538   7.460  18.665  0.00  0.00    +0.000 A 
ATOM     28  C   UNL     1       3.456   6.722  17.927  0.00  0.00    +0.000 A 
ATOM     29  C   UNL     1       4.170   5.602  18.421  0.00  0.00    +0.000 A 
ATOM     30  C   UNL     1       3.760   5.150  19.679  0.00  0.00    +0.000 A 
ATOM     31  C   UNL     1       2.772   5.877  20.427  0.00  0.00    +0.000 A 
BRANCH  29  32
ATOM     32  C   UNL     1       5.277   5.101  17.535  0.00  0.00    +0.000 C 
ATOM     33  C   UNL     1       4.829   4.547  16.392  0.00  0.00    +0.000 C 
ATOM     34  C   UNL     1       5.634   3.676  15.526  0.00  0.00    +0.000 C 
ATOM     35  N   UNL     1       6.863   4.364  15.228  0.00  0.00    +0.000 N 
ATOM     36  C   UNL     1       7.125   4.684  13.922  0.00  0.00    +0.000 C 
ATOM     37  N   UNL     1       7.891   5.605  13.462  0.00  0.00    +0.000 NA
ATOM     38  N   UNL     1       6.439   3.966  13.000  0.00  0.00    +0.000 N 
ATOM     39  C   UNL     1       7.639   4.789  16.420  0.00  0.00    +0.000 C 
ATOM     40  C   UNL     1       6.782   5.093  17.731  0.00  0.00    +0.000 C 
ATOM     41  H   UNL     1       8.297   6.125  14.234  0.00  0.00    +0.000 HD
ATOM     42  H   UNL     1       6.576   2.965  13.074  0.00  0.00    +0.000 HD
ATOM     43  H   UNL     1       6.644   4.291  12.060  0.00  0.00    +0.000 HD
ENDBRANCH  29  32
ENDBRANCH   4  26
TORSDOF 4
ENDMDL
MODEL 7
REMARK VINA RESULT:      -8.2      2.279      3.274
REMARK  Name = 
REMARK  6 active torsions:
REMARK  status: ('A' for Active; 'I' for Inactive)
REMARK    1  A    between atoms: C_1  and  C_2
REMARK    2  A    between atoms: C_4  and  C_5
REMARK    3  A    between atoms: C_16  and  C_17
REMARK    4  A    between atoms: C_20  and  C_21
REMARK    5  A    between atoms: C_24  and  C_25
REMARK    6  A    between atoms: N_36  and  C_37
REMARK                            x       y       z     vdW  Elec       q    Type
REMARK                         _______ _______ _______ _____ _____    ______ ____
ROOT
ATOM      1  C   UNL     1       1.734   7.785  20.011  0.00  0.00    +0.000 A 
ATOM      2  N   UNL     1       1.469   7.354  21.232  0.00  0.00    +0.000 NA
ATOM      3  N   UNL     1       0.591   8.220  21.846  0.00  0.00    +0.000 NA
ATOM      4  C   UNL     1       0.335   9.218  21.023  0.00  0.00    +0.000 A 
ATOM      5  N   UNL     1       0.992   8.941  19.826  0.00  0.00    +0.000 N 
ATOM      6  C   UNL     1       0.882   9.675  18.588  0.00  0.00    +0.000 C 
ENDROOT
BRANCH   1  13
ATOM      7  C   UNL     1       1.958   4.800  19.896  0.00  0.00    +0.000 C 
ATOM      8  C   UNL     1       2.699   5.704  18.942  0.00  0.00    +0.000 A 
ATOM      9  C   UNL     1       3.522   5.095  17.963  0.00  0.00    +0.000 A 
ATOM     10  C   UNL     1       4.260   5.838  17.023  0.00  0.00    +0.000 A 
ATOM     11  C   UNL     1       4.184   7.232  17.118  0.00  0.00    +0.000 A 
ATOM     12  C   UNL     1       3.402   7.848  18.115  0.00  0.00    +0.000 A 
ATOM     13  C   UNL     1       2.614   7.110  19.016  0.00  0.00    +0.000 A 
BRANCH  10  14
ATOM     14  C   UNL     1       5.052   5.165  15.964  0.00  0.00    +0.000 C 
ATOM     15  C   UNL     1       4.943   3.849  15.706  0.00  0.00    +0.000 C 
ATOM     16  C   UNL     1       5.687   3.108  14.624  0.00  0.00    +0.000 C 
ATOM     17  N   UNL     1       6.418   4.014  13.738  0.00  0.00    +0.000 N 
ATOM     18  C   UNL     1       6.834   3.604  12.503  0.00  0.00    +0.000 C 
ATOM     19  N   UNL     1       6.657   2.461  11.941  0.00  0.00    +0.000 NA
ATOM     20  N   UNL     1       7.475   4.530  11.761  0.00  0.00    +0.000 N 
ATOM     21  C   UNL     1       7.075   5.119  14.451  0.00  0.00    +0.000 C 
ATOM     22  C   UNL     1       6.014   5.991  15.135  0.00  0.00    +0.000 C 
ATOM     23  H   UNL     1       6.157   1.828  12.560  0.00  0.00    +0.000 HD
ATOM     24  H   UNL     1       6.973   5.407  11.729  0.00  0.00    +0.000 HD
ATOM     25  H   UNL     1       7.591   4.162  10.826  0.00  0.00    +0.000 HD
ENDBRANCH  10  14
ENDBRANCH   1  13
BRANCH   4  26
ATOM     26  C   UNL     1      -0.408  10.447  21.370  0.00  0.00    +0.000 A 
ATOM     27  C   UNL     1      -0.754  10.659  22.693  0.00  0.00    +0.000 A 
ATOM     28  C   UNL     1      -1.498  11.774  23.062  0.00  0.00    +0.000 A 
ATOM     29  C   UNL     1      -1.879  12.814  22.178  0.00  0.00    +0.000 A 
ATOM     30  C   UNL     1      -1.613  12.567  20.827  0.00  0.00    +0.000 A 
ATOM     31  C   UNL     1      -0.891  11.389  20.432  0.00  0.00    +0.000 A 
BRANCH  29  32
ATOM     32  C   UNL     1      -2.474  14.030  22.831  0.00  0.00    +0.000 C 
ATOM     33  C   UNL     1      -1.972  14.269  24.058  0.00  0.00    +0.000 C 
ATOM     34  C   UNL     1      -2.602  15.151  25.050  0.00  0.00    +0.000 C 
ATOM     35  N   UNL     1      -2.845  16.422  24.419  0.00  0.00    +0.000 N 
ATOM     36  C   UNL     1      -2.204  17.525  24.919  0.00  0.00    +0.000 C 
ATOM     37  N   UNL     1      -1.932  18.629  24.325  0.00  0.00    +0.000 NA
ATOM     38  N   UNL     1      -1.751  17.406  26.190  0.00  0.00    +0.000 N 
ATOM     39  C   UNL     1      -3.660  16.352  23.180  0.00  0.00    +0.000 C 
ATOM     40  C   UNL     1      -3.546  14.993  22.354  0.00  0.00    +0.000 C 
ATOM     41  H   UNL     1      -2.251  18.583  23.361  0.00  0.00    +0.000 HD
ATOM     42  H   UNL     1      -2.471  17.176  26.863  0.00  0.00    +0.000 HD
ATOM     43  H   UNL     1      -1.243  18.239  26.474  0.00  0.00    +0.000 HD
ENDBRANCH  29  32
ENDBRANCH   4  26
TORSDOF 4
ENDMDL
MODEL 8
REMARK VINA RESULT:      -8.1      1.768      2.701
REMARK  Name = 
REMARK  6 active torsions:
REMARK  status: ('A' for Active; 'I' for Inactive)
REMARK    1  A    between atoms: C_1  and  C_2
REMARK    2  A    between atoms: C_4  and  C_5
REMARK    3  A    between atoms: C_16  and  C_17
REMARK    4  A    between atoms: C_20  and  C_21
REMARK    5  A    between atoms: C_24  and  C_25
REMARK    6  A    between atoms: N_36  and  C_37
REMARK                            x       y       z     vdW  Elec       q    Type
REMARK                         _______ _______ _______ _____ _____    ______ ____
ROOT
ATOM      1  C   UNL     1       1.465   8.093  20.100  0.00  0.00    +0.000 A 
ATOM      2  N   UNL     1       1.102   7.634  21.286  0.00  0.00    +0.000 NA
ATOM      3  N   UNL     1       0.234   8.525  21.878  0.00  0.00    +0.000 NA
ATOM      4  C   UNL     1       0.081   9.563  21.080  0.00  0.00    +0.000 A 
ATOM      5  N   UNL     1       0.796   9.292  19.915  0.00  0.00    +0.000 N 
ATOM      6  C   UNL     1       0.803  10.073  18.700  0.00  0.00    +0.000 C 
ENDROOT
BRANCH   1  13
ATOM      7  C   UNL     1       2.020   5.156  20.301  0.00  0.00    +0.000 C 
ATOM      8  C   UNL     1       2.610   6.018  19.213  0.00  0.00    +0.000 A 
ATOM      9  C   UNL     1       3.450   5.392  18.260  0.00  0.00    +0.000 A 
ATOM     10  C   UNL     1       4.056   6.096  17.203  0.00  0.00    +0.000 A 
ATOM     11  C   UNL     1       3.827   7.476  17.148  0.00  0.00    +0.000 A 
ATOM     12  C   UNL     1       3.027   8.115  18.116  0.00  0.00    +0.000 A 
ATOM     13  C   UNL     1       2.369   7.405  19.137  0.00  0.00    +0.000 A 
BRANCH  10  14
ATOM     14  C   UNL     1       4.870   5.394  16.180  0.00  0.00    +0.000 C 
ATOM     15  C   UNL     1       4.749   4.076  15.938  0.00  0.00    +0.000 C 
ATOM     16  C   UNL     1       5.514   3.306  14.893  0.00  0.00    +0.000 C 
ATOM     17  N   UNL     1       6.286   4.187  14.016  0.00  0.00    +0.000 N 
ATOM     18  C   UNL     1       6.735   3.751  12.801  0.00  0.00    +0.000 C 
ATOM     19  N   UNL     1       6.557   2.602  12.251  0.00  0.00    +0.000 NA
ATOM     20  N   UNL     1       7.412   4.655  12.066  0.00  0.00    +0.000 N 
ATOM     21  C   UNL     1       6.938   5.293  14.732  0.00  0.00    +0.000 C 
ATOM     22  C   UNL     1       5.870   6.192  15.369  0.00  0.00    +0.000 C 
ATOM     23  H   UNL     1       6.028   1.987  12.865  0.00  0.00    +0.000 HD
ATOM     24  H   UNL     1       6.926   5.539  12.004  0.00  0.00    +0.000 HD
ATOM     25  H   UNL     1       7.553   4.270  11.140  0.00  0.00    +0.000 HD
ENDBRANCH  10  14
ENDBRANCH   1  13
BRANCH   4  26
ATOM     26  C   UNL     1      -0.618  10.818  21.426  0.00  0.00    +0.000 A 
ATOM     27  C   UNL     1      -0.730  11.164  22.761  0.00  0.00    +0.000 A 
ATOM     28  C   UNL     1      -1.423  12.308  23.141  0.00  0.00    +0.000 A 
ATOM     29  C   UNL     1      -1.978  13.248  22.238  0.00  0.00    +0.000 A 
ATOM     30  C   UNL     1      -1.948  12.864  20.894  0.00  0.00    +0.000 A 
ATOM     31  C   UNL     1      -1.280  11.655  20.498  0.00  0.00    +0.000 A 
BRANCH  29  32
ATOM     32  C   UNL     1      -2.477  14.523  22.860  0.00  0.00    +0.000 C 
ATOM     33  C   UNL     1      -2.731  15.488  21.955  0.00  0.00    +0.000 C 
ATOM     34  C   UNL     1      -2.881  16.911  22.287  0.00  0.00    +0.000 C 
ATOM     35  N   UNL     1      -3.865  17.019  23.332  0.00  0.00    +0.000 N 
ATOM     36  C   UNL     1      -5.019  17.707  23.064  0.00  0.00    +0.000 C 
ATOM     37  N   UNL     1      -6.163  17.603  23.637  0.00  0.00    +0.000 NA
ATOM     38  N   UNL     1      -4.953  18.569  22.021  0.00  0.00    +0.000 N 
ATOM     39  C   UNL     1      -3.567  16.221  24.548  0.00  0.00    +0.000 C 
ATOM     40  C   UNL     1      -2.708  14.898  24.312  0.00  0.00    +0.000 C 
ATOM     41  H   UNL     1      -6.120  16.882  24.352  0.00  0.00    +0.000 HD
ATOM     42  H   UNL     1      -4.227  19.270  22.113  0.00  0.00    +0.000 HD
ATOM     43  H   UNL     1      -5.855  19.003  21.850  0.00  0.00    +0.000 HD
ENDBRANCH  29  32
ENDBRANCH   4  26
TORSDOF 4
ENDMDL
MODEL 9
REMARK VINA RESULT:      -8.0      1.675      2.566
REMARK  Name = 
REMARK  6 active torsions:
REMARK  status: ('A' for Active; 'I' for Inactive)
REMARK    1  A    between atoms: C_1  and  C_2
REMARK    2  A    between atoms: C_4  and  C_5
REMARK    3  A    between atoms: C_16  and  C_17
REMARK    4  A    between atoms: C_20  and  C_21
REMARK    5  A    between atoms: C_24  and  C_25
REMARK    6  A    between atoms: N_36  and  C_37
REMARK                            x       y       z     vdW  Elec       q    Type
REMARK                         _______ _______ _______ _____ _____    ______ ____
ROOT
ATOM      1  C   UNL     1       1.022   8.589  20.388  0.00  0.00    +0.000 A 
ATOM      2  N   UNL     1       0.553   8.138  21.539  0.00  0.00    +0.000 NA
ATOM      3  N   UNL     1      -0.317   9.061  22.076  0.00  0.00    +0.000 NA
ATOM      4  C   UNL     1      -0.365  10.111  21.280  0.00  0.00    +0.000 A 
ATOM      5  N   UNL     1       0.422   9.819  20.168  0.00  0.00    +0.000 N 
ATOM      6  C   UNL     1       0.551  10.609  18.966  0.00  0.00    +0.000 C 
ENDROOT
BRANCH   1  13
ATOM      7  C   UNL     1       1.731   5.714  20.839  0.00  0.00    +0.000 C 
ATOM      8  C   UNL     1       2.278   6.510  19.680  0.00  0.00    +0.000 A 
ATOM      9  C   UNL     1       3.153   5.850  18.783  0.00  0.00    +0.000 A 
ATOM     10  C   UNL     1       3.724   6.492  17.669  0.00  0.00    +0.000 A 
ATOM     11  C   UNL     1       3.423   7.848  17.496  0.00  0.00    +0.000 A 
ATOM     12  C   UNL     1       2.587   8.524  18.407  0.00  0.00    +0.000 A 
ATOM     13  C   UNL     1       1.964   7.871  19.486  0.00  0.00    +0.000 A 
BRANCH  10  14
ATOM     14  C   UNL     1       4.578   5.749  16.709  0.00  0.00    +0.000 C 
ATOM     15  C   UNL     1       4.353   4.462  16.386  0.00  0.00    +0.000 C 
ATOM     16  C   UNL     1       5.154   3.659  15.394  0.00  0.00    +0.000 C 
ATOM     17  N   UNL     1       6.109   4.486  14.657  0.00  0.00    +0.000 N 
ATOM     18  C   UNL     1       6.651   4.055  13.480  0.00  0.00    +0.000 C 
ATOM     19  N   UNL     1       6.423   2.954  12.854  0.00  0.00    +0.000 NA
ATOM     20  N   UNL     1       7.498   4.911  12.874  0.00  0.00    +0.000 N 
ATOM     21  C   UNL     1       6.781   5.487  15.500  0.00  0.00    +0.000 C 
ATOM     22  C   UNL     1       5.742   6.468  16.059  0.00  0.00    +0.000 C 
ATOM     23  H   UNL     1       5.766   2.375  13.371  0.00  0.00    +0.000 HD
ATOM     24  H   UNL     1       7.115   5.843  12.805  0.00  0.00    +0.000 HD
ATOM     25  H   UNL     1       7.707   4.550  11.951  0.00  0.00    +0.000 HD
ENDBRANCH  10  14
ENDBRANCH   1  13
BRANCH   4  26
ATOM     26  C   UNL     1      -1.033  11.392  21.588  0.00  0.00    +0.000 A 
ATOM     27  C   UNL     1      -0.673  12.063  22.744  0.00  0.00    +0.000 A 
ATOM     28  C   UNL     1      -1.308  13.246  23.105  0.00  0.00    +0.000 A 
ATOM     29  C   UNL     1      -2.278  13.910  22.314  0.00  0.00    +0.000 A 
ATOM     30  C   UNL     1      -2.712  13.198  21.191  0.00  0.00    +0.000 A 
ATOM     31  C   UNL     1      -2.097  11.948  20.841  0.00  0.00    +0.000 A 
BRANCH  29  32
ATOM     32  C   UNL     1      -2.660  15.287  22.783  0.00  0.00    +0.000 C 
ATOM     33  C   UNL     1      -3.932  15.614  22.481  0.00  0.00    +0.000 C 
ATOM     34  C   UNL     1      -4.457  16.986  22.494  0.00  0.00    +0.000 C 
ATOM     35  N   UNL     1      -4.147  17.564  23.776  0.00  0.00    +0.000 N 
ATOM     36  C   UNL     1      -5.188  17.933  24.586  0.00  0.00    +0.000 C 
ATOM     37  N   UNL     1      -5.198  18.073  25.862  0.00  0.00    +0.000 NA
ATOM     38  N   UNL     1      -6.374  18.121  23.959  0.00  0.00    +0.000 N 
ATOM     39  C   UNL     1      -2.706  17.545  24.132  0.00  0.00    +0.000 C 
ATOM     40  C   UNL     1      -1.854  16.353  23.500  0.00  0.00    +0.000 C 
ATOM     41  H   UNL     1      -4.282  17.839  26.235  0.00  0.00    +0.000 HD
ATOM     42  H   UNL     1      -6.342  18.810  23.218  0.00  0.00    +0.000 HD
ATOM     43  H   UNL     1      -7.107  18.341  24.626  0.00  0.00    +0.000 HD
ENDBRANCH  29  32
ENDBRANCH   4  26
TORSDOF 4
ENDMDL
