MODEL 1
REMARK VINA RESULT:      -8.1      0.000      0.000
REMARK  Name = 
REMARK  4 active torsions:
REMARK  status: ('A' for Active; 'I' for Inactive)
REMARK    1  A    between atoms: C_1  and  C_2
REMARK    2  A    between atoms: C_2  and  C_3
REMARK    3  A    between atoms: C_3  and  C_4
REMARK    4  A    between atoms: C_3  and  N_10
REMARK                            x       y       z     vdW  Elec       q    Type
REMARK                         _______ _______ _______ _____ _____    ______ ____
ROOT
ATOM      1  N   UNL     1       3.884   5.392  18.986  0.00  0.00    +0.000 N 
ATOM      2  N   UNL     1       3.499   5.200  20.350  0.00  0.00    +0.000 N 
ATOM      3  C   UNL     1       2.119   5.365  20.491  0.00  0.00    +0.000 A 
ATOM      4  O   UNL     1       1.363   4.559  21.014  0.00  0.00    +0.000 OA
ATOM      5  C   UNL     1       1.689   6.748  20.152  0.00  0.00    +0.000 A 
ATOM      6  N   UNL     1       0.774   7.326  20.993  0.00  0.00    +0.000 N 
ATOM      7  C   UNL     1       0.438   8.677  20.903  0.00  0.00    +0.000 A 
ATOM      8  C   UNL     1      -0.276   9.279  21.950  0.00  0.00    +0.000 A 
ATOM      9  C   UNL     1      -0.493  10.654  21.954  0.00  0.00    +0.000 A 
ATOM     10 CL   UNL     1      -1.232  11.392  23.325  0.00  0.00    +0.000 Cl
ATOM     11  C   UNL     1      -0.056  11.429  20.881  0.00  0.00    +0.000 A 
ATOM     12  C   UNL     1       0.674  10.833  19.835  0.00  0.00    +0.000 A 
ATOM     13  C   UNL     1       0.975   9.452  19.866  0.00  0.00    +0.000 A 
ATOM     14  C   UNL     1       1.895   8.770  18.856  0.00  0.00    +0.000 A 
ATOM     15  O   UNL     1       2.343   9.436  17.926  0.00  0.00    +0.000 OA
ATOM     16  C   UNL     1       2.294   7.327  19.097  0.00  0.00    +0.000 A 
ATOM     17  C   UNL     1       3.225   6.454  18.256  0.00  0.00    +0.000 A 
ATOM     18  O   UNL     1       3.346   6.590  17.045  0.00  0.00    +0.000 OA
ATOM     19  H   UNL     1       3.980   5.940  20.860  0.00  0.00    +0.000 HD
ATOM     20  H   UNL     1       0.186   6.692  21.532  0.00  0.00    +0.000 HD
ENDROOT
BRANCH   1  21
ATOM     21  C   UNL     1       4.646   4.251  18.379  0.00  0.00    +0.000 C 
BRANCH  21  22
ATOM     22  C   UNL     1       5.739   4.588  17.378  0.00  0.00    +0.000 A 
ATOM     23  C   UNL     1       6.654   5.621  17.589  0.00  0.00    +0.000 A 
ATOM     24  C   UNL     1       7.516   5.977  16.563  0.00  0.00    +0.000 A 
ATOM     25  N   UNL     1       7.515   5.399  15.344  0.00  0.00    +0.000 NA
ATOM     26  C   UNL     1       6.620   4.412  15.145  0.00  0.00    +0.000 A 
ATOM     27  C   UNL     1       5.728   3.977  16.112  0.00  0.00    +0.000 A 
ENDBRANCH  21  22
BRANCH  21  29
ATOM     28  C   UNL     1       2.384   2.814  17.731  0.00  0.00    +0.000 C 
ATOM     29  C   UNL     1       3.897   2.955  17.852  0.00  0.00    +0.000 C 
ENDBRANCH  21  29
ENDBRANCH   1  21
TORSDOF 3
ENDMDL
MODEL 2
REMARK VINA RESULT:      -7.8      3.452      8.600
REMARK  Name = 
REMARK  4 active torsions:
REMARK  status: ('A' for Active; 'I' for Inactive)
REMARK    1  A    between atoms: C_1  and  C_2
REMARK    2  A    between atoms: C_2  and  C_3
REMARK    3  A    between atoms: C_3  and  C_4
REMARK    4  A    between atoms: C_3  and  N_10
REMARK                            x       y       z     vdW  Elec       q    Type
REMARK                         _______ _______ _______ _____ _____    ______ ____
ROOT
ATOM      1  N   UNL     1      -0.127  10.934  20.058  0.00  0.00    +0.000 N 
ATOM      2  N   UNL     1      -0.593   9.956  20.991  0.00  0.00    +0.000 N 
ATOM      3  C   UNL     1       0.487   9.296  21.582  0.00  0.00    +0.000 A 
ATOM      4  O   UNL     1       0.666   9.173  22.784  0.00  0.00    +0.000 OA
ATOM      5  C   UNL     1       1.285   8.536  20.582  0.00  0.00    +0.000 A 
ATOM      6  N   UNL     1       1.683   7.277  20.948  0.00  0.00    +0.000 N 
ATOM      7  C   UNL     1       2.261   6.391  20.039  0.00  0.00    +0.000 A 
ATOM      8  C   UNL     1       2.387   5.037  20.383  0.00  0.00    +0.000 A 
ATOM      9  C   UNL     1       2.822   4.109  19.440  0.00  0.00    +0.000 A 
ATOM     10 CL   UNL     1       2.817   2.432  19.836  0.00  0.00    +0.000 Cl
ATOM     11  C   UNL     1       3.198   4.536  18.168  0.00  0.00    +0.000 A 
ATOM     12  C   UNL     1       3.061   5.892  17.812  0.00  0.00    +0.000 A 
ATOM     13  C   UNL     1       2.536   6.826  18.735  0.00  0.00    +0.000 A 
ATOM     14  C   UNL     1       2.208   8.272  18.370  0.00  0.00    +0.000 A 
ATOM     15  O   UNL     1       2.476   8.668  17.239  0.00  0.00    +0.000 OA
ATOM     16  C   UNL     1       1.477   9.128  19.387  0.00  0.00    +0.000 A 
ATOM     17  C   UNL     1       1.011  10.576  19.238  0.00  0.00    +0.000 A 
ATOM     18  O   UNL     1       1.599  11.393  18.540  0.00  0.00    +0.000 OA
ATOM     19  H   UNL     1      -1.124   9.294  20.427  0.00  0.00    +0.000 HD
ATOM     20  H   UNL     1       1.748   7.092  21.948  0.00  0.00    +0.000 HD
ENDROOT
BRANCH   1  21
ATOM     21  C   UNL     1      -0.633  12.327  20.297  0.00  0.00    +0.000 C 
BRANCH  21  22
ATOM     22  C   UNL     1      -1.817  12.494  21.236  0.00  0.00    +0.000 A 
ATOM     23  C   UNL     1      -1.714  12.287  22.612  0.00  0.00    +0.000 A 
ATOM     24  C   UNL     1      -2.867  12.296  23.382  0.00  0.00    +0.000 A 
ATOM     25  N   UNL     1      -4.106  12.471  22.880  0.00  0.00    +0.000 NA
ATOM     26  C   UNL     1      -4.197  12.658  21.549  0.00  0.00    +0.000 A 
ATOM     27  C   UNL     1      -3.102  12.678  20.699  0.00  0.00    +0.000 A 
ENDBRANCH  21  22
BRANCH  21  29
ATOM     28  C   UNL     1      -0.080  14.662  18.941  0.00  0.00    +0.000 C 
ATOM     29  C   UNL     1      -0.828  13.344  19.094  0.00  0.00    +0.000 C 
ENDBRANCH  21  29
ENDBRANCH   1  21
TORSDOF 3
ENDMDL
MODEL 3
REMARK VINA RESULT:      -7.7      0.699      1.154
REMARK  Name = 
REMARK  4 active torsions:
REMARK  status: ('A' for Active; 'I' for Inactive)
REMARK    1  A    between atoms: C_1  and  C_2
REMARK    2  A    between atoms: C_2  and  C_3
REMARK    3  A    between atoms: C_3  and  C_4
REMARK    4  A    between atoms: C_3  and  N_10
REMARK                            x       y       z     vdW  Elec       q    Type
REMARK                         _______ _______ _______ _____ _____    ______ ____
ROOT
ATOM      1  N   UNL     1       3.657   6.046  18.846  0.00  0.00    +0.000 N 
ATOM      2  N   UNL     1       3.303   5.908  20.224  0.00  0.00    +0.000 N 
ATOM      3  C   UNL     1       1.934   6.122  20.397  0.00  0.00    +0.000 A 
ATOM      4  O   UNL     1       1.168   5.358  20.965  0.00  0.00    +0.000 OA
ATOM      5  C   UNL     1       1.539   7.508  20.026  0.00  0.00    +0.000 A 
ATOM      6  N   UNL     1       0.666   8.140  20.872  0.00  0.00    +0.000 N 
ATOM      7  C   UNL     1       0.371   9.499  20.750  0.00  0.00    +0.000 A 
ATOM      8  C   UNL     1      -0.295  10.156  21.795  0.00  0.00    +0.000 A 
ATOM      9  C   UNL     1      -0.467  11.536  21.762  0.00  0.00    +0.000 A 
ATOM     10 CL   UNL     1      -1.144  12.340  23.128  0.00  0.00    +0.000 Cl
ATOM     11  C   UNL     1      -0.035  12.263  20.654  0.00  0.00    +0.000 A 
ATOM     12  C   UNL     1       0.646  11.612  19.608  0.00  0.00    +0.000 A 
ATOM     13  C   UNL     1       0.904  10.223  19.674  0.00  0.00    +0.000 A 
ATOM     14  C   UNL     1       1.773   9.481  18.662  0.00  0.00    +0.000 A 
ATOM     15  O   UNL     1       2.216  10.104  17.701  0.00  0.00    +0.000 OA
ATOM     16  C   UNL     1       2.133   8.034  18.938  0.00  0.00    +0.000 A 
ATOM     17  C   UNL     1       3.012   7.105  18.100  0.00  0.00    +0.000 A 
ATOM     18  O   UNL     1       3.104   7.200  16.883  0.00  0.00    +0.000 OA
ATOM     19  H   UNL     1       3.822   6.647  20.698  0.00  0.00    +0.000 HD
ATOM     20  H   UNL     1       0.074   7.543  21.447  0.00  0.00    +0.000 HD
ENDROOT
BRANCH   1  21
ATOM     21  C   UNL     1       4.365   4.862  18.254  0.00  0.00    +0.000 C 
BRANCH  21  22
ATOM     22  C   UNL     1       5.413   5.131  17.186  0.00  0.00    +0.000 A 
ATOM     23  C   UNL     1       5.520   4.355  16.031  0.00  0.00    +0.000 A 
ATOM     24  C   UNL     1       6.600   4.554  15.184  0.00  0.00    +0.000 A 
ATOM     25  N   UNL     1       7.583   5.446  15.416  0.00  0.00    +0.000 NA
ATOM     26  C   UNL     1       7.479   6.183  16.539  0.00  0.00    +0.000 A 
ATOM     27  C   UNL     1       6.431   6.065  17.439  0.00  0.00    +0.000 A 
ENDBRANCH  21  22
BRANCH  21  29
ATOM     28  C   UNL     1       2.047   3.436  17.817  0.00  0.00    +0.000 C 
ATOM     29  C   UNL     1       3.565   3.561  17.825  0.00  0.00    +0.000 C 
ENDBRANCH  21  29
ENDBRANCH   1  21
TORSDOF 3
ENDMDL
MODEL 4
REMARK VINA RESULT:      -7.6      2.154      3.355
REMARK  Name = 
REMARK  4 active torsions:
REMARK  status: ('A' for Active; 'I' for Inactive)
REMARK    1  A    between atoms: C_1  and  C_2
REMARK    2  A    between atoms: C_2  and  C_3
REMARK    3  A    between atoms: C_3  and  C_4
REMARK    4  A    between atoms: C_3  and  N_10
REMARK                            x       y       z     vdW  Elec       q    Type
REMARK                         _______ _______ _______ _____ _____    ______ ____
ROOT
ATOM      1  N   UNL     1       2.083   7.194  20.155  0.00  0.00    +0.000 N 
ATOM      2  N   UNL     1       1.592   7.690  21.403  0.00  0.00    +0.000 N 
ATOM      3  C   UNL     1       0.379   8.356  21.216  0.00  0.00    +0.000 A 
ATOM      4  O   UNL     1      -0.653   8.127  21.830  0.00  0.00    +0.000 OA
ATOM      5  C   UNL     1       0.534   9.556  20.351  0.00  0.00    +0.000 A 
ATOM      6  N   UNL     1      -0.123  10.689  20.754  0.00  0.00    +0.000 N 
ATOM      7  C   UNL     1       0.096  11.926  20.147  0.00  0.00    +0.000 A 
ATOM      8  C   UNL     1      -0.376  13.091  20.770  0.00  0.00    +0.000 A 
ATOM      9  C   UNL     1      -0.043  14.344  20.263  0.00  0.00    +0.000 A 
ATOM     10 CL   UNL     1      -0.499  15.760  21.134  0.00  0.00    +0.000 Cl
ATOM     11  C   UNL     1       0.709  14.443  19.094  0.00  0.00    +0.000 A 
ATOM     12  C   UNL     1       1.197  13.277  18.472  0.00  0.00    +0.000 A 
ATOM     13  C   UNL     1       0.937  12.004  19.029  0.00  0.00    +0.000 A 
ATOM     14  C   UNL     1       1.566  10.715  18.505  0.00  0.00    +0.000 A 
ATOM     15  O   UNL     1       2.279  10.772  17.507  0.00  0.00    +0.000 OA
ATOM     16  C   UNL     1       1.363   9.436  19.296  0.00  0.00    +0.000 A 
ATOM     17  C   UNL     1       1.920   8.045  18.996  0.00  0.00    +0.000 A 
ATOM     18  O   UNL     1       2.140   7.650  17.857  0.00  0.00    +0.000 OA
ATOM     19  H   UNL     1       2.298   8.357  21.711  0.00  0.00    +0.000 HD
ATOM     20  H   UNL     1      -0.934  10.556  21.356  0.00  0.00    +0.000 HD
ENDROOT
BRANCH   1  21
ATOM     21  C   UNL     1       2.370   5.721  20.130  0.00  0.00    +0.000 C 
BRANCH  21  22
ATOM     22  C   UNL     1       3.317   5.207  19.058  0.00  0.00    +0.000 A 
ATOM     23  C   UNL     1       2.875   4.464  17.962  0.00  0.00    +0.000 A 
ATOM     24  C   UNL     1       3.812   3.891  17.116  0.00  0.00    +0.000 A 
ATOM     25  N   UNL     1       5.145   3.984  17.295  0.00  0.00    +0.000 NA
ATOM     26  C   UNL     1       5.563   4.692  18.362  0.00  0.00    +0.000 A 
ATOM     27  C   UNL     1       4.704   5.312  19.256  0.00  0.00    +0.000 A 
ENDBRANCH  21  22
BRANCH  21  29
ATOM     28  C   UNL     1       1.322   3.343  21.050  0.00  0.00    +0.000 C 
ATOM     29  C   UNL     1       1.203   4.657  20.288  0.00  0.00    +0.000 C 
ENDBRANCH  21  29
ENDBRANCH   1  21
TORSDOF 3
ENDMDL
MODEL 5
REMARK VINA RESULT:      -7.6      1.507      2.843
REMARK  Name = 
REMARK  4 active torsions:
REMARK  status: ('A' for Active; 'I' for Inactive)
REMARK    1  A    between atoms: C_1  and  C_2
REMARK    2  A    between atoms: C_2  and  C_3
REMARK    3  A    between atoms: C_3  and  C_4
REMARK    4  A    between atoms: C_3  and  N_10
REMARK                            x       y       z     vdW  Elec       q    Type
REMARK                         _______ _______ _______ _____ _____    ______ ____
ROOT
ATOM      1  N   UNL     1       3.893   6.512  18.495  0.00  0.00    +0.000 N 
ATOM      2  N   UNL     1       3.593   6.299  19.877  0.00  0.00    +0.000 N 
ATOM      3  C   UNL     1       2.217   6.398  20.095  0.00  0.00    +0.000 A 
ATOM      4  O   UNL     1       1.530   5.557  20.655  0.00  0.00    +0.000 OA
ATOM      5  C   UNL     1       1.704   7.760  19.787  0.00  0.00    +0.000 A 
ATOM      6  N   UNL     1       0.811   8.292  20.679  0.00  0.00    +0.000 N 
ATOM      7  C   UNL     1       0.407   9.627  20.615  0.00  0.00    +0.000 A 
ATOM      8  C   UNL     1      -0.276  10.192  21.701  0.00  0.00    +0.000 A 
ATOM      9  C   UNL     1      -0.557  11.555  21.724  0.00  0.00    +0.000 A 
ATOM     10 CL   UNL     1      -1.252  12.255  23.137  0.00  0.00    +0.000 Cl
ATOM     11  C   UNL     1      -0.216  12.352  20.633  0.00  0.00    +0.000 A 
ATOM     12  C   UNL     1       0.482  11.793  19.545  0.00  0.00    +0.000 A 
ATOM     13  C   UNL     1       0.849  10.428  19.553  0.00  0.00    +0.000 A 
ATOM     14  C   UNL     1       1.743   9.792  18.490  0.00  0.00    +0.000 A 
ATOM     15  O   UNL     1       2.107  10.481  17.541  0.00  0.00    +0.000 OA
ATOM     16  C   UNL     1       2.222   8.369  18.703  0.00  0.00    +0.000 A 
ATOM     17  C   UNL     1       3.146   7.543  17.807  0.00  0.00    +0.000 A 
ATOM     18  O   UNL     1       3.193   7.687  16.592  0.00  0.00    +0.000 OA
ATOM     19  H   UNL     1       4.067   7.060  20.364  0.00  0.00    +0.000 HD
ATOM     20  H   UNL     1       0.284   7.631  21.247  0.00  0.00    +0.000 HD
ENDROOT
BRANCH   1  21
ATOM     21  C   UNL     1       4.674   5.409  17.841  0.00  0.00    +0.000 C 
BRANCH  21  22
ATOM     22  C   UNL     1       4.184   3.985  18.045  0.00  0.00    +0.000 A 
ATOM     23  C   UNL     1       3.131   3.443  17.307  0.00  0.00    +0.000 A 
ATOM     24  C   UNL     1       2.632   2.198  17.660  0.00  0.00    +0.000 A 
ATOM     25  N   UNL     1       3.088   1.472  18.700  0.00  0.00    +0.000 NA
ATOM     26  C   UNL     1       4.096   2.008  19.415  0.00  0.00    +0.000 A 
ATOM     27  C   UNL     1       4.669   3.238  19.132  0.00  0.00    +0.000 A 
ENDBRANCH  21  22
BRANCH  21  29
ATOM     28  C   UNL     1       7.152   6.618  17.838  0.00  0.00    +0.000 C 
ATOM     29  C   UNL     1       6.259   5.384  17.897  0.00  0.00    +0.000 C 
ENDBRANCH  21  29
ENDBRANCH   1  21
TORSDOF 3
ENDMDL
MODEL 6
REMARK VINA RESULT:      -7.6      3.505      8.336
REMARK  Name = 
REMARK  4 active torsions:
REMARK  status: ('A' for Active; 'I' for Inactive)
REMARK    1  A    between atoms: C_1  and  C_2
REMARK    2  A    between atoms: C_2  and  C_3
REMARK    3  A    between atoms: C_3  and  C_4
REMARK    4  A    between atoms: C_3  and  N_10
REMARK                            x       y       z     vdW  Elec       q    Type
REMARK                         _______ _______ _______ _____ _____    ______ ____
ROOT
ATOM      1  N   UNL     1      -0.174  10.576  19.901  0.00  0.00    +0.000 N 
ATOM      2  N   UNL     1      -0.553   9.558  20.829  0.00  0.00    +0.000 N 
ATOM      3  C   UNL     1       0.580   8.995  21.421  0.00  0.00    +0.000 A 
ATOM      4  O   UNL     1       0.765   8.885  22.624  0.00  0.00    +0.000 OA
ATOM      5  C   UNL     1       1.446   8.313  20.422  0.00  0.00    +0.000 A 
ATOM      6  N   UNL     1       1.954   7.094  20.786  0.00  0.00    +0.000 N 
ATOM      7  C   UNL     1       2.612   6.266  19.875  0.00  0.00    +0.000 A 
ATOM      8  C   UNL     1       2.858   4.928  20.215  0.00  0.00    +0.000 A 
ATOM      9  C   UNL     1       3.377   4.046  19.272  0.00  0.00    +0.000 A 
ATOM     10 CL   UNL     1       3.521   2.374  19.663  0.00  0.00    +0.000 Cl
ATOM     11  C   UNL     1       3.716   4.509  18.002  0.00  0.00    +0.000 A 
ATOM     12  C   UNL     1       3.459   5.848  17.650  0.00  0.00    +0.000 A 
ATOM     13  C   UNL     1       2.851   6.729  18.574  0.00  0.00    +0.000 A 
ATOM     14  C   UNL     1       2.395   8.140  18.213  0.00  0.00    +0.000 A 
ATOM     15  O   UNL     1       2.629   8.562  17.084  0.00  0.00    +0.000 OA
ATOM     16  C   UNL     1       1.587   8.924  19.229  0.00  0.00    +0.000 A 
ATOM     17  C   UNL     1       0.994  10.325  19.083  0.00  0.00    +0.000 A 
ATOM     18  O   UNL     1       1.508  11.193  18.390  0.00  0.00    +0.000 OA
ATOM     19  H   UNL     1      -1.022   8.853  20.261  0.00  0.00    +0.000 HD
ATOM     20  H   UNL     1       2.032   6.912  21.785  0.00  0.00    +0.000 HD
ENDROOT
BRANCH   1  21
ATOM     21  C   UNL     1      -0.804  11.917  20.142  0.00  0.00    +0.000 C 
BRANCH  21  22
ATOM     22  C   UNL     1      -2.226  12.126  19.646  0.00  0.00    +0.000 A 
ATOM     23  C   UNL     1      -3.202  12.758  20.418  0.00  0.00    +0.000 A 
ATOM     24  C   UNL     1      -4.514  12.766  19.969  0.00  0.00    +0.000 A 
ATOM     25  N   UNL     1      -4.923  12.174  18.829  0.00  0.00    +0.000 NA
ATOM     26  C   UNL     1      -3.976  11.556  18.096  0.00  0.00    +0.000 A 
ATOM     27  C   UNL     1      -2.639  11.505  18.455  0.00  0.00    +0.000 A 
ENDBRANCH  21  22
BRANCH  21  29
ATOM     28  C   UNL     1      -0.221  14.181  18.680  0.00  0.00    +0.000 C 
ATOM     29  C   UNL     1      -0.001  13.259  19.874  0.00  0.00    +0.000 C 
ENDBRANCH  21  29
ENDBRANCH   1  21
TORSDOF 3
ENDMDL
MODEL 7
REMARK VINA RESULT:      -7.5      4.127      9.670
REMARK  Name = 
REMARK  4 active torsions:
REMARK  status: ('A' for Active; 'I' for Inactive)
REMARK    1  A    between atoms: C_1  and  C_2
REMARK    2  A    between atoms: C_2  and  C_3
REMARK    3  A    between atoms: C_3  and  C_4
REMARK    4  A    between atoms: C_3  and  N_10
REMARK                            x       y       z     vdW  Elec       q    Type
REMARK                         _______ _______ _______ _____ _____    ______ ____
ROOT
ATOM      1  N   UNL     1      -1.365  11.338  22.524  0.00  0.00    +0.000 N 
ATOM      2  N   UNL     1      -1.211  10.066  23.158  0.00  0.00    +0.000 N 
ATOM      3  C   UNL     1       0.134   9.689  23.168  0.00  0.00    +0.000 A 
ATOM      4  O   UNL     1       0.763   9.349  24.159  0.00  0.00    +0.000 OA
ATOM      5  C   UNL     1       0.669   9.509  21.791  0.00  0.00    +0.000 A 
ATOM      6  N   UNL     1       1.461   8.410  21.583  0.00  0.00    +0.000 N 
ATOM      7  C   UNL     1       1.861   8.019  20.305  0.00  0.00    +0.000 A 
ATOM      8  C   UNL     1       2.423   6.748  20.119  0.00  0.00    +0.000 A 
ATOM      9  C   UNL     1       2.692   6.278  18.836  0.00  0.00    +0.000 A 
ATOM     10 CL   UNL     1       3.231   4.655  18.623  0.00  0.00    +0.000 Cl
ATOM     11  C   UNL     1       2.463   7.100  17.734  0.00  0.00    +0.000 A 
ATOM     12  C   UNL     1       1.886   8.372  17.913  0.00  0.00    +0.000 A 
ATOM     13  C   UNL     1       1.528   8.822  19.205  0.00  0.00    +0.000 A 
ATOM     14  C   UNL     1       0.755  10.114  19.459  0.00  0.00    +0.000 A 
ATOM     15  O   UNL     1       0.488  10.837  18.503  0.00  0.00    +0.000 OA
ATOM     16  C   UNL     1       0.264  10.400  20.865  0.00  0.00    +0.000 A 
ATOM     17  C   UNL     1      -0.555  11.595  21.352  0.00  0.00    +0.000 A 
ATOM     18  O   UNL     1      -0.476  12.705  20.841  0.00  0.00    +0.000 OA
ATOM     19  H   UNL     1      -1.737   9.420  22.571  0.00  0.00    +0.000 HD
ATOM     20  H   UNL     1       1.928   8.023  22.401  0.00  0.00    +0.000 HD
ENDROOT
BRANCH   1  21
ATOM     21  C   UNL     1      -2.066  12.375  23.351  0.00  0.00    +0.000 C 
BRANCH  21  22
ATOM     22  C   UNL     1      -3.558  12.566  23.126  0.00  0.00    +0.000 A 
ATOM     23  C   UNL     1      -4.107  12.727  21.853  0.00  0.00    +0.000 A 
ATOM     24  C   UNL     1      -5.448  13.060  21.736  0.00  0.00    +0.000 A 
ATOM     25  N   UNL     1      -6.267  13.265  22.787  0.00  0.00    +0.000 NA
ATOM     26  C   UNL     1      -5.725  13.120  24.012  0.00  0.00    +0.000 A 
ATOM     27  C   UNL     1      -4.400  12.777  24.230  0.00  0.00    +0.000 A 
ENDBRANCH  21  22
BRANCH  21  29
ATOM     28  C   UNL     1      -1.906  15.091  22.902  0.00  0.00    +0.000 C 
ATOM     29  C   UNL     1      -1.428  13.811  23.577  0.00  0.00    +0.000 C 
ENDBRANCH  21  29
ENDBRANCH   1  21
TORSDOF 3
ENDMDL
MODEL 8
REMARK VINA RESULT:      -7.5      2.572      4.267
REMARK  Name = 
REMARK  4 active torsions:
REMARK  status: ('A' for Active; 'I' for Inactive)
REMARK    1  A    between atoms: C_1  and  C_2
REMARK    2  A    between atoms: C_2  and  C_3
REMARK    3  A    between atoms: C_3  and  C_4
REMARK    4  A    between atoms: C_3  and  N_10
REMARK                            x       y       z     vdW  Elec       q    Type
REMARK                         _______ _______ _______ _____ _____    ______ ____
ROOT
ATOM      1  N   UNL     1       2.100   7.751  19.521  0.00  0.00    +0.000 N 
ATOM      2  N   UNL     1       1.701   7.705  20.893  0.00  0.00    +0.000 N 
ATOM      3  C   UNL     1       0.432   8.268  21.048  0.00  0.00    +0.000 A 
ATOM      4  O   UNL     1      -0.516   7.728  21.599  0.00  0.00    +0.000 OA
ATOM      5  C   UNL     1       0.417   9.710  20.682  0.00  0.00    +0.000 A 
ATOM      6  N   UNL     1      -0.274  10.545  21.521  0.00  0.00    +0.000 N 
ATOM      7  C   UNL     1      -0.202  11.934  21.404  0.00  0.00    +0.000 A 
ATOM      8  C   UNL     1      -0.690  12.737  22.445  0.00  0.00    +0.000 A 
ATOM      9  C   UNL     1      -0.497  14.115  22.420  0.00  0.00    +0.000 A 
ATOM     10 CL   UNL     1      -0.962  15.062  23.783  0.00  0.00    +0.000 Cl
ATOM     11  C   UNL     1       0.128  14.709  21.325  0.00  0.00    +0.000 A 
ATOM     12  C   UNL     1       0.632  13.906  20.283  0.00  0.00    +0.000 A 
ATOM     13  C   UNL     1       0.518  12.498  20.342  0.00  0.00    +0.000 A 
ATOM     14  C   UNL     1       1.180  11.559  19.337  0.00  0.00    +0.000 A 
ATOM     15  O   UNL     1       1.785  12.048  18.387  0.00  0.00    +0.000 OA
ATOM     16  C   UNL     1       1.145  10.067  19.607  0.00  0.00    +0.000 A 
ATOM     17  C   UNL     1       1.765   8.945  18.774  0.00  0.00    +0.000 A 
ATOM     18  O   UNL     1       1.898   9.017  17.559  0.00  0.00    +0.000 OA
ATOM     19  H   UNL     1       2.386   8.281  21.380  0.00  0.00    +0.000 HD
ATOM     20  H   UNL     1      -1.010  10.121  22.082  0.00  0.00    +0.000 HD
ENDROOT
BRANCH   1  21
ATOM     21  C   UNL     1       2.484   6.426  18.930  0.00  0.00    +0.000 C 
BRANCH  21  22
ATOM     22  C   UNL     1       2.000   5.172  19.641  0.00  0.00    +0.000 A 
ATOM     23  C   UNL     1       2.365   4.868  20.953  0.00  0.00    +0.000 A 
ATOM     24  C   UNL     1       2.021   3.631  21.477  0.00  0.00    +0.000 A 
ATOM     25  N   UNL     1       1.367   2.675  20.786  0.00  0.00    +0.000 NA
ATOM     26  C   UNL     1       1.030   2.973  19.516  0.00  0.00    +0.000 A 
ATOM     27  C   UNL     1       1.318   4.185  18.909  0.00  0.00    +0.000 A 
ENDBRANCH  21  22
BRANCH  21  29
ATOM     28  C   UNL     1       4.498   6.519  17.050  0.00  0.00    +0.000 C 
ATOM     29  C   UNL     1       3.965   6.151  18.429  0.00  0.00    +0.000 C 
ENDBRANCH  21  29
ENDBRANCH   1  21
TORSDOF 3
ENDMDL
MODEL 9
REMARK VINA RESULT:      -7.4      3.354      8.200
REMARK  Name = 
REMARK  4 active torsions:
REMARK  status: ('A' for Active; 'I' for Inactive)
REMARK    1  A    between atoms: C_1  and  C_2
REMARK    2  A    between atoms: C_2  and  C_3
REMARK    3  A    between atoms: C_3  and  C_4
REMARK    4  A    between atoms: C_3  and  N_10
REMARK                            x       y       z     vdW  Elec       q    Type
REMARK                         _______ _______ _______ _____ _____    ______ ____
ROOT
ATOM      1  N   UNL     1       0.023  10.540  19.359  0.00  0.00    +0.000 N 
ATOM      2  N   UNL     1      -0.510   9.620  20.315  0.00  0.00    +0.000 N 
ATOM      3  C   UNL     1       0.520   9.059  21.074  0.00  0.00    +0.000 A 
ATOM      4  O   UNL     1       0.567   9.040  22.295  0.00  0.00    +0.000 OA
ATOM      5  C   UNL     1       1.453   8.259  20.235  0.00  0.00    +0.000 A 
ATOM      6  N   UNL     1       1.852   7.052  20.747  0.00  0.00    +0.000 N 
ATOM      7  C   UNL     1       2.562   6.124  19.985  0.00  0.00    +0.000 A 
ATOM      8  C   UNL     1       2.697   4.808  20.453  0.00  0.00    +0.000 A 
ATOM      9  C   UNL     1       3.269   3.829  19.646  0.00  0.00    +0.000 A 
ATOM     10 CL   UNL     1       3.280   2.191  20.179  0.00  0.00    +0.000 Cl
ATOM     11  C   UNL     1       3.770   4.170  18.391  0.00  0.00    +0.000 A 
ATOM     12  C   UNL     1       3.624   5.485  17.909  0.00  0.00    +0.000 A 
ATOM     13  C   UNL     1       2.966   6.466  18.687  0.00  0.00    +0.000 A 
ATOM     14  C   UNL     1       2.628   7.861  18.168  0.00  0.00    +0.000 A 
ATOM     15  O   UNL     1       3.008   8.177  17.044  0.00  0.00    +0.000 OA
ATOM     16  C   UNL     1       1.757   8.761  19.023  0.00  0.00    +0.000 A 
ATOM     17  C   UNL     1       1.258  10.171  18.702  0.00  0.00    +0.000 A 
ATOM     18  O   UNL     1       1.891  10.955  18.006  0.00  0.00    +0.000 OA
ATOM     19  H   UNL     1      -0.949   8.891  19.754  0.00  0.00    +0.000 HD
ATOM     20  H   UNL     1       1.811   6.950  21.760  0.00  0.00    +0.000 HD
ENDROOT
BRANCH   1  21
ATOM     21  C   UNL     1      -0.557  11.923  19.423  0.00  0.00    +0.000 C 
BRANCH  21  22
ATOM     22  C   UNL     1      -1.186  12.362  20.736  0.00  0.00    +0.000 A 
ATOM     23  C   UNL     1      -0.440  12.530  21.903  0.00  0.00    +0.000 A 
ATOM     24  C   UNL     1      -1.103  12.771  23.097  0.00  0.00    +0.000 A 
ATOM     25  N   UNL     1      -2.445  12.833  23.213  0.00  0.00    +0.000 NA
ATOM     26  C   UNL     1      -3.158  12.658  22.083  0.00  0.00    +0.000 A 
ATOM     27  C   UNL     1      -2.586  12.425  20.843  0.00  0.00    +0.000 A 
ENDBRANCH  21  22
BRANCH  21  29
ATOM     28  C   UNL     1      -2.215  11.626  17.240  0.00  0.00    +0.000 C 
ATOM     29  C   UNL     1      -1.461  12.487  18.246  0.00  0.00    +0.000 C 
ENDBRANCH  21  29
ENDBRANCH   1  21
TORSDOF 3
ENDMDL
