MODEL 1
REMARK VINA RESULT:      -7.9      0.000      0.000
REMARK  Name = 
REMARK  4 active torsions:
REMARK  status: ('A' for Active; 'I' for Inactive)
REMARK    1  A    between atoms: O_1  and  C_2
REMARK    2  A    between atoms: C_4  and  O_5
REMARK    3  A    between atoms: O_5  and  C_6
REMARK    4  A    between atoms: C_6  and  C_7
REMARK                            x       y       z     vdW  Elec       q    Type
REMARK                         _______ _______ _______ _____ _____    ______ ____
ROOT
ATOM      1  C   UNL     1       7.084   5.372  19.225  0.00  0.00    +0.000 A 
ATOM      2  N   UNL     1       5.802   5.799  19.212  0.00  0.00    +0.000 NA
ATOM      3  C   UNL     1       5.175   5.768  18.018  0.00  0.00    +0.000 A 
ATOM      4  C   UNL     1       5.878   5.312  16.929  0.00  0.00    +0.000 A 
ATOM      5  N   UNL     1       5.580   5.147  15.607  0.00  0.00    +0.000 N 
ATOM      6  C   UNL     1       6.697   4.647  14.999  0.00  0.00    +0.000 A 
ATOM      7  N   UNL     1       7.687   4.486  15.851  0.00  0.00    +0.000 NA
ATOM      8  C   UNL     1       7.187   4.898  17.058  0.00  0.00    +0.000 A 
ATOM      9  N   UNL     1       7.844   4.915  18.228  0.00  0.00    +0.000 NA
ATOM     10  H   UNL     1       4.693   5.358  15.170  0.00  0.00    +0.000 HD
ENDROOT
BRANCH   1  11
ATOM     11  O   UNL     1       7.675   5.421  20.449  0.00  0.00    +0.000 OA
ATOM     12  H   UNL     1       8.378   6.065  20.278  0.00  0.00    +0.000 HD
ENDBRANCH   1  11
BRANCH   3  13
ATOM     13  O   UNL     1       3.871   6.169  17.842  0.00  0.00    +0.000 OA
BRANCH  13  14
ATOM     14  C   UNL     1       3.126   6.372  19.039  0.00  0.00    +0.000 C 
BRANCH  14  15
ATOM     15  C   UNL     1       2.296   5.123  19.265  0.00  0.00    +0.000 A 
ATOM     16  C   UNL     1       1.941   4.717  20.561  0.00  0.00    +0.000 A 
ATOM     17  C   UNL     1       1.190   3.554  20.765  0.00  0.00    +0.000 A 
ATOM     18  C   UNL     1       0.795   2.777  19.679  0.00  0.00    +0.000 A 
ATOM     19  C   UNL     1       1.153   3.158  18.388  0.00  0.00    +0.000 A 
ATOM     20  C   UNL     1       1.903   4.321  18.182  0.00  0.00    +0.000 A 
ENDBRANCH  14  15
ENDBRANCH  13  14
ENDBRANCH   3  13
TORSDOF 4
ENDMDL
MODEL 2
REMARK VINA RESULT:      -7.9      0.061      1.138
REMARK  Name = 
REMARK  4 active torsions:
REMARK  status: ('A' for Active; 'I' for Inactive)
REMARK    1  A    between atoms: O_1  and  C_2
REMARK    2  A    between atoms: C_4  and  O_5
REMARK    3  A    between atoms: O_5  and  C_6
REMARK    4  A    between atoms: C_6  and  C_7
REMARK                            x       y       z     vdW  Elec       q    Type
REMARK                         _______ _______ _______ _____ _____    ______ ____
ROOT
ATOM      1  C   UNL     1       7.123   5.359  19.255  0.00  0.00    +0.000 A 
ATOM      2  N   UNL     1       5.842   5.793  19.257  0.00  0.00    +0.000 NA
ATOM      3  C   UNL     1       5.201   5.761  18.071  0.00  0.00    +0.000 A 
ATOM      4  C   UNL     1       5.887   5.299  16.974  0.00  0.00    +0.000 A 
ATOM      5  N   UNL     1       5.572   5.131  15.657  0.00  0.00    +0.000 N 
ATOM      6  C   UNL     1       6.679   4.624  15.036  0.00  0.00    +0.000 A 
ATOM      7  N   UNL     1       7.678   4.460  15.877  0.00  0.00    +0.000 NA
ATOM      8  C   UNL     1       7.195   4.879  17.088  0.00  0.00    +0.000 A 
ATOM      9  N   UNL     1       7.867   4.895  18.250  0.00  0.00    +0.000 NA
ATOM     10  H   UNL     1       4.681   5.346  15.231  0.00  0.00    +0.000 HD
ENDROOT
BRANCH   1  11
ATOM     11  O   UNL     1       7.729   5.408  20.472  0.00  0.00    +0.000 OA
ATOM     12  H   UNL     1       7.284   6.177  20.858  0.00  0.00    +0.000 HD
ENDBRANCH   1  11
BRANCH   3  13
ATOM     13  O   UNL     1       3.896   6.169  17.911  0.00  0.00    +0.000 OA
BRANCH  13  14
ATOM     14  C   UNL     1       3.149   6.320  19.113  0.00  0.00    +0.000 C 
BRANCH  14  15
ATOM     15  C   UNL     1       2.331   5.055  19.292  0.00  0.00    +0.000 A 
ATOM     16  C   UNL     1       1.936   4.289  18.184  0.00  0.00    +0.000 A 
ATOM     17  C   UNL     1       1.166   3.133  18.354  0.00  0.00    +0.000 A 
ATOM     18  C   UNL     1       0.772   2.735  19.629  0.00  0.00    +0.000 A 
ATOM     19  C   UNL     1       1.144   3.494  20.737  0.00  0.00    +0.000 A 
ATOM     20  C   UNL     1       1.914   4.649  20.569  0.00  0.00    +0.000 A 
ENDBRANCH  14  15
ENDBRANCH  13  14
ENDBRANCH   3  13
TORSDOF 4
ENDMDL
MODEL 3
REMARK VINA RESULT:      -7.8      1.562      2.060
REMARK  Name = 
REMARK  4 active torsions:
REMARK  status: ('A' for Active; 'I' for Inactive)
REMARK    1  A    between atoms: O_1  and  C_2
REMARK    2  A    between atoms: C_4  and  O_5
REMARK    3  A    between atoms: O_5  and  C_6
REMARK    4  A    between atoms: C_6  and  C_7
REMARK                            x       y       z     vdW  Elec       q    Type
REMARK                         _______ _______ _______ _____ _____    ______ ____
ROOT
ATOM      1  C   UNL     1       6.769   5.100  18.565  0.00  0.00    +0.000 A 
ATOM      2  N   UNL     1       5.554   4.507  18.563  0.00  0.00    +0.000 NA
ATOM      3  C   UNL     1       5.060   4.166  17.355  0.00  0.00    +0.000 A 
ATOM      4  C   UNL     1       5.816   4.445  16.242  0.00  0.00    +0.000 A 
ATOM      5  N   UNL     1       5.642   4.253  14.902  0.00  0.00    +0.000 N 
ATOM      6  C   UNL     1       6.753   4.742  14.274  0.00  0.00    +0.000 A 
ATOM      7  N   UNL     1       7.621   5.235  15.132  0.00  0.00    +0.000 NA
ATOM      8  C   UNL     1       7.046   5.055  16.362  0.00  0.00    +0.000 A 
ATOM      9  N   UNL     1       7.572   5.408  17.545  0.00  0.00    +0.000 NA
ATOM     10  H   UNL     1       4.836   3.826  14.466  0.00  0.00    +0.000 HD
ENDROOT
BRANCH   1  11
ATOM     11  O   UNL     1       7.228   5.426  19.803  0.00  0.00    +0.000 OA
ATOM     12  H   UNL     1       7.825   4.681  19.970  0.00  0.00    +0.000 HD
ENDBRANCH   1  11
BRANCH   3  13
ATOM     13  O   UNL     1       3.838   3.556  17.188  0.00  0.00    +0.000 OA
BRANCH  13  14
ATOM     14  C   UNL     1       3.681   2.307  17.854  0.00  0.00    +0.000 C 
BRANCH  14  15
ATOM     15  C   UNL     1       2.819   2.558  19.076  0.00  0.00    +0.000 A 
ATOM     16  C   UNL     1       1.476   2.946  18.944  0.00  0.00    +0.000 A 
ATOM     17  C   UNL     1       0.690   3.193  20.075  0.00  0.00    +0.000 A 
ATOM     18  C   UNL     1       1.238   3.068  21.349  0.00  0.00    +0.000 A 
ATOM     19  C   UNL     1       2.573   2.698  21.496  0.00  0.00    +0.000 A 
ATOM     20  C   UNL     1       3.360   2.450  20.367  0.00  0.00    +0.000 A 
ENDBRANCH  14  15
ENDBRANCH  13  14
ENDBRANCH   3  13
TORSDOF 4
ENDMDL
MODEL 4
REMARK VINA RESULT:      -7.8      1.566      1.874
REMARK  Name = 
REMARK  4 active torsions:
REMARK  status: ('A' for Active; 'I' for Inactive)
REMARK    1  A    between atoms: O_1  and  C_2
REMARK    2  A    between atoms: C_4  and  O_5
REMARK    3  A    between atoms: O_5  and  C_6
REMARK    4  A    between atoms: C_6  and  C_7
REMARK                            x       y       z     vdW  Elec       q    Type
REMARK                         _______ _______ _______ _____ _____    ______ ____
ROOT
ATOM      1  C   UNL     1       6.769   5.103  18.562  0.00  0.00    +0.000 A 
ATOM      2  N   UNL     1       5.556   4.506  18.555  0.00  0.00    +0.000 NA
ATOM      3  C   UNL     1       5.065   4.167  17.346  0.00  0.00    +0.000 A 
ATOM      4  C   UNL     1       5.823   4.451  16.235  0.00  0.00    +0.000 A 
ATOM      5  N   UNL     1       5.651   4.262  14.895  0.00  0.00    +0.000 N 
ATOM      6  C   UNL     1       6.762   4.756  14.270  0.00  0.00    +0.000 A 
ATOM      7  N   UNL     1       7.627   5.249  15.130  0.00  0.00    +0.000 NA
ATOM      8  C   UNL     1       7.051   5.064  16.359  0.00  0.00    +0.000 A 
ATOM      9  N   UNL     1       7.573   5.417  17.544  0.00  0.00    +0.000 NA
ATOM     10  H   UNL     1       4.847   3.834  14.456  0.00  0.00    +0.000 HD
ENDROOT
BRANCH   1  11
ATOM     11  O   UNL     1       7.225   5.427  19.802  0.00  0.00    +0.000 OA
ATOM     12  H   UNL     1       6.676   6.202  19.993  0.00  0.00    +0.000 HD
ENDBRANCH   1  11
BRANCH   3  13
ATOM     13  O   UNL     1       3.845   3.553  17.175  0.00  0.00    +0.000 OA
BRANCH  13  14
ATOM     14  C   UNL     1       3.681   2.316  17.859  0.00  0.00    +0.000 C 
BRANCH  14  15
ATOM     15  C   UNL     1       2.831   2.593  19.085  0.00  0.00    +0.000 A 
ATOM     16  C   UNL     1       3.362   2.457  20.377  0.00  0.00    +0.000 A 
ATOM     17  C   UNL     1       2.567   2.696  21.504  0.00  0.00    +0.000 A 
ATOM     18  C   UNL     1       1.232   3.061  21.355  0.00  0.00    +0.000 A 
ATOM     19  C   UNL     1       0.687   3.186  20.078  0.00  0.00    +0.000 A 
ATOM     20  C   UNL     1       1.479   2.948  18.950  0.00  0.00    +0.000 A 
ENDBRANCH  14  15
ENDBRANCH  13  14
ENDBRANCH   3  13
TORSDOF 4
ENDMDL
MODEL 5
REMARK VINA RESULT:      -7.6      1.748      2.081
REMARK  Name = 
REMARK  4 active torsions:
REMARK  status: ('A' for Active; 'I' for Inactive)
REMARK    1  A    between atoms: O_1  and  C_2
REMARK    2  A    between atoms: C_4  and  O_5
REMARK    3  A    between atoms: O_5  and  C_6
REMARK    4  A    between atoms: C_6  and  C_7
REMARK                            x       y       z     vdW  Elec       q    Type
REMARK                         _______ _______ _______ _____ _____    ______ ____
ROOT
ATOM      1  C   UNL     1       7.486   6.727  17.685  0.00  0.00    +0.000 A 
ATOM      2  N   UNL     1       6.866   5.950  18.602  0.00  0.00    +0.000 NA
ATOM      3  C   UNL     1       6.260   4.841  18.132  0.00  0.00    +0.000 A 
ATOM      4  C   UNL     1       6.319   4.593  16.782  0.00  0.00    +0.000 A 
ATOM      5  N   UNL     1       5.836   3.603  15.976  0.00  0.00    +0.000 N 
ATOM      6  C   UNL     1       6.219   3.898  14.697  0.00  0.00    +0.000 A 
ATOM      7  N   UNL     1       6.913   5.014  14.641  0.00  0.00    +0.000 NA
ATOM      8  C   UNL     1       6.981   5.456  15.936  0.00  0.00    +0.000 A 
ATOM      9  N   UNL     1       7.597   6.569  16.365  0.00  0.00    +0.000 NA
ATOM     10  H   UNL     1       5.296   2.804  16.280  0.00  0.00    +0.000 HD
ENDROOT
BRANCH   1  11
ATOM     11  O   UNL     1       8.083   7.833  18.204  0.00  0.00    +0.000 OA
ATOM     12  H   UNL     1       7.690   7.845  19.089  0.00  0.00    +0.000 HD
ENDBRANCH   1  11
BRANCH   3  13
ATOM     13  O   UNL     1       5.589   3.952  18.939  0.00  0.00    +0.000 OA
BRANCH  13  14
ATOM     14  C   UNL     1       4.579   4.518  19.767  0.00  0.00    +0.000 C 
BRANCH  14  15
ATOM     15  C   UNL     1       3.286   3.786  19.459  0.00  0.00    +0.000 A 
ATOM     16  C   UNL     1       3.214   2.863  18.404  0.00  0.00    +0.000 A 
ATOM     17  C   UNL     1       2.014   2.203  18.113  0.00  0.00    +0.000 A 
ATOM     18  C   UNL     1       0.871   2.466  18.864  0.00  0.00    +0.000 A 
ATOM     19  C   UNL     1       0.924   3.391  19.905  0.00  0.00    +0.000 A 
ATOM     20  C   UNL     1       2.122   4.051  20.197  0.00  0.00    +0.000 A 
ENDBRANCH  14  15
ENDBRANCH  13  14
ENDBRANCH   3  13
TORSDOF 4
ENDMDL
MODEL 6
REMARK VINA RESULT:      -7.6      1.749      1.814
REMARK  Name = 
REMARK  4 active torsions:
REMARK  status: ('A' for Active; 'I' for Inactive)
REMARK    1  A    between atoms: O_1  and  C_2
REMARK    2  A    between atoms: C_4  and  O_5
REMARK    3  A    between atoms: O_5  and  C_6
REMARK    4  A    between atoms: C_6  and  C_7
REMARK                            x       y       z     vdW  Elec       q    Type
REMARK                         _______ _______ _______ _____ _____    ______ ____
ROOT
ATOM      1  C   UNL     1       7.484   6.718  17.696  0.00  0.00    +0.000 A 
ATOM      2  N   UNL     1       6.863   5.939  18.611  0.00  0.00    +0.000 NA
ATOM      3  C   UNL     1       6.252   4.834  18.137  0.00  0.00    +0.000 A 
ATOM      4  C   UNL     1       6.309   4.591  16.786  0.00  0.00    +0.000 A 
ATOM      5  N   UNL     1       5.821   3.606  15.976  0.00  0.00    +0.000 N 
ATOM      6  C   UNL     1       6.204   3.904  14.699  0.00  0.00    +0.000 A 
ATOM      7  N   UNL     1       6.902   5.018  14.646  0.00  0.00    +0.000 NA
ATOM      8  C   UNL     1       6.973   5.455  15.942  0.00  0.00    +0.000 A 
ATOM      9  N   UNL     1       7.593   6.564  16.376  0.00  0.00    +0.000 NA
ATOM     10  H   UNL     1       5.279   2.808  16.278  0.00  0.00    +0.000 HD
ENDROOT
BRANCH   1  11
ATOM     11  O   UNL     1       8.085   7.820  18.219  0.00  0.00    +0.000 OA
ATOM     12  H   UNL     1       7.781   8.497  17.596  0.00  0.00    +0.000 HD
ENDBRANCH   1  11
BRANCH   3  13
ATOM     13  O   UNL     1       5.578   3.944  18.941  0.00  0.00    +0.000 OA
BRANCH  13  14
ATOM     14  C   UNL     1       4.568   4.510  19.769  0.00  0.00    +0.000 C 
BRANCH  14  15
ATOM     15  C   UNL     1       3.268   3.802  19.434  0.00  0.00    +0.000 A 
ATOM     16  C   UNL     1       2.093   4.074  20.153  0.00  0.00    +0.000 A 
ATOM     17  C   UNL     1       0.902   3.405  19.851  0.00  0.00    +0.000 A 
ATOM     18  C   UNL     1       0.872   2.449  18.839  0.00  0.00    +0.000 A 
ATOM     19  C   UNL     1       2.034   2.158  18.127  0.00  0.00    +0.000 A 
ATOM     20  C   UNL     1       3.226   2.826  18.426  0.00  0.00    +0.000 A 
ENDBRANCH  14  15
ENDBRANCH  13  14
ENDBRANCH   3  13
TORSDOF 4
ENDMDL
MODEL 7
REMARK VINA RESULT:      -7.6      1.284      1.795
REMARK  Name = 
REMARK  4 active torsions:
REMARK  status: ('A' for Active; 'I' for Inactive)
REMARK    1  A    between atoms: O_1  and  C_2
REMARK    2  A    between atoms: C_4  and  O_5
REMARK    3  A    between atoms: O_5  and  C_6
REMARK    4  A    between atoms: C_6  and  C_7
REMARK                            x       y       z     vdW  Elec       q    Type
REMARK                         _______ _______ _______ _____ _____    ______ ____
ROOT
ATOM      1  C   UNL     1       6.885   5.072  18.607  0.00  0.00    +0.000 A 
ATOM      2  N   UNL     1       5.799   4.267  18.611  0.00  0.00    +0.000 NA
ATOM      3  C   UNL     1       5.349   3.867  17.404  0.00  0.00    +0.000 A 
ATOM      4  C   UNL     1       6.017   4.302  16.285  0.00  0.00    +0.000 A 
ATOM      5  N   UNL     1       5.852   4.109  14.944  0.00  0.00    +0.000 N 
ATOM      6  C   UNL     1       6.841   4.806  14.309  0.00  0.00    +0.000 A 
ATOM      7  N   UNL     1       7.623   5.431  15.163  0.00  0.00    +0.000 NA
ATOM      8  C   UNL     1       7.118   5.124  16.399  0.00  0.00    +0.000 A 
ATOM      9  N   UNL     1       7.596   5.543  17.581  0.00  0.00    +0.000 NA
ATOM     10  H   UNL     1       5.128   3.550  14.513  0.00  0.00    +0.000 HD
ENDROOT
BRANCH   1  11
ATOM     11  O   UNL     1       7.303   5.450  19.844  0.00  0.00    +0.000 OA
ATOM     12  H   UNL     1       7.528   4.588  20.224  0.00  0.00    +0.000 HD
ENDBRANCH   1  11
BRANCH   3  13
ATOM     13  O   UNL     1       4.255   3.046  17.244  0.00  0.00    +0.000 OA
BRANCH  13  14
ATOM     14  C   UNL     1       3.005   3.712  17.103  0.00  0.00    +0.000 C 
BRANCH  14  15
ATOM     15  C   UNL     1       2.338   3.703  18.466  0.00  0.00    +0.000 A 
ATOM     16  C   UNL     1       1.780   2.526  18.987  0.00  0.00    +0.000 A 
ATOM     17  C   UNL     1       1.150   2.527  20.237  0.00  0.00    +0.000 A 
ATOM     18  C   UNL     1       1.060   3.705  20.974  0.00  0.00    +0.000 A 
ATOM     19  C   UNL     1       1.597   4.885  20.462  0.00  0.00    +0.000 A 
ATOM     20  C   UNL     1       2.227   4.885  19.214  0.00  0.00    +0.000 A 
ENDBRANCH  14  15
ENDBRANCH  13  14
ENDBRANCH   3  13
TORSDOF 4
ENDMDL
MODEL 8
REMARK VINA RESULT:      -7.6      1.712      3.067
REMARK  Name = 
REMARK  4 active torsions:
REMARK  status: ('A' for Active; 'I' for Inactive)
REMARK    1  A    between atoms: O_1  and  C_2
REMARK    2  A    between atoms: C_4  and  O_5
REMARK    3  A    between atoms: O_5  and  C_6
REMARK    4  A    between atoms: C_6  and  C_7
REMARK                            x       y       z     vdW  Elec       q    Type
REMARK                         _______ _______ _______ _____ _____    ______ ____
ROOT
ATOM      1  C   UNL     1       6.751   5.023  15.230  0.00  0.00    +0.000 A 
ATOM      2  N   UNL     1       5.715   4.186  15.467  0.00  0.00    +0.000 NA
ATOM      3  C   UNL     1       5.384   4.000  16.761  0.00  0.00    +0.000 A 
ATOM      4  C   UNL     1       6.112   4.662  17.719  0.00  0.00    +0.000 A 
ATOM      5  N   UNL     1       6.067   4.712  19.082  0.00  0.00    +0.000 N 
ATOM      6  C   UNL     1       7.059   5.559  19.491  0.00  0.00    +0.000 A 
ATOM      7  N   UNL     1       7.734   6.048  18.472  0.00  0.00    +0.000 NA
ATOM      8  C   UNL     1       7.152   5.495  17.362  0.00  0.00    +0.000 A 
ATOM      9  N   UNL     1       7.511   5.706  16.086  0.00  0.00    +0.000 NA
ATOM     10  H   UNL     1       5.414   4.212  19.670  0.00  0.00    +0.000 HD
ENDROOT
BRANCH   1  11
ATOM     11  O   UNL     1       7.049   5.181  13.912  0.00  0.00    +0.000 OA
ATOM     12  H   UNL     1       6.624   4.394  13.541  0.00  0.00    +0.000 HD
ENDBRANCH   1  11
BRANCH   3  13
ATOM     13  O   UNL     1       4.354   3.180  17.163  0.00  0.00    +0.000 OA
BRANCH  13  14
ATOM     14  C   UNL     1       3.048   3.733  17.043  0.00  0.00    +0.000 C 
BRANCH  14  15
ATOM     15  C   UNL     1       2.420   3.698  18.424  0.00  0.00    +0.000 A 
ATOM     16  C   UNL     1       2.173   4.883  19.134  0.00  0.00    +0.000 A 
ATOM     17  C   UNL     1       1.610   4.844  20.415  0.00  0.00    +0.000 A 
ATOM     18  C   UNL     1       1.299   3.622  21.005  0.00  0.00    +0.000 A 
ATOM     19  C   UNL     1       1.553   2.436  20.318  0.00  0.00    +0.000 A 
ATOM     20  C   UNL     1       2.115   2.473  19.038  0.00  0.00    +0.000 A 
ENDBRANCH  14  15
ENDBRANCH  13  14
ENDBRANCH   3  13
TORSDOF 4
ENDMDL
MODEL 9
REMARK VINA RESULT:      -7.5      1.170      1.309
REMARK  Name = 
REMARK  4 active torsions:
REMARK  status: ('A' for Active; 'I' for Inactive)
REMARK    1  A    between atoms: O_1  and  C_2
REMARK    2  A    between atoms: C_4  and  O_5
REMARK    3  A    between atoms: O_5  and  C_6
REMARK    4  A    between atoms: C_6  and  C_7
REMARK                            x       y       z     vdW  Elec       q    Type
REMARK                         _______ _______ _______ _____ _____    ______ ____
ROOT
ATOM      1  C   UNL     1       7.031   4.836  18.155  0.00  0.00    +0.000 A 
ATOM      2  N   UNL     1       5.695   4.671  18.274  0.00  0.00    +0.000 NA
ATOM      3  C   UNL     1       5.007   4.530  17.123  0.00  0.00    +0.000 A 
ATOM      4  C   UNL     1       5.706   4.564  15.941  0.00  0.00    +0.000 A 
ATOM      5  N   UNL     1       5.356   4.460  14.626  0.00  0.00    +0.000 N 
ATOM      6  C   UNL     1       6.503   4.570  13.890  0.00  0.00    +0.000 A 
ATOM      7  N   UNL     1       7.559   4.739  14.656  0.00  0.00    +0.000 NA
ATOM      8  C   UNL     1       7.074   4.738  15.937  0.00  0.00    +0.000 A 
ATOM      9  N   UNL     1       7.793   4.882  17.061  0.00  0.00    +0.000 NA
ATOM     10  H   UNL     1       4.418   4.326  14.273  0.00  0.00    +0.000 HD
ENDROOT
BRANCH   1  11
ATOM     11  O   UNL     1       7.684   4.975  19.341  0.00  0.00    +0.000 OA
ATOM     12  H   UNL     1       7.079   5.573  19.804  0.00  0.00    +0.000 HD
ENDBRANCH   1  11
BRANCH   3  13
ATOM     13  O   UNL     1       3.643   4.354  17.079  0.00  0.00    +0.000 OA
BRANCH  13  14
ATOM     14  C   UNL     1       2.882   5.265  17.864  0.00  0.00    +0.000 C 
BRANCH  14  15
ATOM     15  C   UNL     1       2.274   4.472  19.006  0.00  0.00    +0.000 A 
ATOM     16  C   UNL     1       2.658   4.709  20.334  0.00  0.00    +0.000 A 
ATOM     17  C   UNL     1       2.107   3.961  21.381  0.00  0.00    +0.000 A 
ATOM     18  C   UNL     1       1.175   2.962  21.113  0.00  0.00    +0.000 A 
ATOM     19  C   UNL     1       0.795   2.705  19.797  0.00  0.00    +0.000 A 
ATOM     20  C   UNL     1       1.344   3.451  18.750  0.00  0.00    +0.000 A 
ENDBRANCH  14  15
ENDBRANCH  13  14
ENDBRANCH   3  13
TORSDOF 4
ENDMDL
