MODEL 1
REMARK VINA RESULT:      -8.8      0.000      0.000
REMARK  Name = 
REMARK  6 active torsions:
REMARK  status: ('A' for Active; 'I' for Inactive)
REMARK    1  A    between atoms: C_4  and  C_5
REMARK    2  A    between atoms: C_8  and  N_9
REMARK    3  A    between atoms: N_18  and  C_19
REMARK    4  A    between atoms: N_25  and  C_26
REMARK    5  A    between atoms: C_26  and  C_27
REMARK    6  A    between atoms: C_27  and  C_28
REMARK                            x       y       z     vdW  Elec       q    Type
REMARK                         _______ _______ _______ _____ _____    ______ ____
ROOT
ATOM      1  O   UNL     1       0.730  10.573  22.736  0.00  0.00    +0.000 OA
ATOM      2  C   UNL     1       0.228  10.469  21.625  0.00  0.00    +0.000 C 
ATOM      3  C   UNL     1       0.760   9.575  20.557  0.00  0.00    +0.000 C 
ATOM      4  C   UNL     1       1.572   8.523  20.807  0.00  0.00    +0.000 C 
ATOM      5  S   UNL     1       0.139  10.091  19.055  0.00  0.00    +0.000 S 
ATOM      6  C   UNL     1      -1.194  10.926  19.826  0.00  0.00    +0.000 C 
ATOM      7  N   UNL     1      -2.310  11.273  19.276  0.00  0.00    +0.000 NA
ATOM      8  N   UNL     1      -0.881  11.154  21.143  0.00  0.00    +0.000 N 
ENDROOT
BRANCH   7   9
ATOM      9  C   UNL     1      -2.629  10.852  17.970  0.00  0.00    +0.000 A 
ATOM     10  C   UNL     1      -3.193   9.589  17.714  0.00  0.00    +0.000 A 
ATOM     11  C   UNL     1      -3.412   9.143  16.413  0.00  0.00    +0.000 A 
ATOM     12  C   UNL     1      -3.168   9.991  15.342  0.00  0.00    +0.000 A 
ATOM     13  C   UNL     1      -2.683  11.286  15.583  0.00  0.00    +0.000 A 
ATOM     14  C   UNL     1      -2.423  11.706  16.889  0.00  0.00    +0.000 A 
ENDBRANCH   7   9
BRANCH   4  15
ATOM     15  C   UNL     1       1.987   7.566  19.829  0.00  0.00    +0.000 A 
ATOM     16  C   UNL     1       2.482   7.808  18.552  0.00  0.00    +0.000 A 
ATOM     17  C   UNL     1       2.805   6.561  17.961  0.00  0.00    +0.000 A 
ATOM     18  C   UNL     1       2.515   5.593  18.890  0.00  0.00    +0.000 A 
ATOM     19  O   UNL     1       2.027   6.196  20.008  0.00  0.00    +0.000 OA
BRANCH  18  20
ATOM     20  N   UNL     1       2.657   4.246  18.891  0.00  0.00    +0.000 N 
ATOM     21  C   UNL     1       1.989   3.379  17.913  0.00  0.00    +0.000 C 
ATOM     22  C   UNL     1       0.979   2.462  18.626  0.00  0.00    +0.000 C 
ATOM     23  O   UNL     1       1.593   1.720  19.695  0.00  0.00    +0.000 OA
ATOM     24  C   UNL     1       2.161   2.622  20.665  0.00  0.00    +0.000 C 
ATOM     25  C   UNL     1       3.230   3.521  20.030  0.00  0.00    +0.000 C 
ENDBRANCH  18  20
ENDBRANCH   4  15
BRANCH   8  26
ATOM     26  C   UNL     1      -1.476  12.232  21.928  0.00  0.00    +0.000 C 
BRANCH  26  27
ATOM     27  C   UNL     1      -2.325  11.879  23.136  0.00  0.00    +0.000 C 
BRANCH  27  28
ATOM     28  C   UNL     1      -3.695  12.444  23.349  0.00  0.00    +0.000 A 
ATOM     29  C   UNL     1      -4.148  12.759  24.623  0.00  0.00    +0.000 A 
ATOM     30  N   UNL     1      -5.471  12.447  24.563  0.00  0.00    +0.000 N 
ATOM     31  C   UNL     1      -5.926  12.878  23.352  0.00  0.00    +0.000 A 
ATOM     32  C   UNL     1      -7.207  13.286  22.965  0.00  0.00    +0.000 A 
ATOM     33  C   UNL     1      -7.358  13.658  21.635  0.00  0.00    +0.000 A 
ATOM     34  C   UNL     1      -6.308  13.493  20.730  0.00  0.00    +0.000 A 
ATOM     35  C   UNL     1      -5.048  12.997  21.132  0.00  0.00    +0.000 A 
ATOM     36  C   UNL     1      -4.818  12.770  22.501  0.00  0.00    +0.000 A 
ATOM     37  H   UNL     1      -5.997  11.922  25.249  0.00  0.00    +0.000 HD
ENDBRANCH  27  28
ENDBRANCH  26  27
ENDBRANCH   8  26
TORSDOF 6
ENDMDL
MODEL 2
REMARK VINA RESULT:      -8.7      6.076     10.510
REMARK  Name = 
REMARK  6 active torsions:
REMARK  status: ('A' for Active; 'I' for Inactive)
REMARK    1  A    between atoms: C_4  and  C_5
REMARK    2  A    between atoms: C_8  and  N_9
REMARK    3  A    between atoms: N_18  and  C_19
REMARK    4  A    between atoms: N_25  and  C_26
REMARK    5  A    between atoms: C_26  and  C_27
REMARK    6  A    between atoms: C_27  and  C_28
REMARK                            x       y       z     vdW  Elec       q    Type
REMARK                         _______ _______ _______ _____ _____    ______ ____
ROOT
ATOM      1  O   UNL     1       7.664   5.208  15.989  0.00  0.00    +0.000 OA
ATOM      2  C   UNL     1       6.803   5.840  16.587  0.00  0.00    +0.000 C 
ATOM      3  C   UNL     1       7.082   7.071  17.382  0.00  0.00    +0.000 C 
ATOM      4  C   UNL     1       8.189   7.828  17.211  0.00  0.00    +0.000 C 
ATOM      5  S   UNL     1       5.780   7.336  18.450  0.00  0.00    +0.000 S 
ATOM      6  C   UNL     1       4.703   6.357  17.475  0.00  0.00    +0.000 C 
ATOM      7  N   UNL     1       3.411   6.386  17.483  0.00  0.00    +0.000 NA
ATOM      8  N   UNL     1       5.449   5.538  16.665  0.00  0.00    +0.000 N 
ENDROOT
BRANCH   7   9
ATOM      9  C   UNL     1       2.719   7.373  18.213  0.00  0.00    +0.000 A 
ATOM     10  C   UNL     1       2.368   7.187  19.563  0.00  0.00    +0.000 A 
ATOM     11  C   UNL     1       1.598   8.126  20.246  0.00  0.00    +0.000 A 
ATOM     12  C   UNL     1       1.251   9.317  19.627  0.00  0.00    +0.000 A 
ATOM     13  C   UNL     1       1.664   9.556  18.308  0.00  0.00    +0.000 A 
ATOM     14  C   UNL     1       2.395   8.589  17.616  0.00  0.00    +0.000 A 
ENDBRANCH   7   9
BRANCH   4  15
ATOM     15  C   UNL     1       8.421   9.084  17.854  0.00  0.00    +0.000 A 
ATOM     16  C   UNL     1       8.859   9.311  19.155  0.00  0.00    +0.000 A 
ATOM     17  C   UNL     1       8.990  10.710  19.338  0.00  0.00    +0.000 A 
ATOM     18  C   UNL     1       8.644  11.302  18.148  0.00  0.00    +0.000 A 
ATOM     19  O   UNL     1       8.305  10.328  17.261  0.00  0.00    +0.000 OA
BRANCH  18  20
ATOM     20  N   UNL     1       8.621  12.591  17.734  0.00  0.00    +0.000 N 
ATOM     21  C   UNL     1       9.786  13.477  17.837  0.00  0.00    +0.000 C 
ATOM     22  C   UNL     1       9.485  14.631  18.811  0.00  0.00    +0.000 C 
ATOM     23  O   UNL     1       8.285  15.336  18.449  0.00  0.00    +0.000 OA
ATOM     24  C   UNL     1       7.160  14.435  18.441  0.00  0.00    +0.000 C 
ATOM     25  C   UNL     1       7.368  13.294  17.436  0.00  0.00    +0.000 C 
ENDBRANCH  18  20
ENDBRANCH   4  15
BRANCH   8  26
ATOM     26  C   UNL     1       4.947   4.276  16.128  0.00  0.00    +0.000 C 
BRANCH  26  27
ATOM     27  C   UNL     1       4.594   3.157  17.092  0.00  0.00    +0.000 C 
BRANCH  27  28
ATOM     28  C   UNL     1       3.304   3.126  17.852  0.00  0.00    +0.000 A 
ATOM     29  C   UNL     1       2.086   3.229  17.195  0.00  0.00    +0.000 A 
ATOM     30  N   UNL     1       1.326   3.942  18.069  0.00  0.00    +0.000 N 
ATOM     31  C   UNL     1       1.598   3.461  19.315  0.00  0.00    +0.000 A 
ATOM     32  C   UNL     1       0.800   3.432  20.464  0.00  0.00    +0.000 A 
ATOM     33  C   UNL     1       1.379   2.882  21.600  0.00  0.00    +0.000 A 
ATOM     34  C   UNL     1       2.726   2.515  21.603  0.00  0.00    +0.000 A 
ATOM     35  C   UNL     1       3.534   2.635  20.451  0.00  0.00    +0.000 A 
ATOM     36  C   UNL     1       2.931   3.032  19.243  0.00  0.00    +0.000 A 
ATOM     37  H   UNL     1       0.735   4.733  17.848  0.00  0.00    +0.000 HD
ENDBRANCH  27  28
ENDBRANCH  26  27
ENDBRANCH   8  26
TORSDOF 6
ENDMDL
MODEL 3
REMARK VINA RESULT:      -8.7      6.036     10.503
REMARK  Name = 
REMARK  6 active torsions:
REMARK  status: ('A' for Active; 'I' for Inactive)
REMARK    1  A    between atoms: C_4  and  C_5
REMARK    2  A    between atoms: C_8  and  N_9
REMARK    3  A    between atoms: N_18  and  C_19
REMARK    4  A    between atoms: N_25  and  C_26
REMARK    5  A    between atoms: C_26  and  C_27
REMARK    6  A    between atoms: C_27  and  C_28
REMARK                            x       y       z     vdW  Elec       q    Type
REMARK                         _______ _______ _______ _____ _____    ______ ____
ROOT
ATOM      1  O   UNL     1       7.432   5.392  15.661  0.00  0.00    +0.000 OA
ATOM      2  C   UNL     1       6.609   5.986  16.344  0.00  0.00    +0.000 C 
ATOM      3  C   UNL     1       6.950   7.113  17.259  0.00  0.00    +0.000 C 
ATOM      4  C   UNL     1       8.081   7.844  17.143  0.00  0.00    +0.000 C 
ATOM      5  S   UNL     1       5.682   7.307  18.381  0.00  0.00    +0.000 S 
ATOM      6  C   UNL     1       4.548   6.478  17.334  0.00  0.00    +0.000 C 
ATOM      7  N   UNL     1       3.259   6.552  17.377  0.00  0.00    +0.000 NA
ATOM      8  N   UNL     1       5.246   5.726  16.423  0.00  0.00    +0.000 N 
ENDROOT
BRANCH   7   9
ATOM      9  C   UNL     1       2.621   7.478  18.226  0.00  0.00    +0.000 A 
ATOM     10  C   UNL     1       2.346   7.183  19.574  0.00  0.00    +0.000 A 
ATOM     11  C   UNL     1       1.627   8.065  20.377  0.00  0.00    +0.000 A 
ATOM     12  C   UNL     1       1.256   9.306  19.880  0.00  0.00    +0.000 A 
ATOM     13  C   UNL     1       1.595   9.651  18.563  0.00  0.00    +0.000 A 
ATOM     14  C   UNL     1       2.275   8.742  17.751  0.00  0.00    +0.000 A 
ENDBRANCH   7   9
BRANCH   4  15
ATOM     15  C   UNL     1       8.374   9.014  17.911  0.00  0.00    +0.000 A 
ATOM     16  C   UNL     1       8.874   9.084  19.207  0.00  0.00    +0.000 A 
ATOM     17  C   UNL     1       9.050  10.451  19.539  0.00  0.00    +0.000 A 
ATOM     18  C   UNL     1       8.669  11.180  18.439  0.00  0.00    +0.000 A 
ATOM     19  O   UNL     1       8.266  10.319  17.466  0.00  0.00    +0.000 OA
BRANCH  18  20
ATOM     20  N   UNL     1       8.662  12.507  18.173  0.00  0.00    +0.000 N 
ATOM     21  C   UNL     1       9.276  13.497  19.066  0.00  0.00    +0.000 C 
ATOM     22  C   UNL     1       8.195  14.430  19.642  0.00  0.00    +0.000 C 
ATOM     23  O   UNL     1       7.405  15.035  18.604  0.00  0.00    +0.000 OA
ATOM     24  C   UNL     1       6.762  14.020  17.809  0.00  0.00    +0.000 C 
ATOM     25  C   UNL     1       7.792  13.095  17.148  0.00  0.00    +0.000 C 
ENDBRANCH  18  20
ENDBRANCH   4  15
BRANCH   8  26
ATOM     26  C   UNL     1       4.685   4.547  15.767  0.00  0.00    +0.000 C 
BRANCH  26  27
ATOM     27  C   UNL     1       4.517   3.270  16.570  0.00  0.00    +0.000 C 
BRANCH  27  28
ATOM     28  C   UNL     1       4.208   3.276  18.035  0.00  0.00    +0.000 A 
ATOM     29  C   UNL     1       5.226   3.291  18.979  0.00  0.00    +0.000 A 
ATOM     30  N   UNL     1       4.723   2.525  19.985  0.00  0.00    +0.000 N 
ATOM     31  C   UNL     1       3.410   2.864  20.123  0.00  0.00    +0.000 A 
ATOM     32  C   UNL     1       2.579   2.809  21.248  0.00  0.00    +0.000 A 
ATOM     33  C   UNL     1       1.264   3.215  21.060  0.00  0.00    +0.000 A 
ATOM     34  C   UNL     1       0.792   3.523  19.783  0.00  0.00    +0.000 A 
ATOM     35  C   UNL     1       1.634   3.488  18.649  0.00  0.00    +0.000 A 
ATOM     36  C   UNL     1       3.007   3.243  18.835  0.00  0.00    +0.000 A 
ATOM     37  H   UNL     1       5.207   1.787  20.479  0.00  0.00    +0.000 HD
ENDBRANCH  27  28
ENDBRANCH  26  27
ENDBRANCH   8  26
TORSDOF 6
ENDMDL
MODEL 4
REMARK VINA RESULT:      -8.3      6.112     10.692
REMARK  Name = 
REMARK  6 active torsions:
REMARK  status: ('A' for Active; 'I' for Inactive)
REMARK    1  A    between atoms: C_4  and  C_5
REMARK    2  A    between atoms: C_8  and  N_9
REMARK    3  A    between atoms: N_18  and  C_19
REMARK    4  A    between atoms: N_25  and  C_26
REMARK    5  A    between atoms: C_26  and  C_27
REMARK    6  A    between atoms: C_27  and  C_28
REMARK                            x       y       z     vdW  Elec       q    Type
REMARK                         _______ _______ _______ _____ _____    ______ ____
ROOT
ATOM      1  O   UNL     1       7.533   5.466  15.687  0.00  0.00    +0.000 OA
ATOM      2  C   UNL     1       6.694   6.046  16.363  0.00  0.00    +0.000 C 
ATOM      3  C   UNL     1       7.015   7.148  17.315  0.00  0.00    +0.000 C 
ATOM      4  C   UNL     1       8.151   7.877  17.247  0.00  0.00    +0.000 C 
ATOM      5  S   UNL     1       5.719   7.319  18.408  0.00  0.00    +0.000 S 
ATOM      6  C   UNL     1       4.610   6.521  17.311  0.00  0.00    +0.000 C 
ATOM      7  N   UNL     1       3.320   6.600  17.323  0.00  0.00    +0.000 NA
ATOM      8  N   UNL     1       5.328   5.790  16.399  0.00  0.00    +0.000 N 
ENDROOT
BRANCH   7   9
ATOM      9  C   UNL     1       2.663   7.507  18.178  0.00  0.00    +0.000 A 
ATOM     10  C   UNL     1       2.265   8.784  17.742  0.00  0.00    +0.000 A 
ATOM     11  C   UNL     1       1.707   9.708  18.622  0.00  0.00    +0.000 A 
ATOM     12  C   UNL     1       1.440   9.341  19.932  0.00  0.00    +0.000 A 
ATOM     13  C   UNL     1       1.755   8.043  20.363  0.00  0.00    +0.000 A 
ATOM     14  C   UNL     1       2.357   7.139  19.487  0.00  0.00    +0.000 A 
ENDBRANCH   7   9
BRANCH   4  15
ATOM     15  C   UNL     1       8.429   9.026  18.052  0.00  0.00    +0.000 A 
ATOM     16  C   UNL     1       8.861   9.061  19.374  0.00  0.00    +0.000 A 
ATOM     17  C   UNL     1       9.048  10.417  19.741  0.00  0.00    +0.000 A 
ATOM     18  C   UNL     1       8.741  11.175  18.637  0.00  0.00    +0.000 A 
ATOM     19  O   UNL     1       8.372  10.341  17.627  0.00  0.00    +0.000 OA
BRANCH  18  20
ATOM     20  N   UNL     1       8.777  12.507  18.397  0.00  0.00    +0.000 N 
ATOM     21  C   UNL     1       9.391  13.079  17.193  0.00  0.00    +0.000 C 
ATOM     22  C   UNL     1      10.610  13.935  17.580  0.00  0.00    +0.000 C 
ATOM     23  O   UNL     1      10.272  14.935  18.556  0.00  0.00    +0.000 OA
ATOM     24  C   UNL     1       9.749  14.314  19.747  0.00  0.00    +0.000 C 
ATOM     25  C   UNL     1       8.487  13.497  19.440  0.00  0.00    +0.000 C 
ENDBRANCH  18  20
ENDBRANCH   4  15
BRANCH   8  26
ATOM     26  C   UNL     1       4.780   4.630  15.700  0.00  0.00    +0.000 C 
BRANCH  26  27
ATOM     27  C   UNL     1       4.571   3.339  16.470  0.00  0.00    +0.000 C 
BRANCH  27  28
ATOM     28  C   UNL     1       4.243   3.318  17.931  0.00  0.00    +0.000 A 
ATOM     29  C   UNL     1       5.248   3.336  18.888  0.00  0.00    +0.000 A 
ATOM     30  N   UNL     1       4.744   2.546  19.875  0.00  0.00    +0.000 N 
ATOM     31  C   UNL     1       3.424   2.862  20.001  0.00  0.00    +0.000 A 
ATOM     32  C   UNL     1       2.580   2.776  21.113  0.00  0.00    +0.000 A 
ATOM     33  C   UNL     1       1.261   3.163  20.914  0.00  0.00    +0.000 A 
ATOM     34  C   UNL     1       0.801   3.483  19.635  0.00  0.00    +0.000 A 
ATOM     35  C   UNL     1       1.657   3.479  18.512  0.00  0.00    +0.000 A 
ATOM     36  C   UNL     1       3.032   3.253  18.713  0.00  0.00    +0.000 A 
ATOM     37  H   UNL     1       5.234   1.809  20.364  0.00  0.00    +0.000 HD
ENDBRANCH  27  28
ENDBRANCH  26  27
ENDBRANCH   8  26
TORSDOF 6
ENDMDL
MODEL 5
REMARK VINA RESULT:      -8.3      2.805      9.835
REMARK  Name = 
REMARK  6 active torsions:
REMARK  status: ('A' for Active; 'I' for Inactive)
REMARK    1  A    between atoms: C_4  and  C_5
REMARK    2  A    between atoms: C_8  and  N_9
REMARK    3  A    between atoms: N_18  and  C_19
REMARK    4  A    between atoms: N_25  and  C_26
REMARK    5  A    between atoms: C_26  and  C_27
REMARK    6  A    between atoms: C_27  and  C_28
REMARK                            x       y       z     vdW  Elec       q    Type
REMARK                         _______ _______ _______ _____ _____    ______ ____
ROOT
ATOM      1  O   UNL     1      -0.399   9.054  17.452  0.00  0.00    +0.000 OA
ATOM      2  C   UNL     1      -0.686   9.865  18.322  0.00  0.00    +0.000 C 
ATOM      3  C   UNL     1      -1.885  10.750  18.267  0.00  0.00    +0.000 C 
ATOM      4  C   UNL     1      -2.962  10.490  17.493  0.00  0.00    +0.000 C 
ATOM      5  S   UNL     1      -1.653  12.050  19.344  0.00  0.00    +0.000 S 
ATOM      6  C   UNL     1      -0.452  11.159  20.256  0.00  0.00    +0.000 C 
ATOM      7  N   UNL     1      -0.071  11.392  21.469  0.00  0.00    +0.000 NA
ATOM      8  N   UNL     1       0.033  10.135  19.481  0.00  0.00    +0.000 N 
ENDROOT
BRANCH   7   9
ATOM      9  C   UNL     1      -0.738  12.349  22.259  0.00  0.00    +0.000 A 
ATOM     10  C   UNL     1      -0.288  13.679  22.351  0.00  0.00    +0.000 A 
ATOM     11  C   UNL     1      -0.894  14.591  23.211  0.00  0.00    +0.000 A 
ATOM     12  C   UNL     1      -2.027  14.222  23.922  0.00  0.00    +0.000 A 
ATOM     13  C   UNL     1      -2.539  12.924  23.780  0.00  0.00    +0.000 A 
ATOM     14  C   UNL     1      -1.897  12.003  22.950  0.00  0.00    +0.000 A 
ENDBRANCH   7   9
BRANCH   4  15
ATOM     15  C   UNL     1      -4.181  11.237  17.519  0.00  0.00    +0.000 A 
ATOM     16  C   UNL     1      -4.801  11.901  16.465  0.00  0.00    +0.000 A 
ATOM     17  C   UNL     1      -6.009  12.463  16.947  0.00  0.00    +0.000 A 
ATOM     18  C   UNL     1      -6.107  12.120  18.273  0.00  0.00    +0.000 A 
ATOM     19  O   UNL     1      -5.013  11.386  18.614  0.00  0.00    +0.000 OA
BRANCH  18  20
ATOM     20  N   UNL     1      -7.054  12.345  19.214  0.00  0.00    +0.000 N 
ATOM     21  C   UNL     1      -7.910  13.537  19.207  0.00  0.00    +0.000 C 
ATOM     22  C   UNL     1      -7.624  14.398  20.451  0.00  0.00    +0.000 C 
ATOM     23  O   UNL     1      -7.743  13.638  21.666  0.00  0.00    +0.000 OA
ATOM     24  C   UNL     1      -6.824  12.528  21.653  0.00  0.00    +0.000 C 
ATOM     25  C   UNL     1      -7.102  11.589  20.472  0.00  0.00    +0.000 C 
ENDBRANCH  18  20
ENDBRANCH   4  15
BRANCH   8  26
ATOM     26  C   UNL     1       1.350   9.538  19.683  0.00  0.00    +0.000 C 
BRANCH  26  27
ATOM     27  C   UNL     1       1.461   8.264  20.501  0.00  0.00    +0.000 C 
BRANCH  27  28
ATOM     28  C   UNL     1       2.074   7.010  19.958  0.00  0.00    +0.000 A 
ATOM     29  C   UNL     1       1.742   5.768  20.482  0.00  0.00    +0.000 A 
ATOM     30  N   UNL     1       2.913   5.080  20.403  0.00  0.00    +0.000 N 
ATOM     31  C   UNL     1       3.475   5.389  19.200  0.00  0.00    +0.000 A 
ATOM     32  C   UNL     1       4.341   4.644  18.392  0.00  0.00    +0.000 A 
ATOM     33  C   UNL     1       4.757   5.252  17.214  0.00  0.00    +0.000 A 
ATOM     34  C   UNL     1       4.425   6.581  16.946  0.00  0.00    +0.000 A 
ATOM     35  C   UNL     1       3.617   7.339  17.822  0.00  0.00    +0.000 A 
ATOM     36  C   UNL     1       3.046   6.698  18.937  0.00  0.00    +0.000 A 
ATOM     37  H   UNL     1       3.328   4.513  21.131  0.00  0.00    +0.000 HD
ENDBRANCH  27  28
ENDBRANCH  26  27
ENDBRANCH   8  26
TORSDOF 6
ENDMDL
MODEL 6
REMARK VINA RESULT:      -8.2      2.591      9.466
REMARK  Name = 
REMARK  6 active torsions:
REMARK  status: ('A' for Active; 'I' for Inactive)
REMARK    1  A    between atoms: C_4  and  C_5
REMARK    2  A    between atoms: C_8  and  N_9
REMARK    3  A    between atoms: N_18  and  C_19
REMARK    4  A    between atoms: N_25  and  C_26
REMARK    5  A    between atoms: C_26  and  C_27
REMARK    6  A    between atoms: C_27  and  C_28
REMARK                            x       y       z     vdW  Elec       q    Type
REMARK                         _______ _______ _______ _____ _____    ______ ____
ROOT
ATOM      1  O   UNL     1       0.785   8.619  17.835  0.00  0.00    +0.000 OA
ATOM      2  C   UNL     1       0.268   9.398  18.625  0.00  0.00    +0.000 C 
ATOM      3  C   UNL     1      -0.902  10.260  18.291  0.00  0.00    +0.000 C 
ATOM      4  C   UNL     1      -1.743  10.003  17.264  0.00  0.00    +0.000 C 
ATOM      5  S   UNL     1      -0.983  11.531  19.424  0.00  0.00    +0.000 S 
ATOM      6  C   UNL     1      -0.027  10.636  20.587  0.00  0.00    +0.000 C 
ATOM      7  N   UNL     1       0.030  10.839  21.862  0.00  0.00    +0.000 NA
ATOM      8  N   UNL     1       0.664   9.646  19.934  0.00  0.00    +0.000 N 
ENDROOT
BRANCH   7   9
ATOM      9  C   UNL     1      -0.839  11.759  22.482  0.00  0.00    +0.000 A 
ATOM     10  C   UNL     1      -2.031  11.349  23.107  0.00  0.00    +0.000 A 
ATOM     11  C   UNL     1      -2.931  12.275  23.628  0.00  0.00    +0.000 A 
ATOM     12  C   UNL     1      -2.610  13.625  23.629  0.00  0.00    +0.000 A 
ATOM     13  C   UNL     1      -1.387  14.044  23.084  0.00  0.00    +0.000 A 
ATOM     14  C   UNL     1      -0.513  13.113  22.522  0.00  0.00    +0.000 A 
ENDBRANCH   7   9
BRANCH   4  15
ATOM     15  C   UNL     1      -2.948  10.725  17.000  0.00  0.00    +0.000 A 
ATOM     16  C   UNL     1      -3.459  11.117  15.766  0.00  0.00    +0.000 A 
ATOM     17  C   UNL     1      -4.698  11.767  15.989  0.00  0.00    +0.000 A 
ATOM     18  C   UNL     1      -4.923  11.745  17.344  0.00  0.00    +0.000 A 
ATOM     19  O   UNL     1      -3.875  11.120  17.947  0.00  0.00    +0.000 OA
BRANCH  18  20
ATOM     20  N   UNL     1      -5.950  12.177  18.113  0.00  0.00    +0.000 N 
ATOM     21  C   UNL     1      -7.094  12.914  17.565  0.00  0.00    +0.000 C 
ATOM     22  C   UNL     1      -7.126  14.342  18.140  0.00  0.00    +0.000 C 
ATOM     23  O   UNL     1      -7.107  14.338  19.578  0.00  0.00    +0.000 OA
ATOM     24  C   UNL     1      -5.923  13.674  20.061  0.00  0.00    +0.000 C 
ATOM     25  C   UNL     1      -5.866  12.218  19.578  0.00  0.00    +0.000 C 
ENDBRANCH  18  20
ENDBRANCH   4  15
BRANCH   8  26
ATOM     26  C   UNL     1       1.904   9.068  20.447  0.00  0.00    +0.000 C 
BRANCH  26  27
ATOM     27  C   UNL     1       1.910   7.615  20.886  0.00  0.00    +0.000 C 
BRANCH  27  28
ATOM     28  C   UNL     1       2.236   6.493  19.949  0.00  0.00    +0.000 A 
ATOM     29  C   UNL     1       3.217   6.636  18.978  0.00  0.00    +0.000 A 
ATOM     30  N   UNL     1       2.722   5.917  17.935  0.00  0.00    +0.000 N 
ATOM     31  C   UNL     1       2.183   4.779  18.458  0.00  0.00    +0.000 A 
ATOM     32  C   UNL     1       2.019   3.514  17.885  0.00  0.00    +0.000 A 
ATOM     33  C   UNL     1       1.410   2.553  18.682  0.00  0.00    +0.000 A 
ATOM     34  C   UNL     1       0.879   2.896  19.927  0.00  0.00    +0.000 A 
ATOM     35  C   UNL     1       0.984   4.205  20.446  0.00  0.00    +0.000 A 
ATOM     36  C   UNL     1       1.740   5.155  19.734  0.00  0.00    +0.000 A 
ATOM     37  H   UNL     1       2.686   6.207  16.967  0.00  0.00    +0.000 HD
ENDBRANCH  27  28
ENDBRANCH  26  27
ENDBRANCH   8  26
TORSDOF 6
ENDMDL
MODEL 7
REMARK VINA RESULT:      -8.2      1.185      1.506
REMARK  Name = 
REMARK  6 active torsions:
REMARK  status: ('A' for Active; 'I' for Inactive)
REMARK    1  A    between atoms: C_4  and  C_5
REMARK    2  A    between atoms: C_8  and  N_9
REMARK    3  A    between atoms: N_18  and  C_19
REMARK    4  A    between atoms: N_25  and  C_26
REMARK    5  A    between atoms: C_26  and  C_27
REMARK    6  A    between atoms: C_27  and  C_28
REMARK                            x       y       z     vdW  Elec       q    Type
REMARK                         _______ _______ _______ _____ _____    ______ ____
ROOT
ATOM      1  O   UNL     1       0.420  10.583  23.004  0.00  0.00    +0.000 OA
ATOM      2  C   UNL     1      -0.023  10.499  21.866  0.00  0.00    +0.000 C 
ATOM      3  C   UNL     1       0.532   9.584  20.827  0.00  0.00    +0.000 C 
ATOM      4  C   UNL     1       1.285   8.501  21.120  0.00  0.00    +0.000 C 
ATOM      5  S   UNL     1       0.016  10.125  19.294  0.00  0.00    +0.000 S 
ATOM      6  C   UNL     1      -1.324  11.013  19.992  0.00  0.00    +0.000 C 
ATOM      7  N   UNL     1      -2.393  11.405  19.381  0.00  0.00    +0.000 NA
ATOM      8  N   UNL     1      -1.075  11.228  21.324  0.00  0.00    +0.000 N 
ENDROOT
BRANCH   7   9
ATOM      9  C   UNL     1      -2.655  10.997  18.058  0.00  0.00    +0.000 A 
ATOM     10  C   UNL     1      -1.875  10.018  17.414  0.00  0.00    +0.000 A 
ATOM     11  C   UNL     1      -2.080   9.695  16.076  0.00  0.00    +0.000 A 
ATOM     12  C   UNL     1      -3.135  10.267  15.380  0.00  0.00    +0.000 A 
ATOM     13  C   UNL     1      -3.975  11.183  16.031  0.00  0.00    +0.000 A 
ATOM     14  C   UNL     1      -3.733  11.536  17.359  0.00  0.00    +0.000 A 
ENDBRANCH   7   9
BRANCH   4  15
ATOM     15  C   UNL     1       1.715   7.528  20.164  0.00  0.00    +0.000 A 
ATOM     16  C   UNL     1       2.330   7.750  18.935  0.00  0.00    +0.000 A 
ATOM     17  C   UNL     1       2.618   6.490  18.353  0.00  0.00    +0.000 A 
ATOM     18  C   UNL     1       2.188   5.533  19.240  0.00  0.00    +0.000 A 
ATOM     19  O   UNL     1       1.650   6.157  20.324  0.00  0.00    +0.000 OA
BRANCH  18  20
ATOM     20  N   UNL     1       2.239   4.181  19.231  0.00  0.00    +0.000 N 
ATOM     21  C   UNL     1       2.898   3.406  20.289  0.00  0.00    +0.000 C 
ATOM     22  C   UNL     1       4.108   2.649  19.712  0.00  0.00    +0.000 C 
ATOM     23  O   UNL     1       3.742   1.840  18.580  0.00  0.00    +0.000 OA
ATOM     24  C   UNL     1       3.175   2.663  17.541  0.00  0.00    +0.000 C 
ATOM     25  C   UNL     1       1.919   3.394  18.034  0.00  0.00    +0.000 C 
ENDBRANCH  18  20
ENDBRANCH   4  15
BRANCH   8  26
ATOM     26  C   UNL     1      -1.670  12.329  22.077  0.00  0.00    +0.000 C 
BRANCH  26  27
ATOM     27  C   UNL     1      -2.547  12.010  23.275  0.00  0.00    +0.000 C 
BRANCH  27  28
ATOM     28  C   UNL     1      -3.730  12.848  23.651  0.00  0.00    +0.000 A 
ATOM     29  C   UNL     1      -4.462  12.576  24.798  0.00  0.00    +0.000 A 
ATOM     30  N   UNL     1      -5.735  12.882  24.429  0.00  0.00    +0.000 N 
ATOM     31  C   UNL     1      -5.671  14.030  23.696  0.00  0.00    +0.000 A 
ATOM     32  C   UNL     1      -6.625  15.036  23.513  0.00  0.00    +0.000 A 
ATOM     33  C   UNL     1      -6.259  16.086  22.680  0.00  0.00    +0.000 A 
ATOM     34  C   UNL     1      -5.056  16.043  21.973  0.00  0.00    +0.000 A 
ATOM     35  C   UNL     1      -4.147  14.971  22.112  0.00  0.00    +0.000 A 
ATOM     36  C   UNL     1      -4.417  13.979  23.072  0.00  0.00    +0.000 A 
ATOM     37  H   UNL     1      -6.561  12.322  24.595  0.00  0.00    +0.000 HD
ENDBRANCH  27  28
ENDBRANCH  26  27
ENDBRANCH   8  26
TORSDOF 6
ENDMDL
MODEL 8
REMARK VINA RESULT:      -8.2      1.637      2.391
REMARK  Name = 
REMARK  6 active torsions:
REMARK  status: ('A' for Active; 'I' for Inactive)
REMARK    1  A    between atoms: C_4  and  C_5
REMARK    2  A    between atoms: C_8  and  N_9
REMARK    3  A    between atoms: N_18  and  C_19
REMARK    4  A    between atoms: N_25  and  C_26
REMARK    5  A    between atoms: C_26  and  C_27
REMARK    6  A    between atoms: C_27  and  C_28
REMARK                            x       y       z     vdW  Elec       q    Type
REMARK                         _______ _______ _______ _____ _____    ______ ____
ROOT
ATOM      1  O   UNL     1       0.585  10.178  23.312  0.00  0.00    +0.000 OA
ATOM      2  C   UNL     1       0.162  10.164  22.164  0.00  0.00    +0.000 C 
ATOM      3  C   UNL     1       0.672   9.245  21.105  0.00  0.00    +0.000 C 
ATOM      4  C   UNL     1       1.338   8.101  21.375  0.00  0.00    +0.000 C 
ATOM      5  S   UNL     1       0.230   9.872  19.582  0.00  0.00    +0.000 S 
ATOM      6  C   UNL     1      -1.057  10.832  20.283  0.00  0.00    +0.000 C 
ATOM      7  N   UNL     1      -2.082  11.321  19.666  0.00  0.00    +0.000 NA
ATOM      8  N   UNL     1      -0.823  10.985  21.627  0.00  0.00    +0.000 N 
ENDROOT
BRANCH   7   9
ATOM      9  C   UNL     1      -2.344  10.976  18.325  0.00  0.00    +0.000 A 
ATOM     10  C   UNL     1      -3.368  11.596  17.586  0.00  0.00    +0.000 A 
ATOM     11  C   UNL     1      -3.683  11.180  16.295  0.00  0.00    +0.000 A 
ATOM     12  C   UNL     1      -2.915  10.204  15.677  0.00  0.00    +0.000 A 
ATOM     13  C   UNL     1      -1.837   9.633  16.369  0.00  0.00    +0.000 A 
ATOM     14  C   UNL     1      -1.557  10.024  17.680  0.00  0.00    +0.000 A 
ENDBRANCH   7   9
BRANCH   4  15
ATOM     15  C   UNL     1       1.718   7.131  20.395  0.00  0.00    +0.000 A 
ATOM     16  C   UNL     1       2.276   7.356  19.140  0.00  0.00    +0.000 A 
ATOM     17  C   UNL     1       2.529   6.098  18.539  0.00  0.00    +0.000 A 
ATOM     18  C   UNL     1       2.134   5.139  19.439  0.00  0.00    +0.000 A 
ATOM     19  O   UNL     1       1.650   5.759  20.550  0.00  0.00    +0.000 OA
BRANCH  18  20
ATOM     20  N   UNL     1       2.176   3.786  19.420  0.00  0.00    +0.000 N 
ATOM     21  C   UNL     1       2.941   3.003  20.399  0.00  0.00    +0.000 C 
ATOM     22  C   UNL     1       4.077   2.242  19.692  0.00  0.00    +0.000 C 
ATOM     23  O   UNL     1       3.587   1.440  18.604  0.00  0.00    +0.000 OA
ATOM     24  C   UNL     1       2.916   2.270  17.635  0.00  0.00    +0.000 C 
ATOM     25  C   UNL     1       1.725   3.006  18.262  0.00  0.00    +0.000 C 
ENDBRANCH  18  20
ENDBRANCH   4  15
BRANCH   8  26
ATOM     26  C   UNL     1      -1.352  12.101  22.406  0.00  0.00    +0.000 C 
BRANCH  26  27
ATOM     27  C   UNL     1      -2.596  11.884  23.250  0.00  0.00    +0.000 C 
BRANCH  27  28
ATOM     28  C   UNL     1      -3.494  13.008  23.663  0.00  0.00    +0.000 A 
ATOM     29  C   UNL     1      -4.874  12.896  23.557  0.00  0.00    +0.000 A 
ATOM     30  N   UNL     1      -5.258  14.156  23.219  0.00  0.00    +0.000 N 
ATOM     31  C   UNL     1      -4.516  15.014  23.975  0.00  0.00    +0.000 A 
ATOM     32  C   UNL     1      -4.811  16.306  24.424  0.00  0.00    +0.000 A 
ATOM     33  C   UNL     1      -3.826  16.936  25.173  0.00  0.00    +0.000 A 
ATOM     34  C   UNL     1      -2.572  16.345  25.336  0.00  0.00    +0.000 A 
ATOM     35  C   UNL     1      -2.272  15.073  24.799  0.00  0.00    +0.000 A 
ATOM     36  C   UNL     1      -3.302  14.343  24.179  0.00  0.00    +0.000 A 
ATOM     37  H   UNL     1      -5.910  14.411  22.489  0.00  0.00    +0.000 HD
ENDBRANCH  27  28
ENDBRANCH  26  27
ENDBRANCH   8  26
TORSDOF 6
ENDMDL
MODEL 9
REMARK VINA RESULT:      -8.2      6.073     10.331
REMARK  Name = 
REMARK  6 active torsions:
REMARK  status: ('A' for Active; 'I' for Inactive)
REMARK    1  A    between atoms: C_4  and  C_5
REMARK    2  A    between atoms: C_8  and  N_9
REMARK    3  A    between atoms: N_18  and  C_19
REMARK    4  A    between atoms: N_25  and  C_26
REMARK    5  A    between atoms: C_26  and  C_27
REMARK    6  A    between atoms: C_27  and  C_28
REMARK                            x       y       z     vdW  Elec       q    Type
REMARK                         _______ _______ _______ _____ _____    ______ ____
ROOT
ATOM      1  O   UNL     1       7.714   5.156  16.079  0.00  0.00    +0.000 OA
ATOM      2  C   UNL     1       6.835   5.790  16.649  0.00  0.00    +0.000 C 
ATOM      3  C   UNL     1       7.082   7.052  17.405  0.00  0.00    +0.000 C 
ATOM      4  C   UNL     1       8.175   7.825  17.218  0.00  0.00    +0.000 C 
ATOM      5  S   UNL     1       5.766   7.325  18.453  0.00  0.00    +0.000 S 
ATOM      6  C   UNL     1       4.717   6.292  17.503  0.00  0.00    +0.000 C 
ATOM      7  N   UNL     1       3.425   6.295  17.501  0.00  0.00    +0.000 NA
ATOM      8  N   UNL     1       5.487   5.463  16.726  0.00  0.00    +0.000 N 
ENDROOT
BRANCH   7   9
ATOM      9  C   UNL     1       2.708   7.291  18.193  0.00  0.00    +0.000 A 
ATOM     10  C   UNL     1       2.344   7.140  19.544  0.00  0.00    +0.000 A 
ATOM     11  C   UNL     1       1.550   8.085  20.189  0.00  0.00    +0.000 A 
ATOM     12  C   UNL     1       1.189   9.251  19.530  0.00  0.00    +0.000 A 
ATOM     13  C   UNL     1       1.613   9.456  18.208  0.00  0.00    +0.000 A 
ATOM     14  C   UNL     1       2.370   8.482  17.554  0.00  0.00    +0.000 A 
ENDBRANCH   7   9
BRANCH   4  15
ATOM     15  C   UNL     1       8.376   9.106  17.820  0.00  0.00    +0.000 A 
ATOM     16  C   UNL     1       8.002  10.352  17.327  0.00  0.00    +0.000 A 
ATOM     17  C   UNL     1       8.364  11.332  18.285  0.00  0.00    +0.000 A 
ATOM     18  C   UNL     1       8.935  10.665  19.341  0.00  0.00    +0.000 A 
ATOM     19  O   UNL     1       8.940   9.333  19.062  0.00  0.00    +0.000 OA
BRANCH  18  20
ATOM     20  N   UNL     1       9.422  11.078  20.535  0.00  0.00    +0.000 N 
ATOM     21  C   UNL     1       8.637  11.023  21.773  0.00  0.00    +0.000 C 
ATOM     22  C   UNL     1       8.381  12.447  22.299  0.00  0.00    +0.000 C 
ATOM     23  O   UNL     1       9.605  13.187  22.453  0.00  0.00    +0.000 OA
ATOM     24  C   UNL     1      10.295  13.279  21.190  0.00  0.00    +0.000 C 
ATOM     25  C   UNL     1      10.642  11.888  20.643  0.00  0.00    +0.000 C 
ENDBRANCH  18  20
ENDBRANCH   4  15
BRANCH   8  26
ATOM     26  C   UNL     1       5.015   4.173  16.229  0.00  0.00    +0.000 C 
BRANCH  26  27
ATOM     27  C   UNL     1       4.659   3.086  17.227  0.00  0.00    +0.000 C 
BRANCH  27  28
ATOM     28  C   UNL     1       3.338   3.040  17.930  0.00  0.00    +0.000 A 
ATOM     29  C   UNL     1       2.148   3.074  17.216  0.00  0.00    +0.000 A 
ATOM     30  N   UNL     1       1.325   3.793  18.026  0.00  0.00    +0.000 N 
ATOM     31  C   UNL     1       1.557   3.372  19.302  0.00  0.00    +0.000 A 
ATOM     32  C   UNL     1       0.708   3.360  20.414  0.00  0.00    +0.000 A 
ATOM     33  C   UNL     1       1.253   2.876  21.597  0.00  0.00    +0.000 A 
ATOM     34  C   UNL     1       2.610   2.557  21.674  0.00  0.00    +0.000 A 
ATOM     35  C   UNL     1       3.465   2.660  20.555  0.00  0.00    +0.000 A 
ATOM     36  C   UNL     1       2.905   2.987  19.306  0.00  0.00    +0.000 A 
ATOM     37  H   UNL     1       0.719   4.553  17.746  0.00  0.00    +0.000 HD
ENDBRANCH  27  28
ENDBRANCH  26  27
ENDBRANCH   8  26
TORSDOF 6
ENDMDL
