MODEL 1
REMARK VINA RESULT:      -9.0      0.000      0.000
REMARK  Name = 
REMARK  7 active torsions:
REMARK  status: ('A' for Active; 'I' for Inactive)
REMARK    1  A    between atoms: C_2  and  C_3
REMARK    2  A    between atoms: C_3  and  S_4
REMARK    3  A    between atoms: S_4  and  C_5
REMARK    4  A    between atoms: C_8  and  C_9
REMARK    5  A    between atoms: N_15  and  C_16
REMARK    6  A    between atoms: N_22  and  N_23
REMARK    7  A    between atoms: C_24  and  C_25
REMARK                            x       y       z     vdW  Elec       q    Type
REMARK                         _______ _______ _______ _____ _____    ______ ____
ROOT
ATOM      1  C   UNL     1       4.308   5.691  17.637  0.00  0.00    +0.000 A 
ATOM      2  N   UNL     1       4.635   6.741  16.920  0.00  0.00    +0.000 NA
ATOM      3  N   UNL     1       3.750   7.739  17.212  0.00  0.00    +0.000 NA
ATOM      4  C   UNL     1       2.904   7.303  18.133  0.00  0.00    +0.000 A 
ATOM      5  N   UNL     1       3.155   5.940  18.369  0.00  0.00    +0.000 N 
ENDROOT
BRANCH   4   6
ATOM      6  C   UNL     1       1.944   8.173  18.835  0.00  0.00    +0.000 A 
ATOM      7  C   UNL     1       1.259   9.166  18.131  0.00  0.00    +0.000 A 
ATOM      8  C   UNL     1       0.330   9.943  18.808  0.00  0.00    +0.000 A 
ATOM      9  N   UNL     1       0.037   9.793  20.117  0.00  0.00    +0.000 NA
ATOM     10  C   UNL     1       0.732   8.857  20.789  0.00  0.00    +0.000 A 
ATOM     11  C   UNL     1       1.703   8.057  20.208  0.00  0.00    +0.000 A 
ENDBRANCH   4   6
BRANCH   5  12
ATOM     12  C   UNL     1       2.408   5.071  19.221  0.00  0.00    +0.000 A 
ATOM     13  C   UNL     1       2.729   4.985  20.586  0.00  0.00    +0.000 A 
ATOM     14  C   UNL     1       2.158   3.991  21.386  0.00  0.00    +0.000 A 
ATOM     15  C   UNL     1       1.223   3.116  20.846  0.00  0.00    +0.000 A 
ATOM     16  C   UNL     1       0.843   3.244  19.512  0.00  0.00    +0.000 A 
ATOM     17  C   UNL     1       1.435   4.213  18.697  0.00  0.00    +0.000 A 
ENDBRANCH   5  12
BRANCH   1  18
ATOM     18  S   UNL     1       5.155   4.181  17.540  0.00  0.00    +0.000 S 
BRANCH  18  19
ATOM     19  C   UNL     1       6.800   4.723  16.997  0.00  0.00    +0.000 C 
BRANCH  19  21
ATOM     20  O   UNL     1       7.816   5.210  19.126  0.00  0.00    +0.000 OA
ATOM     21  C   UNL     1       7.464   5.626  18.021  0.00  0.00    +0.000 C 
ATOM     22  N   UNL     1       7.620   6.932  17.571  0.00  0.00    +0.000 N 
ATOM     23  H   UNL     1       7.070   7.256  16.774  0.00  0.00    +0.000 HD
BRANCH  22  24
ATOM     24  N   UNL     1       8.239   7.856  18.362  0.00  0.00    +0.000 NA
ATOM     25  C   UNL     1       8.305   9.052  17.862  0.00  0.00    +0.000 C 
BRANCH  25  26
ATOM     26  C   UNL     1       8.932  10.174  18.590  0.00  0.00    +0.000 A 
ATOM     27  C   UNL     1       9.444  11.272  17.909  0.00  0.00    +0.000 A 
ATOM     28  C   UNL     1      10.040  12.283  18.656  0.00  0.00    +0.000 A 
ATOM     29  C   UNL     1      10.100  12.164  20.039  0.00  0.00    +0.000 A 
ATOM     30  C   UNL     1       9.559  11.031  20.630  0.00  0.00    +0.000 A 
ATOM     31  N   UNL     1       8.970  10.031  19.937  0.00  0.00    +0.000 NA
ENDBRANCH  25  26
ENDBRANCH  22  24
ENDBRANCH  19  21
ENDBRANCH  18  19
ENDBRANCH   1  18
TORSDOF 7
ENDMDL
MODEL 2
REMARK VINA RESULT:      -8.9      0.632      1.267
REMARK  Name = 
REMARK  7 active torsions:
REMARK  status: ('A' for Active; 'I' for Inactive)
REMARK    1  A    between atoms: C_2  and  C_3
REMARK    2  A    between atoms: C_3  and  S_4
REMARK    3  A    between atoms: S_4  and  C_5
REMARK    4  A    between atoms: C_8  and  C_9
REMARK    5  A    between atoms: N_15  and  C_16
REMARK    6  A    between atoms: N_22  and  N_23
REMARK    7  A    between atoms: C_24  and  C_25
REMARK                            x       y       z     vdW  Elec       q    Type
REMARK                         _______ _______ _______ _____ _____    ______ ____
ROOT
ATOM      1  C   UNL     1       4.503   5.584  17.432  0.00  0.00    +0.000 A 
ATOM      2  N   UNL     1       4.809   6.671  16.761  0.00  0.00    +0.000 NA
ATOM      3  N   UNL     1       3.928   7.648  17.124  0.00  0.00    +0.000 NA
ATOM      4  C   UNL     1       3.106   7.162  18.042  0.00  0.00    +0.000 A 
ATOM      5  N   UNL     1       3.368   5.791  18.204  0.00  0.00    +0.000 N 
ENDROOT
BRANCH   4   6
ATOM      6  C   UNL     1       2.160   7.991  18.811  0.00  0.00    +0.000 A 
ATOM      7  C   UNL     1       1.468   9.026  18.179  0.00  0.00    +0.000 A 
ATOM      8  C   UNL     1       0.553   9.763  18.916  0.00  0.00    +0.000 A 
ATOM      9  N   UNL     1       0.280   9.536  20.219  0.00  0.00    +0.000 NA
ATOM     10  C   UNL     1       0.983   8.560  20.822  0.00  0.00    +0.000 A 
ATOM     11  C   UNL     1       1.942   7.795  20.178  0.00  0.00    +0.000 A 
ENDBRANCH   4   6
BRANCH   5  12
ATOM     12  C   UNL     1       2.646   4.876  19.029  0.00  0.00    +0.000 A 
ATOM     13  C   UNL     1       1.533   4.193  18.508  0.00  0.00    +0.000 A 
ATOM     14  C   UNL     1       0.691   3.465  19.353  0.00  0.00    +0.000 A 
ATOM     15  C   UNL     1       0.984   3.365  20.708  0.00  0.00    +0.000 A 
ATOM     16  C   UNL     1       2.127   3.976  21.218  0.00  0.00    +0.000 A 
ATOM     17  C   UNL     1       2.955   4.735  20.386  0.00  0.00    +0.000 A 
ENDBRANCH   5  12
BRANCH   1  18
ATOM     18  S   UNL     1       5.353   4.085  17.238  0.00  0.00    +0.000 S 
BRANCH  18  19
ATOM     19  C   UNL     1       7.028   4.666  16.848  0.00  0.00    +0.000 C 
BRANCH  19  21
ATOM     20  O   UNL     1       7.818   5.255  19.046  0.00  0.00    +0.000 OA
ATOM     21  C   UNL     1       7.553   5.626  17.902  0.00  0.00    +0.000 C 
ATOM     22  N   UNL     1       7.693   6.925  17.429  0.00  0.00    +0.000 N 
ATOM     23  H   UNL     1       7.207   7.203  16.575  0.00  0.00    +0.000 HD
BRANCH  22  24
ATOM     24  N   UNL     1       8.195   7.897  18.245  0.00  0.00    +0.000 NA
ATOM     25  C   UNL     1       8.237   9.085  17.725  0.00  0.00    +0.000 C 
BRANCH  25  26
ATOM     26  C   UNL     1       8.740  10.254  18.475  0.00  0.00    +0.000 A 
ATOM     27  C   UNL     1       9.269  10.113  19.751  0.00  0.00    +0.000 A 
ATOM     28  C   UNL     1       9.704  11.260  20.408  0.00  0.00    +0.000 A 
ATOM     29  C   UNL     1       9.600  12.491  19.772  0.00  0.00    +0.000 A 
ATOM     30  C   UNL     1       9.059  12.532  18.494  0.00  0.00    +0.000 A 
ATOM     31  N   UNL     1       8.629  11.439  17.825  0.00  0.00    +0.000 NA
ENDBRANCH  25  26
ENDBRANCH  22  24
ENDBRANCH  19  21
ENDBRANCH  18  19
ENDBRANCH   1  18
TORSDOF 7
ENDMDL
MODEL 3
REMARK VINA RESULT:      -8.3      1.154      1.544
REMARK  Name = 
REMARK  7 active torsions:
REMARK  status: ('A' for Active; 'I' for Inactive)
REMARK    1  A    between atoms: C_2  and  C_3
REMARK    2  A    between atoms: C_3  and  S_4
REMARK    3  A    between atoms: S_4  and  C_5
REMARK    4  A    between atoms: C_8  and  C_9
REMARK    5  A    between atoms: N_15  and  C_16
REMARK    6  A    between atoms: N_22  and  N_23
REMARK    7  A    between atoms: C_24  and  C_25
REMARK                            x       y       z     vdW  Elec       q    Type
REMARK                         _______ _______ _______ _____ _____    ______ ____
ROOT
ATOM      1  C   UNL     1       4.196   6.041  17.654  0.00  0.00    +0.000 A 
ATOM      2  N   UNL     1       4.463   7.199  17.094  0.00  0.00    +0.000 NA
ATOM      3  N   UNL     1       3.538   8.101  17.538  0.00  0.00    +0.000 NA
ATOM      4  C   UNL     1       2.728   7.495  18.393  0.00  0.00    +0.000 A 
ATOM      5  N   UNL     1       3.046   6.126  18.425  0.00  0.00    +0.000 N 
ENDROOT
BRANCH   4   6
ATOM      6  C   UNL     1       1.741   8.206  19.225  0.00  0.00    +0.000 A 
ATOM      7  C   UNL     1       1.632   7.908  20.585  0.00  0.00    +0.000 A 
ATOM      8  C   UNL     1       0.723   8.622  21.352  0.00  0.00    +0.000 A 
ATOM      9  N   UNL     1      -0.065   9.603  20.865  0.00  0.00    +0.000 NA
ATOM     10  C   UNL     1       0.026   9.853  19.545  0.00  0.00    +0.000 A 
ATOM     11  C   UNL     1       0.877   9.169  18.693  0.00  0.00    +0.000 A 
ENDBRANCH   4   6
BRANCH   5  12
ATOM     12  C   UNL     1       2.354   5.107  19.148  0.00  0.00    +0.000 A 
ATOM     13  C   UNL     1       2.645   4.893  20.506  0.00  0.00    +0.000 A 
ATOM     14  C   UNL     1       2.141   3.771  21.170  0.00  0.00    +0.000 A 
ATOM     15  C   UNL     1       1.298   2.890  20.502  0.00  0.00    +0.000 A 
ATOM     16  C   UNL     1       0.944   3.137  19.178  0.00  0.00    +0.000 A 
ATOM     17  C   UNL     1       1.472   4.237  18.497  0.00  0.00    +0.000 A 
ENDBRANCH   5  12
BRANCH   1  18
ATOM     18  S   UNL     1       5.110   4.604  17.328  0.00  0.00    +0.000 S 
BRANCH  18  19
ATOM     19  C   UNL     1       6.724   5.032  18.039  0.00  0.00    +0.000 C 
BRANCH  19  21
ATOM     20  O   UNL     1       7.566   6.188  16.101  0.00  0.00    +0.000 OA
ATOM     21  C   UNL     1       7.368   6.202  17.316  0.00  0.00    +0.000 C 
ATOM     22  N   UNL     1       7.692   7.252  18.167  0.00  0.00    +0.000 N 
ATOM     23  H   UNL     1       7.748   7.083  19.173  0.00  0.00    +0.000 HD
BRANCH  22  24
ATOM     24  N   UNL     1       8.241   8.395  17.662  0.00  0.00    +0.000 NA
ATOM     25  C   UNL     1       8.473   9.326  18.534  0.00  0.00    +0.000 C 
BRANCH  25  26
ATOM     26  C   UNL     1       9.074  10.623  18.159  0.00  0.00    +0.000 A 
ATOM     27  C   UNL     1      10.451  10.804  18.173  0.00  0.00    +0.000 A 
ATOM     28  C   UNL     1      10.948  12.057  17.829  0.00  0.00    +0.000 A 
ATOM     29  C   UNL     1      10.062  13.072  17.486  0.00  0.00    +0.000 A 
ATOM     30  C   UNL     1       8.702  12.795  17.500  0.00  0.00    +0.000 A 
ATOM     31  N   UNL     1       8.184  11.589  17.826  0.00  0.00    +0.000 NA
ENDBRANCH  25  26
ENDBRANCH  22  24
ENDBRANCH  19  21
ENDBRANCH  18  19
ENDBRANCH   1  18
TORSDOF 7
ENDMDL
MODEL 4
REMARK VINA RESULT:      -8.2      1.031      1.252
REMARK  Name = 
REMARK  7 active torsions:
REMARK  status: ('A' for Active; 'I' for Inactive)
REMARK    1  A    between atoms: C_2  and  C_3
REMARK    2  A    between atoms: C_3  and  S_4
REMARK    3  A    between atoms: S_4  and  C_5
REMARK    4  A    between atoms: C_8  and  C_9
REMARK    5  A    between atoms: N_15  and  C_16
REMARK    6  A    between atoms: N_22  and  N_23
REMARK    7  A    between atoms: C_24  and  C_25
REMARK                            x       y       z     vdW  Elec       q    Type
REMARK                         _______ _______ _______ _____ _____    ______ ____
ROOT
ATOM      1  C   UNL     1       4.362   5.875  17.079  0.00  0.00    +0.000 A 
ATOM      2  N   UNL     1       4.660   7.075  16.637  0.00  0.00    +0.000 NA
ATOM      3  N   UNL     1       3.821   7.965  17.243  0.00  0.00    +0.000 NA
ATOM      4  C   UNL     1       3.033   7.306  18.079  0.00  0.00    +0.000 A 
ATOM      5  N   UNL     1       3.270   5.928  17.934  0.00  0.00    +0.000 N 
ENDROOT
BRANCH   4   6
ATOM      6  C   UNL     1       2.144   7.966  19.052  0.00  0.00    +0.000 A 
ATOM      7  C   UNL     1       1.428   9.106  18.681  0.00  0.00    +0.000 A 
ATOM      8  C   UNL     1       0.567   9.682  19.604  0.00  0.00    +0.000 A 
ATOM      9  N   UNL     1       0.370   9.201  20.850  0.00  0.00    +0.000 NA
ATOM     10  C   UNL     1       1.096   8.124  21.204  0.00  0.00    +0.000 A 
ATOM     11  C   UNL     1       2.005   7.502  20.365  0.00  0.00    +0.000 A 
ENDBRANCH   4   6
BRANCH   5  12
ATOM     12  C   UNL     1       2.566   4.869  18.585  0.00  0.00    +0.000 A 
ATOM     13  C   UNL     1       3.007   4.402  19.835  0.00  0.00    +0.000 A 
ATOM     14  C   UNL     1       2.468   3.235  20.383  0.00  0.00    +0.000 A 
ATOM     15  C   UNL     1       1.450   2.560  19.719  0.00  0.00    +0.000 A 
ATOM     16  C   UNL     1       0.956   3.059  18.516  0.00  0.00    +0.000 A 
ATOM     17  C   UNL     1       1.514   4.207  17.944  0.00  0.00    +0.000 A 
ENDBRANCH   5  12
BRANCH   1  18
ATOM     18  S   UNL     1       5.166   4.440  16.531  0.00  0.00    +0.000 S 
BRANCH  18  19
ATOM     19  C   UNL     1       6.227   4.054  17.952  0.00  0.00    +0.000 C 
BRANCH  19  21
ATOM     20  O   UNL     1       6.267   5.607  19.793  0.00  0.00    +0.000 OA
ATOM     21  C   UNL     1       6.686   5.310  18.673  0.00  0.00    +0.000 C 
ATOM     22  N   UNL     1       7.603   6.052  17.938  0.00  0.00    +0.000 N 
ATOM     23  H   UNL     1       7.688   5.889  16.934  0.00  0.00    +0.000 HD
BRANCH  22  24
ATOM     24  N   UNL     1       8.141   7.188  18.469  0.00  0.00    +0.000 NA
ATOM     25  C   UNL     1       7.932   8.268  17.783  0.00  0.00    +0.000 C 
BRANCH  25  26
ATOM     26  C   UNL     1       8.435   9.587  18.219  0.00  0.00    +0.000 A 
ATOM     27  C   UNL     1       9.222   9.713  19.357  0.00  0.00    +0.000 A 
ATOM     28  C   UNL     1       9.643  10.988  19.722  0.00  0.00    +0.000 A 
ATOM     29  C   UNL     1       9.269  12.078  18.946  0.00  0.00    +0.000 A 
ATOM     30  C   UNL     1       8.482  11.853  17.825  0.00  0.00    +0.000 A 
ATOM     31  N   UNL     1       8.057  10.629  17.439  0.00  0.00    +0.000 NA
ENDBRANCH  25  26
ENDBRANCH  22  24
ENDBRANCH  19  21
ENDBRANCH  18  19
ENDBRANCH   1  18
TORSDOF 7
ENDMDL
MODEL 5
REMARK VINA RESULT:      -7.8      0.659      1.096
REMARK  Name = 
REMARK  7 active torsions:
REMARK  status: ('A' for Active; 'I' for Inactive)
REMARK    1  A    between atoms: C_2  and  C_3
REMARK    2  A    between atoms: C_3  and  S_4
REMARK    3  A    between atoms: S_4  and  C_5
REMARK    4  A    between atoms: C_8  and  C_9
REMARK    5  A    between atoms: N_15  and  C_16
REMARK    6  A    between atoms: N_22  and  N_23
REMARK    7  A    between atoms: C_24  and  C_25
REMARK                            x       y       z     vdW  Elec       q    Type
REMARK                         _______ _______ _______ _____ _____    ______ ____
ROOT
ATOM      1  C   UNL     1       4.527   5.683  16.954  0.00  0.00    +0.000 A 
ATOM      2  N   UNL     1       4.731   6.767  16.241  0.00  0.00    +0.000 NA
ATOM      3  N   UNL     1       3.859   7.724  16.675  0.00  0.00    +0.000 NA
ATOM      4  C   UNL     1       3.146   7.229  17.675  0.00  0.00    +0.000 A 
ATOM      5  N   UNL     1       3.466   5.869  17.829  0.00  0.00    +0.000 N 
ENDROOT
BRANCH   4   6
ATOM      6  C   UNL     1       2.253   8.041  18.520  0.00  0.00    +0.000 A 
ATOM      7  C   UNL     1       1.555   9.116  17.965  0.00  0.00    +0.000 A 
ATOM      8  C   UNL     1       0.690   9.838  18.774  0.00  0.00    +0.000 A 
ATOM      9  N   UNL     1       0.471   9.560  20.077  0.00  0.00    +0.000 NA
ATOM     10  C   UNL     1       1.180   8.545  20.606  0.00  0.00    +0.000 A 
ATOM     11  C   UNL     1       2.092   7.790  19.887  0.00  0.00    +0.000 A 
ENDBRANCH   4   6
BRANCH   5  12
ATOM     12  C   UNL     1       2.856   4.947  18.734  0.00  0.00    +0.000 A 
ATOM     13  C   UNL     1       1.715   4.230  18.338  0.00  0.00    +0.000 A 
ATOM     14  C   UNL     1       0.983   3.492  19.272  0.00  0.00    +0.000 A 
ATOM     15  C   UNL     1       1.416   3.416  20.591  0.00  0.00    +0.000 A 
ATOM     16  C   UNL     1       2.589   4.063  20.974  0.00  0.00    +0.000 A 
ATOM     17  C   UNL     1       3.307   4.831  20.054  0.00  0.00    +0.000 A 
ENDBRANCH   5  12
BRANCH   1  18
ATOM     18  S   UNL     1       5.401   4.208  16.699  0.00  0.00    +0.000 S 
BRANCH  18  19
ATOM     19  C   UNL     1       7.066   4.673  17.254  0.00  0.00    +0.000 C 
BRANCH  19  21
ATOM     20  O   UNL     1       6.868   6.114  19.174  0.00  0.00    +0.000 OA
ATOM     21  C   UNL     1       7.071   6.016  17.964  0.00  0.00    +0.000 C 
ATOM     22  N   UNL     1       7.325   7.080  17.106  0.00  0.00    +0.000 N 
ATOM     23  H   UNL     1       7.213   6.950  16.100  0.00  0.00    +0.000 HD
BRANCH  22  24
ATOM     24  N   UNL     1       7.404   8.349  17.601  0.00  0.00    +0.000 NA
ATOM     25  C   UNL     1       8.579   8.704  18.021  0.00  0.00    +0.000 C 
BRANCH  25  26
ATOM     26  C   UNL     1       8.843  10.047  18.576  0.00  0.00    +0.000 A 
ATOM     27  C   UNL     1       8.691  11.187  17.797  0.00  0.00    +0.000 A 
ATOM     28  C   UNL     1       8.979  12.418  18.378  0.00  0.00    +0.000 A 
ATOM     29  C   UNL     1       9.400  12.466  19.701  0.00  0.00    +0.000 A 
ATOM     30  C   UNL     1       9.520  11.273  20.401  0.00  0.00    +0.000 A 
ATOM     31  N   UNL     1       9.247  10.060  19.870  0.00  0.00    +0.000 NA
ENDBRANCH  25  26
ENDBRANCH  22  24
ENDBRANCH  19  21
ENDBRANCH  18  19
ENDBRANCH   1  18
TORSDOF 7
ENDMDL
MODEL 6
REMARK VINA RESULT:      -7.5      1.862      3.836
REMARK  Name = 
REMARK  7 active torsions:
REMARK  status: ('A' for Active; 'I' for Inactive)
REMARK    1  A    between atoms: C_2  and  C_3
REMARK    2  A    between atoms: C_3  and  S_4
REMARK    3  A    between atoms: S_4  and  C_5
REMARK    4  A    between atoms: C_8  and  C_9
REMARK    5  A    between atoms: N_15  and  C_16
REMARK    6  A    between atoms: N_22  and  N_23
REMARK    7  A    between atoms: C_24  and  C_25
REMARK                            x       y       z     vdW  Elec       q    Type
REMARK                         _______ _______ _______ _____ _____    ______ ____
ROOT
ATOM      1  C   UNL     1       4.756   4.975  16.791  0.00  0.00    +0.000 A 
ATOM      2  N   UNL     1       5.146   3.722  16.731  0.00  0.00    +0.000 NA
ATOM      3  N   UNL     1       4.512   3.039  17.729  0.00  0.00    +0.000 NA
ATOM      4  C   UNL     1       3.713   3.874  18.376  0.00  0.00    +0.000 A 
ATOM      5  N   UNL     1       3.912   5.172  17.874  0.00  0.00    +0.000 N 
ENDROOT
BRANCH   4   6
ATOM      6  C   UNL     1       2.723   3.442  19.378  0.00  0.00    +0.000 A 
ATOM      7  C   UNL     1       3.145   3.051  20.651  0.00  0.00    +0.000 A 
ATOM      8  C   UNL     1       2.188   2.689  21.588  0.00  0.00    +0.000 A 
ATOM      9  N   UNL     1       0.859   2.698  21.348  0.00  0.00    +0.000 NA
ATOM     10  C   UNL     1       0.472   3.041  20.105  0.00  0.00    +0.000 A 
ATOM     11  C   UNL     1       1.354   3.383  19.094  0.00  0.00    +0.000 A 
ENDBRANCH   4   6
BRANCH   5  12
ATOM     12  C   UNL     1       3.313   6.374  18.360  0.00  0.00    +0.000 A 
ATOM     13  C   UNL     1       2.802   6.422  19.668  0.00  0.00    +0.000 A 
ATOM     14  C   UNL     1       2.027   7.507  20.085  0.00  0.00    +0.000 A 
ATOM     15  C   UNL     1       1.806   8.576  19.224  0.00  0.00    +0.000 A 
ATOM     16  C   UNL     1       2.374   8.570  17.952  0.00  0.00    +0.000 A 
ATOM     17  C   UNL     1       3.121   7.473  17.515  0.00  0.00    +0.000 A 
ENDBRANCH   5  12
BRANCH   1  18
ATOM     18  S   UNL     1       5.355   6.202  15.721  0.00  0.00    +0.000 S 
BRANCH  18  19
ATOM     19  C   UNL     1       7.130   6.179  16.101  0.00  0.00    +0.000 C 
BRANCH  19  21
ATOM     20  O   UNL     1       7.384   6.403  18.486  0.00  0.00    +0.000 OA
ATOM     21  C   UNL     1       7.445   6.938  17.378  0.00  0.00    +0.000 C 
ATOM     22  N   UNL     1       7.797   8.262  17.147  0.00  0.00    +0.000 N 
ATOM     23  H   UNL     1       7.564   8.694  16.252  0.00  0.00    +0.000 HD
BRANCH  22  24
ATOM     24  N   UNL     1       8.150   9.065  18.193  0.00  0.00    +0.000 NA
ATOM     25  C   UNL     1       8.796  10.142  17.866  0.00  0.00    +0.000 C 
BRANCH  25  26
ATOM     26  C   UNL     1       9.243  11.127  18.872  0.00  0.00    +0.000 A 
ATOM     27  C   UNL     1       9.560  10.735  20.167  0.00  0.00    +0.000 A 
ATOM     28  C   UNL     1       9.953  11.719  21.069  0.00  0.00    +0.000 A 
ATOM     29  C   UNL     1      10.017  13.042  20.650  0.00  0.00    +0.000 A 
ATOM     30  C   UNL     1       9.683  13.337  19.335  0.00  0.00    +0.000 A 
ATOM     31  N   UNL     1       9.300  12.407  18.431  0.00  0.00    +0.000 NA
ENDBRANCH  25  26
ENDBRANCH  22  24
ENDBRANCH  19  21
ENDBRANCH  18  19
ENDBRANCH   1  18
TORSDOF 7
ENDMDL
MODEL 7
REMARK VINA RESULT:      -7.5      1.195      1.726
REMARK  Name = 
REMARK  7 active torsions:
REMARK  status: ('A' for Active; 'I' for Inactive)
REMARK    1  A    between atoms: C_2  and  C_3
REMARK    2  A    between atoms: C_3  and  S_4
REMARK    3  A    between atoms: S_4  and  C_5
REMARK    4  A    between atoms: C_8  and  C_9
REMARK    5  A    between atoms: N_15  and  C_16
REMARK    6  A    between atoms: N_22  and  N_23
REMARK    7  A    between atoms: C_24  and  C_25
REMARK                            x       y       z     vdW  Elec       q    Type
REMARK                         _______ _______ _______ _____ _____    ______ ____
ROOT
ATOM      1  C   UNL     1       3.546   6.391  17.948  0.00  0.00    +0.000 A 
ATOM      2  N   UNL     1       3.552   7.639  17.541  0.00  0.00    +0.000 NA
ATOM      3  N   UNL     1       2.713   8.348  18.351  0.00  0.00    +0.000 NA
ATOM      4  C   UNL     1       2.221   7.533  19.273  0.00  0.00    +0.000 A 
ATOM      5  N   UNL     1       2.648   6.223  18.993  0.00  0.00    +0.000 N 
ENDROOT
BRANCH   4   6
ATOM      6  C   UNL     1       1.444   7.994  20.437  0.00  0.00    +0.000 A 
ATOM      7  C   UNL     1       2.045   8.811  21.397  0.00  0.00    +0.000 A 
ATOM      8  C   UNL     1       1.278   9.264  22.461  0.00  0.00    +0.000 A 
ATOM      9  N   UNL     1      -0.029   8.968  22.625  0.00  0.00    +0.000 NA
ATOM     10  C   UNL     1      -0.583   8.149  21.712  0.00  0.00    +0.000 A 
ATOM     11  C   UNL     1       0.111   7.619  20.636  0.00  0.00    +0.000 A 
ENDBRANCH   4   6
BRANCH   5  12
ATOM     12  C   UNL     1       2.267   5.036  19.690  0.00  0.00    +0.000 A 
ATOM     13  C   UNL     1       1.343   4.151  19.109  0.00  0.00    +0.000 A 
ATOM     14  C   UNL     1       0.799   3.104  19.858  0.00  0.00    +0.000 A 
ATOM     15  C   UNL     1       1.214   2.899  21.169  0.00  0.00    +0.000 A 
ATOM     16  C   UNL     1       2.185   3.726  21.727  0.00  0.00    +0.000 A 
ATOM     17  C   UNL     1       2.709   4.796  20.995  0.00  0.00    +0.000 A 
ENDBRANCH   5  12
BRANCH   1  18
ATOM     18  S   UNL     1       4.452   5.137  17.163  0.00  0.00    +0.000 S 
BRANCH  18  19
ATOM     19  C   UNL     1       5.836   6.077  16.461  0.00  0.00    +0.000 C 
BRANCH  19  21
ATOM     20  O   UNL     1       7.012   6.025  18.562  0.00  0.00    +0.000 OA
ATOM     21  C   UNL     1       6.734   6.654  17.541  0.00  0.00    +0.000 C 
ATOM     22  N   UNL     1       7.186   7.934  17.242  0.00  0.00    +0.000 N 
ATOM     23  H   UNL     1       6.705   8.481  16.527  0.00  0.00    +0.000 HD
BRANCH  22  24
ATOM     24  N   UNL     1       8.038   8.573  18.096  0.00  0.00    +0.000 NA
ATOM     25  C   UNL     1       8.435   9.744  17.704  0.00  0.00    +0.000 C 
BRANCH  25  26
ATOM     26  C   UNL     1       9.349  10.576  18.512  0.00  0.00    +0.000 A 
ATOM     27  C   UNL     1      10.330  11.354  17.911  0.00  0.00    +0.000 A 
ATOM     28  C   UNL     1      11.171  12.097  18.735  0.00  0.00    +0.000 A 
ATOM     29  C   UNL     1      11.001  12.038  20.113  0.00  0.00    +0.000 A 
ATOM     30  C   UNL     1       9.991  11.233  20.621  0.00  0.00    +0.000 A 
ATOM     31  N   UNL     1       9.155  10.501  19.851  0.00  0.00    +0.000 NA
ENDBRANCH  25  26
ENDBRANCH  22  24
ENDBRANCH  19  21
ENDBRANCH  18  19
ENDBRANCH   1  18
TORSDOF 7
ENDMDL
MODEL 8
REMARK VINA RESULT:      -7.5      2.160      4.296
REMARK  Name = 
REMARK  7 active torsions:
REMARK  status: ('A' for Active; 'I' for Inactive)
REMARK    1  A    between atoms: C_2  and  C_3
REMARK    2  A    between atoms: C_3  and  S_4
REMARK    3  A    between atoms: S_4  and  C_5
REMARK    4  A    between atoms: C_8  and  C_9
REMARK    5  A    between atoms: N_15  and  C_16
REMARK    6  A    between atoms: N_22  and  N_23
REMARK    7  A    between atoms: C_24  and  C_25
REMARK                            x       y       z     vdW  Elec       q    Type
REMARK                         _______ _______ _______ _____ _____    ______ ____
ROOT
ATOM      1  C   UNL     1       5.663   5.678  18.092  0.00  0.00    +0.000 A 
ATOM      2  N   UNL     1       6.313   4.583  18.413  0.00  0.00    +0.000 NA
ATOM      3  N   UNL     1       5.472   3.797  19.147  0.00  0.00    +0.000 NA
ATOM      4  C   UNL     1       4.298   4.403  19.243  0.00  0.00    +0.000 A 
ATOM      5  N   UNL     1       4.399   5.680  18.664  0.00  0.00    +0.000 N 
ENDROOT
BRANCH   4   6
ATOM      6  C   UNL     1       3.090   3.758  19.787  0.00  0.00    +0.000 A 
ATOM      7  C   UNL     1       2.089   3.311  18.921  0.00  0.00    +0.000 A 
ATOM      8  C   UNL     1       0.982   2.670  19.457  0.00  0.00    +0.000 A 
ATOM      9  N   UNL     1       0.811   2.442  20.777  0.00  0.00    +0.000 NA
ATOM     10  C   UNL     1       1.766   2.913  21.600  0.00  0.00    +0.000 A 
ATOM     11  C   UNL     1       2.889   3.595  21.162  0.00  0.00    +0.000 A 
ENDBRANCH   4   6
BRANCH   5  12
ATOM     12  C   UNL     1       3.387   6.688  18.640  0.00  0.00    +0.000 A 
ATOM     13  C   UNL     1       3.252   7.516  17.513  0.00  0.00    +0.000 A 
ATOM     14  C   UNL     1       2.419   8.637  17.555  0.00  0.00    +0.000 A 
ATOM     15  C   UNL     1       1.674   8.907  18.698  0.00  0.00    +0.000 A 
ATOM     16  C   UNL     1       1.745   8.048  19.792  0.00  0.00    +0.000 A 
ATOM     17  C   UNL     1       2.602   6.944  19.770  0.00  0.00    +0.000 A 
ENDBRANCH   5  12
BRANCH   1  18
ATOM     18  S   UNL     1       6.383   6.972  17.188  0.00  0.00    +0.000 S 
BRANCH  18  19
ATOM     19  C   UNL     1       7.877   7.306  18.163  0.00  0.00    +0.000 C 
BRANCH  19  21
ATOM     20  O   UNL     1       7.643   9.609  17.498  0.00  0.00    +0.000 OA
ATOM     21  C   UNL     1       8.174   8.793  18.252  0.00  0.00    +0.000 C 
ATOM     22  N   UNL     1       9.086   9.103  19.253  0.00  0.00    +0.000 N 
ATOM     23  H   UNL     1       9.674   8.365  19.642  0.00  0.00    +0.000 HD
BRANCH  22  24
ATOM     24  N   UNL     1       9.425  10.405  19.487  0.00  0.00    +0.000 NA
ATOM     25  C   UNL     1      10.155  10.956  18.567  0.00  0.00    +0.000 C 
BRANCH  25  26
ATOM     26  C   UNL     1      10.601  12.362  18.655  0.00  0.00    +0.000 A 
ATOM     27  C   UNL     1      11.156  12.865  19.825  0.00  0.00    +0.000 A 
ATOM     28  C   UNL     1      11.535  14.205  19.844  0.00  0.00    +0.000 A 
ATOM     29  C   UNL     1      11.349  14.982  18.708  0.00  0.00    +0.000 A 
ATOM     30  C   UNL     1      10.788  14.389  17.585  0.00  0.00    +0.000 A 
ATOM     31  N   UNL     1      10.412  13.092  17.529  0.00  0.00    +0.000 NA
ENDBRANCH  25  26
ENDBRANCH  22  24
ENDBRANCH  19  21
ENDBRANCH  18  19
ENDBRANCH   1  18
TORSDOF 7
ENDMDL
MODEL 9
REMARK VINA RESULT:      -7.4      1.784      3.882
REMARK  Name = 
REMARK  7 active torsions:
REMARK  status: ('A' for Active; 'I' for Inactive)
REMARK    1  A    between atoms: C_2  and  C_3
REMARK    2  A    between atoms: C_3  and  S_4
REMARK    3  A    between atoms: S_4  and  C_5
REMARK    4  A    between atoms: C_8  and  C_9
REMARK    5  A    between atoms: N_15  and  C_16
REMARK    6  A    between atoms: N_22  and  N_23
REMARK    7  A    between atoms: C_24  and  C_25
REMARK                            x       y       z     vdW  Elec       q    Type
REMARK                         _______ _______ _______ _____ _____    ______ ____
ROOT
ATOM      1  C   UNL     1       4.864   5.488  17.447  0.00  0.00    +0.000 A 
ATOM      2  N   UNL     1       5.499   4.344  17.556  0.00  0.00    +0.000 NA
ATOM      3  N   UNL     1       4.851   3.595  18.497  0.00  0.00    +0.000 NA
ATOM      4  C   UNL     1       3.802   4.274  18.935  0.00  0.00    +0.000 A 
ATOM      5  N   UNL     1       3.823   5.558  18.362  0.00  0.00    +0.000 N 
ENDROOT
BRANCH   4   6
ATOM      6  C   UNL     1       2.760   3.696  19.801  0.00  0.00    +0.000 A 
ATOM      7  C   UNL     1       1.494   3.420  19.279  0.00  0.00    +0.000 A 
ATOM      8  C   UNL     1       0.545   2.837  20.106  0.00  0.00    +0.000 A 
ATOM      9  N   UNL     1       0.772   2.509  21.396  0.00  0.00    +0.000 NA
ATOM     10  C   UNL     1       1.984   2.816  21.894  0.00  0.00    +0.000 A 
ATOM     11  C   UNL     1       2.983   3.430  21.156  0.00  0.00    +0.000 A 
ENDBRANCH   4   6
BRANCH   5  12
ATOM     12  C   UNL     1       2.923   6.631  18.641  0.00  0.00    +0.000 A 
ATOM     13  C   UNL     1       2.560   7.523  17.618  0.00  0.00    +0.000 A 
ATOM     14  C   UNL     1       1.858   8.694  17.917  0.00  0.00    +0.000 A 
ATOM     15  C   UNL     1       1.464   8.954  19.225  0.00  0.00    +0.000 A 
ATOM     16  C   UNL     1       1.755   8.037  20.232  0.00  0.00    +0.000 A 
ATOM     17  C   UNL     1       2.487   6.881  19.947  0.00  0.00    +0.000 A 
ENDBRANCH   5  12
BRANCH   1  18
ATOM     18  S   UNL     1       5.383   6.756  16.383  0.00  0.00    +0.000 S 
BRANCH  18  19
ATOM     19  C   UNL     1       7.188   6.595  16.482  0.00  0.00    +0.000 C 
BRANCH  19  21
ATOM     20  O   UNL     1       7.919   6.712  18.774  0.00  0.00    +0.000 OA
ATOM     21  C   UNL     1       7.753   7.298  17.704  0.00  0.00    +0.000 C 
ATOM     22  N   UNL     1       8.049   8.636  17.469  0.00  0.00    +0.000 N 
ATOM     23  H   UNL     1       7.638   9.106  16.661  0.00  0.00    +0.000 HD
BRANCH  22  24
ATOM     24  N   UNL     1       8.604   9.394  18.459  0.00  0.00    +0.000 NA
ATOM     25  C   UNL     1       8.829  10.632  18.143  0.00  0.00    +0.000 C 
BRANCH  25  26
ATOM     26  C   UNL     1       9.415  11.594  19.099  0.00  0.00    +0.000 A 
ATOM     27  C   UNL     1       9.483  11.304  20.456  0.00  0.00    +0.000 A 
ATOM     28  C   UNL     1      10.028  12.265  21.303  0.00  0.00    +0.000 A 
ATOM     29  C   UNL     1      10.482  13.465  20.769  0.00  0.00    +0.000 A 
ATOM     30  C   UNL     1      10.374  13.663  19.399  0.00  0.00    +0.000 A 
ATOM     31  N   UNL     1       9.854  12.751  18.547  0.00  0.00    +0.000 NA
ENDBRANCH  25  26
ENDBRANCH  22  24
ENDBRANCH  19  21
ENDBRANCH  18  19
ENDBRANCH   1  18
TORSDOF 7
ENDMDL
