MODEL 1
REMARK VINA RESULT:      -8.7      0.000      0.000
REMARK  Name = 
REMARK  5 active torsions:
REMARK  status: ('A' for Active; 'I' for Inactive)
REMARK    1  A    between atoms: C_1  and  C_2
REMARK    2  A    between atoms: C_5  and  S_6
REMARK    3  A    between atoms: S_6  and  N_9
REMARK    4  A    between atoms: C_16  and  C_17
REMARK    5  A    between atoms: C_26  and  C_27
REMARK                            x       y       z     vdW  Elec       q    Type
REMARK                         _______ _______ _______ _____ _____    ______ ____
ROOT
ATOM      1  N   UNL     1       6.287   4.414  18.723  0.00  0.00    +0.000 N 
ATOM      2  C   UNL     1       4.998   4.118  19.163  0.00  0.00    +0.000 A 
ATOM      3  C   UNL     1       4.761   2.661  19.330  0.00  0.00    +0.000 A 
ATOM      4  C   UNL     1       3.546   2.294  19.764  0.00  0.00    +0.000 A 
ATOM      5  C   UNL     1       2.591   3.290  20.050  0.00  0.00    +0.000 A 
ATOM      6  N   UNL     1       1.370   3.238  20.534  0.00  0.00    +0.000 NA
ATOM      7  N   UNL     1       0.897   4.525  20.607  0.00  0.00    +0.000 NA
ATOM      8  C   UNL     1       1.823   5.351  20.140  0.00  0.00    +0.000 A 
ATOM      9  N   UNL     1       2.940   4.607  19.815  0.00  0.00    +0.000 N 
ATOM     10  N   UNL     1       4.155   5.064  19.384  0.00  0.00    +0.000 NA
ATOM     11  H   UNL     1       7.030   3.724  18.731  0.00  0.00    +0.000 HD
ENDROOT
BRANCH   8  12
ATOM     12  C   UNL     1       1.698   6.805  20.016  0.00  0.00    +0.000 A 
ATOM     13  C   UNL     1       1.230   7.550  21.105  0.00  0.00    +0.000 A 
ATOM     14  C   UNL     1       1.067   8.935  21.008  0.00  0.00    +0.000 A 
ATOM     15  C   UNL     1       1.368   9.591  19.816  0.00  0.00    +0.000 A 
ATOM     16  C   UNL     1       1.836   8.865  18.724  0.00  0.00    +0.000 A 
ATOM     17  C   UNL     1       2.000   7.480  18.822  0.00  0.00    +0.000 A 
ENDBRANCH   8  12
BRANCH   1  18
ATOM     18  S   UNL     1       6.667   5.690  17.703  0.00  0.00    +0.000 S 
ATOM     19  O   UNL     1       8.060   6.038  17.866  0.00  0.00    +0.000 OA
ATOM     20  O   UNL     1       5.622   6.669  17.921  0.00  0.00    +0.000 OA
BRANCH  18  25
ATOM     21  C   UNL     1       5.961   3.222  12.210  0.00  0.00    +0.000 C 
ATOM     22  C   UNL     1       6.124   3.867  13.560  0.00  0.00    +0.000 A 
ATOM     23  C   UNL     1       5.289   3.468  14.620  0.00  0.00    +0.000 A 
ATOM     24  C   UNL     1       5.427   4.030  15.890  0.00  0.00    +0.000 A 
ATOM     25  C   UNL     1       6.407   4.995  16.100  0.00  0.00    +0.000 A 
ATOM     26  C   UNL     1       7.248   5.403  15.059  0.00  0.00    +0.000 A 
ATOM     27  C   UNL     1       7.106   4.854  13.780  0.00  0.00    +0.000 A 
ATOM     28  C   UNL     1       8.013   5.327  12.677  0.00  0.00    +0.000 C 
ENDBRANCH  18  25
ENDBRANCH   1  18
TORSDOF 3
ENDMDL
MODEL 2
REMARK VINA RESULT:      -8.0      3.350      7.497
REMARK  Name = 
REMARK  5 active torsions:
REMARK  status: ('A' for Active; 'I' for Inactive)
REMARK    1  A    between atoms: C_1  and  C_2
REMARK    2  A    between atoms: C_5  and  S_6
REMARK    3  A    between atoms: S_6  and  N_9
REMARK    4  A    between atoms: C_16  and  C_17
REMARK    5  A    between atoms: C_26  and  C_27
REMARK                            x       y       z     vdW  Elec       q    Type
REMARK                         _______ _______ _______ _____ _____    ______ ____
ROOT
ATOM      1  N   UNL     1       3.161   8.656  17.862  0.00  0.00    +0.000 N 
ATOM      2  C   UNL     1       3.662   7.409  17.497  0.00  0.00    +0.000 A 
ATOM      3  C   UNL     1       4.564   7.466  16.318  0.00  0.00    +0.000 A 
ATOM      4  C   UNL     1       5.099   6.305  15.911  0.00  0.00    +0.000 A 
ATOM      5  C   UNL     1       4.799   5.126  16.622  0.00  0.00    +0.000 A 
ATOM      6  N   UNL     1       5.213   3.884  16.498  0.00  0.00    +0.000 NA
ATOM      7  N   UNL     1       4.589   3.141  17.470  0.00  0.00    +0.000 NA
ATOM      8  C   UNL     1       3.777   3.929  18.161  0.00  0.00    +0.000 A 
ATOM      9  N   UNL     1       3.916   5.217  17.681  0.00  0.00    +0.000 N 
ATOM     10  N   UNL     1       3.336   6.358  18.163  0.00  0.00    +0.000 NA
ATOM     11  H   UNL     1       3.546   9.520  17.494  0.00  0.00    +0.000 HD
ENDROOT
BRANCH   8  12
ATOM     12  C   UNL     1       2.906   3.516  19.263  0.00  0.00    +0.000 A 
ATOM     13  C   UNL     1       1.523   3.703  19.153  0.00  0.00    +0.000 A 
ATOM     14  C   UNL     1       0.667   3.351  20.201  0.00  0.00    +0.000 A 
ATOM     15  C   UNL     1       1.188   2.811  21.375  0.00  0.00    +0.000 A 
ATOM     16  C   UNL     1       2.561   2.618  21.500  0.00  0.00    +0.000 A 
ATOM     17  C   UNL     1       3.416   2.969  20.452  0.00  0.00    +0.000 A 
ENDBRANCH   8  12
BRANCH   1  18
ATOM     18  S   UNL     1       1.631   8.909  18.502  0.00  0.00    +0.000 S 
ATOM     19  O   UNL     1       1.584   8.399  19.853  0.00  0.00    +0.000 OA
ATOM     20  O   UNL     1       0.716   8.427  17.488  0.00  0.00    +0.000 OA
BRANCH  18  25
ATOM     21  C   UNL     1       1.207  14.951  18.780  0.00  0.00    +0.000 C 
ATOM     22  C   UNL     1       1.284  13.451  18.686  0.00  0.00    +0.000 A 
ATOM     23  C   UNL     1       2.424  12.855  18.115  0.00  0.00    +0.000 A 
ATOM     24  C   UNL     1       2.538  11.466  18.031  0.00  0.00    +0.000 A 
ATOM     25  C   UNL     1       1.507  10.671  18.524  0.00  0.00    +0.000 A 
ATOM     26  C   UNL     1       0.369  11.247  19.097  0.00  0.00    +0.000 A 
ATOM     27  C   UNL     1       0.241  12.638  19.172  0.00  0.00    +0.000 A 
ATOM     28  C   UNL     1      -1.004  13.226  19.777  0.00  0.00    +0.000 C 
ENDBRANCH  18  25
ENDBRANCH   1  18
TORSDOF 3
ENDMDL
MODEL 3
REMARK VINA RESULT:      -7.9      8.303     10.311
REMARK  Name = 
REMARK  5 active torsions:
REMARK  status: ('A' for Active; 'I' for Inactive)
REMARK    1  A    between atoms: C_1  and  C_2
REMARK    2  A    between atoms: C_5  and  S_6
REMARK    3  A    between atoms: S_6  and  N_9
REMARK    4  A    between atoms: C_16  and  C_17
REMARK    5  A    between atoms: C_26  and  C_27
REMARK                            x       y       z     vdW  Elec       q    Type
REMARK                         _______ _______ _______ _____ _____    ______ ____
ROOT
ATOM      1  N   UNL     1       1.192  11.640  18.503  0.00  0.00    +0.000 N 
ATOM      2  C   UNL     1       1.360  12.604  19.495  0.00  0.00    +0.000 A 
ATOM      3  C   UNL     1       2.655  13.324  19.393  0.00  0.00    +0.000 A 
ATOM      4  C   UNL     1       2.888  14.279  20.306  0.00  0.00    +0.000 A 
ATOM      5  C   UNL     1       1.902  14.555  21.275  0.00  0.00    +0.000 A 
ATOM      6  N   UNL     1       1.825  15.452  22.233  0.00  0.00    +0.000 NA
ATOM      7  N   UNL     1       0.628  15.264  22.881  0.00  0.00    +0.000 NA
ATOM      8  C   UNL     1      -0.002  14.235  22.331  0.00  0.00    +0.000 A 
ATOM      9  N   UNL     1       0.757  13.781  21.270  0.00  0.00    +0.000 N 
ATOM     10  N   UNL     1       0.441  12.799  20.373  0.00  0.00    +0.000 NA
ATOM     11  H   UNL     1       1.794  11.596  17.687  0.00  0.00    +0.000 HD
ENDROOT
BRANCH   8  12
ATOM     12  C   UNL     1      -1.295  13.691  22.752  0.00  0.00    +0.000 A 
ATOM     13  C   UNL     1      -2.380  14.556  22.931  0.00  0.00    +0.000 A 
ATOM     14  C   UNL     1      -3.618  14.073  23.366  0.00  0.00    +0.000 A 
ATOM     15  C   UNL     1      -3.782  12.715  23.630  0.00  0.00    +0.000 A 
ATOM     16  C   UNL     1      -2.714  11.840  23.456  0.00  0.00    +0.000 A 
ATOM     17  C   UNL     1      -1.476  12.324  23.021  0.00  0.00    +0.000 A 
ENDBRANCH   8  12
BRANCH   1  18
ATOM     18  S   UNL     1       0.379  10.190  18.724  0.00  0.00    +0.000 S 
ATOM     19  O   UNL     1       0.432   9.814  20.118  0.00  0.00    +0.000 OA
ATOM     20  O   UNL     1       0.892   9.312  17.693  0.00  0.00    +0.000 OA
BRANCH  18  25
ATOM     21  C   UNL     1      -5.261  11.810  17.198  0.00  0.00    +0.000 C 
ATOM     22  C   UNL     1      -3.876  11.385  17.604  0.00  0.00    +0.000 A 
ATOM     23  C   UNL     1      -3.106  10.610  16.717  0.00  0.00    +0.000 A 
ATOM     24  C   UNL     1      -1.808  10.217  17.052  0.00  0.00    +0.000 A 
ATOM     25  C   UNL     1      -1.280  10.605  18.280  0.00  0.00    +0.000 A 
ATOM     26  C   UNL     1      -2.029  11.377  19.172  0.00  0.00    +0.000 A 
ATOM     27  C   UNL     1      -3.335  11.763  18.849  0.00  0.00    +0.000 A 
ATOM     28  C   UNL     1      -4.122  12.578  19.839  0.00  0.00    +0.000 C 
ENDBRANCH  18  25
ENDBRANCH   1  18
TORSDOF 3
ENDMDL
MODEL 4
REMARK VINA RESULT:      -7.9      4.697      6.941
REMARK  Name = 
REMARK  5 active torsions:
REMARK  status: ('A' for Active; 'I' for Inactive)
REMARK    1  A    between atoms: C_1  and  C_2
REMARK    2  A    between atoms: C_5  and  S_6
REMARK    3  A    between atoms: S_6  and  N_9
REMARK    4  A    between atoms: C_16  and  C_17
REMARK    5  A    between atoms: C_26  and  C_27
REMARK                            x       y       z     vdW  Elec       q    Type
REMARK                         _______ _______ _______ _____ _____    ______ ____
ROOT
ATOM      1  N   UNL     1       1.530   8.720  20.085  0.00  0.00    +0.000 N 
ATOM      2  C   UNL     1       0.800   9.594  20.887  0.00  0.00    +0.000 A 
ATOM      3  C   UNL     1       0.074   8.907  21.986  0.00  0.00    +0.000 A 
ATOM      4  C   UNL     1      -0.643   9.682  22.813  0.00  0.00    +0.000 A 
ATOM      5  C   UNL     1      -0.652  11.076  22.609  0.00  0.00    +0.000 A 
ATOM      6  N   UNL     1      -1.200  12.068  23.276  0.00  0.00    +0.000 NA
ATOM      7  N   UNL     1      -0.881  13.233  22.621  0.00  0.00    +0.000 NA
ATOM      8  C   UNL     1      -0.166  12.940  21.544  0.00  0.00    +0.000 A 
ATOM      9  N   UNL     1       0.043  11.575  21.524  0.00  0.00    +0.000 N 
ATOM     10  N   UNL     1       0.804  10.856  20.642  0.00  0.00    +0.000 NA
ATOM     11  H   UNL     1       1.712   7.761  20.360  0.00  0.00    +0.000 HD
ENDROOT
BRANCH   8  12
ATOM     12  C   UNL     1       0.344  13.898  20.560  0.00  0.00    +0.000 A 
ATOM     13  C   UNL     1       1.698  14.252  20.582  0.00  0.00    +0.000 A 
ATOM     14  C   UNL     1       2.208  15.189  19.679  0.00  0.00    +0.000 A 
ATOM     15  C   UNL     1       1.365  15.786  18.744  0.00  0.00    +0.000 A 
ATOM     16  C   UNL     1       0.017  15.445  18.708  0.00  0.00    +0.000 A 
ATOM     17  C   UNL     1      -0.493  14.507  19.611  0.00  0.00    +0.000 A 
ENDBRANCH   8  12
BRANCH   1  18
ATOM     18  S   UNL     1       1.762   8.922  18.436  0.00  0.00    +0.000 S 
ATOM     19  O   UNL     1       2.593  10.082  18.205  0.00  0.00    +0.000 OA
ATOM     20  O   UNL     1       0.439   8.823  17.856  0.00  0.00    +0.000 OA
BRANCH  18  25
ATOM     21  C   UNL     1       4.636   3.854  16.756  0.00  0.00    +0.000 C 
ATOM     22  C   UNL     1       3.927   5.102  17.209  0.00  0.00    +0.000 A 
ATOM     23  C   UNL     1       4.537   6.353  17.006  0.00  0.00    +0.000 A 
ATOM     24  C   UNL     1       3.898   7.532  17.394  0.00  0.00    +0.000 A 
ATOM     25  C   UNL     1       2.642   7.457  17.987  0.00  0.00    +0.000 A 
ATOM     26  C   UNL     1       2.019   6.223  18.195  0.00  0.00    +0.000 A 
ATOM     27  C   UNL     1       2.659   5.036  17.821  0.00  0.00    +0.000 A 
ATOM     28  C   UNL     1       1.970   3.723  18.075  0.00  0.00    +0.000 C 
ENDBRANCH  18  25
ENDBRANCH   1  18
TORSDOF 3
ENDMDL
MODEL 5
REMARK VINA RESULT:      -7.9      9.082     11.426
REMARK  Name = 
REMARK  5 active torsions:
REMARK  status: ('A' for Active; 'I' for Inactive)
REMARK    1  A    between atoms: C_1  and  C_2
REMARK    2  A    between atoms: C_5  and  S_6
REMARK    3  A    between atoms: S_6  and  N_9
REMARK    4  A    between atoms: C_16  and  C_17
REMARK    5  A    between atoms: C_26  and  C_27
REMARK                            x       y       z     vdW  Elec       q    Type
REMARK                         _______ _______ _______ _____ _____    ______ ____
ROOT
ATOM      1  N   UNL     1      -3.365  14.690  21.320  0.00  0.00    +0.000 N 
ATOM      2  C   UNL     1      -4.304  13.705  21.023  0.00  0.00    +0.000 A 
ATOM      3  C   UNL     1      -5.418  13.648  22.004  0.00  0.00    +0.000 A 
ATOM      4  C   UNL     1      -6.372  12.732  21.781  0.00  0.00    +0.000 A 
ATOM      5  C   UNL     1      -6.277  11.907  20.643  0.00  0.00    +0.000 A 
ATOM      6  N   UNL     1      -7.071  10.986  20.144  0.00  0.00    +0.000 NA
ATOM      7  N   UNL     1      -6.477  10.499  19.005  0.00  0.00    +0.000 NA
ATOM      8  C   UNL     1      -5.312  11.107  18.834  0.00  0.00    +0.000 A 
ATOM      9  N   UNL     1      -5.165  12.049  19.834  0.00  0.00    +0.000 N 
ATOM     10  N   UNL     1      -4.157  12.960  19.986  0.00  0.00    +0.000 NA
ATOM     11  H   UNL     1      -3.546  15.418  22.003  0.00  0.00    +0.000 HD
ENDROOT
BRANCH   8  12
ATOM     12  C   UNL     1      -4.355  10.849  17.755  0.00  0.00    +0.000 A 
ATOM     13  C   UNL     1      -3.213  10.084  18.018  0.00  0.00    +0.000 A 
ATOM     14  C   UNL     1      -2.263   9.849  17.018  0.00  0.00    +0.000 A 
ATOM     15  C   UNL     1      -2.447  10.381  15.744  0.00  0.00    +0.000 A 
ATOM     16  C   UNL     1      -3.578  11.142  15.466  0.00  0.00    +0.000 A 
ATOM     17  C   UNL     1      -4.527  11.377  16.465  0.00  0.00    +0.000 A 
ENDBRANCH   8  12
BRANCH   1  18
ATOM     18  S   UNL     1      -1.721  14.550  21.018  0.00  0.00    +0.000 S 
ATOM     19  O   UNL     1      -0.994  15.460  21.874  0.00  0.00    +0.000 OA
ATOM     20  O   UNL     1      -1.597  14.619  19.577  0.00  0.00    +0.000 OA
BRANCH  18  25
ATOM     21  C   UNL     1      -0.353   8.864  22.619  0.00  0.00    +0.000 C 
ATOM     22  C   UNL     1      -0.720  10.261  22.199  0.00  0.00    +0.000 A 
ATOM     23  C   UNL     1      -1.294  11.135  23.141  0.00  0.00    +0.000 A 
ATOM     24  C   UNL     1      -1.627  12.446  22.791  0.00  0.00    +0.000 A 
ATOM     25  C   UNL     1      -1.380  12.883  21.493  0.00  0.00    +0.000 A 
ATOM     26  C   UNL     1      -0.808  12.029  20.545  0.00  0.00    +0.000 A 
ATOM     27  C   UNL     1      -0.485  10.710  20.884  0.00  0.00    +0.000 A 
ATOM     28  C   UNL     1       0.112   9.812  19.836  0.00  0.00    +0.000 C 
ENDBRANCH  18  25
ENDBRANCH   1  18
TORSDOF 3
ENDMDL
MODEL 6
REMARK VINA RESULT:      -7.8      2.295      3.393
REMARK  Name = 
REMARK  5 active torsions:
REMARK  status: ('A' for Active; 'I' for Inactive)
REMARK    1  A    between atoms: C_1  and  C_2
REMARK    2  A    between atoms: C_5  and  S_6
REMARK    3  A    between atoms: S_6  and  N_9
REMARK    4  A    between atoms: C_16  and  C_17
REMARK    5  A    between atoms: C_26  and  C_27
REMARK                            x       y       z     vdW  Elec       q    Type
REMARK                         _______ _______ _______ _____ _____    ______ ____
ROOT
ATOM      1  N   UNL     1       5.250   3.023  17.054  0.00  0.00    +0.000 N 
ATOM      2  C   UNL     1       4.131   3.016  17.883  0.00  0.00    +0.000 A 
ATOM      3  C   UNL     1       3.680   1.646  18.239  0.00  0.00    +0.000 A 
ATOM      4  C   UNL     1       2.613   1.553  19.047  0.00  0.00    +0.000 A 
ATOM      5  C   UNL     1       2.006   2.734  19.518  0.00  0.00    +0.000 A 
ATOM      6  N   UNL     1       1.009   2.951  20.348  0.00  0.00    +0.000 NA
ATOM      7  N   UNL     1       0.841   4.310  20.447  0.00  0.00    +0.000 NA
ATOM      8  C   UNL     1       1.716   4.911  19.653  0.00  0.00    +0.000 A 
ATOM      9  N   UNL     1       2.512   3.941  19.075  0.00  0.00    +0.000 N 
ATOM     10  N   UNL     1       3.597   4.122  18.263  0.00  0.00    +0.000 NA
ATOM     11  H   UNL     1       5.811   2.193  16.899  0.00  0.00    +0.000 HD
ENDROOT
BRANCH   8  12
ATOM     12  C   UNL     1       1.842   6.356  19.447  0.00  0.00    +0.000 A 
ATOM     13  C   UNL     1       1.488   7.232  20.479  0.00  0.00    +0.000 A 
ATOM     14  C   UNL     1       1.564   8.617  20.302  0.00  0.00    +0.000 A 
ATOM     15  C   UNL     1       1.993   9.141  19.084  0.00  0.00    +0.000 A 
ATOM     16  C   UNL     1       2.351   8.284  18.048  0.00  0.00    +0.000 A 
ATOM     17  C   UNL     1       2.276   6.899  18.226  0.00  0.00    +0.000 A 
ENDBRANCH   8  12
BRANCH   1  18
ATOM     18  S   UNL     1       5.534   4.167  15.860  0.00  0.00    +0.000 S 
ATOM     19  O   UNL     1       4.273   4.668  15.363  0.00  0.00    +0.000 OA
ATOM     20  O   UNL     1       6.495   3.549  14.970  0.00  0.00    +0.000 OA
BRANCH  18  25
ATOM     21  C   UNL     1       8.613   8.451  18.846  0.00  0.00    +0.000 C 
ATOM     22  C   UNL     1       7.824   7.387  18.133  0.00  0.00    +0.000 A 
ATOM     23  C   UNL     1       7.156   7.709  16.938  0.00  0.00    +0.000 A 
ATOM     24  C   UNL     1       6.433   6.741  16.239  0.00  0.00    +0.000 A 
ATOM     25  C   UNL     1       6.380   5.444  16.739  0.00  0.00    +0.000 A 
ATOM     26  C   UNL     1       7.039   5.105  17.925  0.00  0.00    +0.000 A 
ATOM     27  C   UNL     1       7.755   6.073  18.638  0.00  0.00    +0.000 A 
ATOM     28  C   UNL     1       8.437   5.680  19.920  0.00  0.00    +0.000 C 
ENDBRANCH  18  25
ENDBRANCH   1  18
TORSDOF 3
ENDMDL
MODEL 7
REMARK VINA RESULT:      -7.7      8.277     10.117
REMARK  Name = 
REMARK  5 active torsions:
REMARK  status: ('A' for Active; 'I' for Inactive)
REMARK    1  A    between atoms: C_1  and  C_2
REMARK    2  A    between atoms: C_5  and  S_6
REMARK    3  A    between atoms: S_6  and  N_9
REMARK    4  A    between atoms: C_16  and  C_17
REMARK    5  A    between atoms: C_26  and  C_27
REMARK                            x       y       z     vdW  Elec       q    Type
REMARK                         _______ _______ _______ _____ _____    ______ ____
ROOT
ATOM      1  N   UNL     1       1.300  11.699  18.566  0.00  0.00    +0.000 N 
ATOM      2  C   UNL     1       1.433  12.662  19.563  0.00  0.00    +0.000 A 
ATOM      3  C   UNL     1       2.741  13.365  19.522  0.00  0.00    +0.000 A 
ATOM      4  C   UNL     1       2.942  14.319  20.444  0.00  0.00    +0.000 A 
ATOM      5  C   UNL     1       1.916  14.607  21.366  0.00  0.00    +0.000 A 
ATOM      6  N   UNL     1       1.805  15.506  22.320  0.00  0.00    +0.000 NA
ATOM      7  N   UNL     1       0.577  15.333  22.911  0.00  0.00    +0.000 NA
ATOM      8  C   UNL     1      -0.039  14.312  22.332  0.00  0.00    +0.000 A 
ATOM      9  N   UNL     1       0.763  13.848  21.308  0.00  0.00    +0.000 N 
ATOM     10  N   UNL     1       0.477  12.868  20.398  0.00  0.00    +0.000 NA
ATOM     11  H   UNL     1       1.938  11.647  17.778  0.00  0.00    +0.000 HD
ENDROOT
BRANCH   8  12
ATOM     12  C   UNL     1      -1.357  13.783  22.694  0.00  0.00    +0.000 A 
ATOM     13  C   UNL     1      -1.469  12.459  23.132  0.00  0.00    +0.000 A 
ATOM     14  C   UNL     1      -2.717  11.913  23.452  0.00  0.00    +0.000 A 
ATOM     15  C   UNL     1      -3.867  12.690  23.332  0.00  0.00    +0.000 A 
ATOM     16  C   UNL     1      -3.773  14.009  22.899  0.00  0.00    +0.000 A 
ATOM     17  C   UNL     1      -2.526  14.554  22.580  0.00  0.00    +0.000 A 
ENDBRANCH   8  12
BRANCH   1  18
ATOM     18  S   UNL     1       0.460  10.259  18.749  0.00  0.00    +0.000 S 
ATOM     19  O   UNL     1       0.464   9.872  20.141  0.00  0.00    +0.000 OA
ATOM     20  O   UNL     1       0.994   9.381  17.728  0.00  0.00    +0.000 OA
BRANCH  18  25
ATOM     21  C   UNL     1      -5.211  11.577  17.056  0.00  0.00    +0.000 C 
ATOM     22  C   UNL     1      -3.791  11.273  17.449  0.00  0.00    +0.000 A 
ATOM     23  C   UNL     1      -3.308  11.722  18.693  0.00  0.00    +0.000 A 
ATOM     24  C   UNL     1      -2.003  11.438  19.098  0.00  0.00    +0.000 A 
ATOM     25  C   UNL     1      -1.178  10.700  18.255  0.00  0.00    +0.000 A 
ATOM     26  C   UNL     1      -1.640  10.244  17.017  0.00  0.00    +0.000 A 
ATOM     27  C   UNL     1      -2.943  10.536  16.598  0.00  0.00    +0.000 A 
ATOM     28  C   UNL     1      -3.404  10.047  15.252  0.00  0.00    +0.000 C 
ENDBRANCH  18  25
ENDBRANCH   1  18
TORSDOF 3
ENDMDL
MODEL 8
REMARK VINA RESULT:      -7.7      8.745     11.949
REMARK  Name = 
REMARK  5 active torsions:
REMARK  status: ('A' for Active; 'I' for Inactive)
REMARK    1  A    between atoms: C_1  and  C_2
REMARK    2  A    between atoms: C_5  and  S_6
REMARK    3  A    between atoms: S_6  and  N_9
REMARK    4  A    between atoms: C_16  and  C_17
REMARK    5  A    between atoms: C_26  and  C_27
REMARK                            x       y       z     vdW  Elec       q    Type
REMARK                         _______ _______ _______ _____ _____    ______ ____
ROOT
ATOM      1  N   UNL     1      -0.365  11.645  19.789  0.00  0.00    +0.000 N 
ATOM      2  C   UNL     1      -1.489  11.469  18.985  0.00  0.00    +0.000 A 
ATOM      3  C   UNL     1      -1.199  10.717  17.737  0.00  0.00    +0.000 A 
ATOM      4  C   UNL     1      -2.233  10.493  16.913  0.00  0.00    +0.000 A 
ATOM      5  C   UNL     1      -3.513  10.956  17.280  0.00  0.00    +0.000 A 
ATOM      6  N   UNL     1      -4.696  10.836  16.719  0.00  0.00    +0.000 NA
ATOM      7  N   UNL     1      -5.602  11.489  17.518  0.00  0.00    +0.000 NA
ATOM      8  C   UNL     1      -4.960  12.027  18.546  0.00  0.00    +0.000 A 
ATOM      9  N   UNL     1      -3.628  11.671  18.457  0.00  0.00    +0.000 N 
ATOM     10  N   UNL     1      -2.629  11.934  19.353  0.00  0.00    +0.000 NA
ATOM     11  H   UNL     1       0.495  11.129  19.635  0.00  0.00    +0.000 HD
ENDROOT
BRANCH   8  12
ATOM     12  C   UNL     1      -5.561  12.834  19.610  0.00  0.00    +0.000 A 
ATOM     13  C   UNL     1      -5.845  12.241  20.845  0.00  0.00    +0.000 A 
ATOM     14  C   UNL     1      -6.449  12.975  21.871  0.00  0.00    +0.000 A 
ATOM     15  C   UNL     1      -6.780  14.313  21.668  0.00  0.00    +0.000 A 
ATOM     16  C   UNL     1      -6.503  14.919  20.446  0.00  0.00    +0.000 A 
ATOM     17  C   UNL     1      -5.898  14.185  19.422  0.00  0.00    +0.000 A 
ENDBRANCH   8  12
BRANCH   1  18
ATOM     18  S   UNL     1      -0.084  13.001  20.736  0.00  0.00    +0.000 S 
ATOM     19  O   UNL     1      -0.316  14.193  19.952  0.00  0.00    +0.000 OA
ATOM     20  O   UNL     1       1.196  12.759  21.368  0.00  0.00    +0.000 OA
BRANCH  18  25
ATOM     21  C   UNL     1      -4.471  12.557  24.898  0.00  0.00    +0.000 C 
ATOM     22  C   UNL     1      -3.363  12.690  23.888  0.00  0.00    +0.000 A 
ATOM     23  C   UNL     1      -2.578  11.565  23.576  0.00  0.00    +0.000 A 
ATOM     24  C   UNL     1      -1.556  11.647  22.628  0.00  0.00    +0.000 A 
ATOM     25  C   UNL     1      -1.321  12.860  21.989  0.00  0.00    +0.000 A 
ATOM     26  C   UNL     1      -2.093  13.988  22.285  0.00  0.00    +0.000 A 
ATOM     27  C   UNL     1      -3.110  13.917  23.244  0.00  0.00    +0.000 A 
ATOM     28  C   UNL     1      -3.910  15.153  23.553  0.00  0.00    +0.000 C 
ENDBRANCH  18  25
ENDBRANCH   1  18
TORSDOF 3
ENDMDL
MODEL 9
REMARK VINA RESULT:      -7.7      5.398      7.802
REMARK  Name = 
REMARK  5 active torsions:
REMARK  status: ('A' for Active; 'I' for Inactive)
REMARK    1  A    between atoms: C_1  and  C_2
REMARK    2  A    between atoms: C_5  and  S_6
REMARK    3  A    between atoms: S_6  and  N_9
REMARK    4  A    between atoms: C_16  and  C_17
REMARK    5  A    between atoms: C_26  and  C_27
REMARK                            x       y       z     vdW  Elec       q    Type
REMARK                         _______ _______ _______ _____ _____    ______ ____
ROOT
ATOM      1  N   UNL     1      -0.116   9.416  17.764  0.00  0.00    +0.000 N 
ATOM      2  C   UNL     1      -1.289  10.161  17.857  0.00  0.00    +0.000 A 
ATOM      3  C   UNL     1      -2.140  10.060  16.643  0.00  0.00    +0.000 A 
ATOM      4  C   UNL     1      -3.296  10.740  16.659  0.00  0.00    +0.000 A 
ATOM      5  C   UNL     1      -3.641  11.478  17.808  0.00  0.00    +0.000 A 
ATOM      6  N   UNL     1      -4.709  12.175  18.130  0.00  0.00    +0.000 NA
ATOM      7  N   UNL     1      -4.506  12.686  19.388  0.00  0.00    +0.000 NA
ATOM      8  C   UNL     1      -3.305  12.321  19.813  0.00  0.00    +0.000 A 
ATOM      9  N   UNL     1      -2.736  11.508  18.852  0.00  0.00    +0.000 N 
ATOM     10  N   UNL     1      -1.545  10.839  18.919  0.00  0.00    +0.000 NA
ATOM     11  H   UNL     1       0.024   8.720  17.039  0.00  0.00    +0.000 HD
ENDROOT
BRANCH   8  12
ATOM     12  C   UNL     1      -2.695  12.688  21.093  0.00  0.00    +0.000 A 
ATOM     13  C   UNL     1      -3.443  12.569  22.270  0.00  0.00    +0.000 A 
ATOM     14  C   UNL     1      -2.901  12.943  23.504  0.00  0.00    +0.000 A 
ATOM     15  C   UNL     1      -1.604  13.445  23.572  0.00  0.00    +0.000 A 
ATOM     16  C   UNL     1      -0.846  13.569  22.411  0.00  0.00    +0.000 A 
ATOM     17  C   UNL     1      -1.387  13.194  21.178  0.00  0.00    +0.000 A 
ENDBRANCH   8  12
BRANCH   1  18
ATOM     18  S   UNL     1       1.347   9.869  18.447  0.00  0.00    +0.000 S 
ATOM     19  O   UNL     1       1.113  10.431  19.758  0.00  0.00    +0.000 OA
ATOM     20  O   UNL     1       2.023  10.630  17.417  0.00  0.00    +0.000 OA
BRANCH  18  25
ATOM     21  C   UNL     1       4.437   4.681  18.992  0.00  0.00    +0.000 C 
ATOM     22  C   UNL     1       3.652   5.954  18.827  0.00  0.00    +0.000 A 
ATOM     23  C   UNL     1       2.716   6.318  19.813  0.00  0.00    +0.000 A 
ATOM     24  C   UNL     1       1.986   7.503  19.702  0.00  0.00    +0.000 A 
ATOM     25  C   UNL     1       2.196   8.327  18.601  0.00  0.00    +0.000 A 
ATOM     26  C   UNL     1       3.124   7.983  17.613  0.00  0.00    +0.000 A 
ATOM     27  C   UNL     1       3.849   6.789  17.710  0.00  0.00    +0.000 A 
ATOM     28  C   UNL     1       4.825   6.438  16.620  0.00  0.00    +0.000 C 
ENDBRANCH  18  25
ENDBRANCH   1  18
TORSDOF 3
ENDMDL
