MODEL 1
REMARK VINA RESULT:      -8.3      0.000      0.000
REMARK  Name = 
REMARK  9 active torsions:
REMARK  status: ('A' for Active; 'I' for Inactive)
REMARK    1  A    between atoms: C_1  and  O_2
REMARK    2  A    between atoms: O_2  and  C_3
REMARK    3  A    between atoms: C_5  and  O_6
REMARK    4  A    between atoms: O_6  and  C_7
REMARK    5  A    between atoms: C_8  and  C_9
REMARK    6  A    between atoms: C_11  and  C_12
REMARK    7  A    between atoms: C_24  and  C_25
REMARK    8  A    between atoms: C_28  and  O_29
REMARK    9  A    between atoms: O_29  and  C_30
REMARK                            x       y       z     vdW  Elec       q    Type
REMARK                         _______ _______ _______ _____ _____    ______ ____
ROOT
ATOM      1  C   UNL     1       0.670   9.912  19.083  0.00  0.00    +0.000 C 
ATOM      2  C   UNL     1       1.826   9.244  18.348  0.00  0.00    +0.000 C 
ATOM      3  C   UNL     1       2.046   8.072  19.267  0.00  0.00    +0.000 C 
ATOM      4  N   UNL     1       1.510   8.190  20.445  0.00  0.00    +0.000 NA
ATOM      5  N   UNL     1       0.784   9.361  20.441  0.00  0.00    +0.000 N 
ATOM      6  C   UNL     1      -0.139   9.650  21.440  0.00  0.00    +0.000 C 
ATOM      7  C   UNL     1      -0.366   8.593  22.496  0.00  0.00    +0.000 C 
ATOM      8  O   UNL     1      -0.801  10.686  21.481  0.00  0.00    +0.000 OA
ENDROOT
BRANCH   3   9
ATOM      9  C   UNL     1       2.768   6.876  18.757  0.00  0.00    +0.000 A 
ATOM     10  C   UNL     1       3.723   7.092  17.754  0.00  0.00    +0.000 A 
ATOM     11  C   UNL     1       4.226   6.020  17.019  0.00  0.00    +0.000 A 
ATOM     12  C   UNL     1       3.734   4.739  17.252  0.00  0.00    +0.000 A 
ATOM     13  C   UNL     1       2.780   4.499  18.247  0.00  0.00    +0.000 A 
ATOM     14  C   UNL     1       2.248   3.209  18.412  0.00  0.00    +0.000 A 
ATOM     15  C   UNL     1       1.320   2.932  19.414  0.00  0.00    +0.000 A 
ATOM     16  C   UNL     1       0.954   3.927  20.305  0.00  0.00    +0.000 A 
ATOM     17  C   UNL     1       1.448   5.223  20.137  0.00  0.00    +0.000 A 
ATOM     18  C   UNL     1       2.328   5.562  19.078  0.00  0.00    +0.000 A 
ENDBRANCH   3   9
BRANCH   1  22
ATOM     19  C   UNL     1       0.813  14.228  18.650  0.00  0.00    +0.000 A 
ATOM     20  C   UNL     1      -0.354  13.520  18.312  0.00  0.00    +0.000 A 
ATOM     21  C   UNL     1      -0.453  12.132  18.475  0.00  0.00    +0.000 A 
ATOM     22  C   UNL     1       0.651  11.410  18.946  0.00  0.00    +0.000 A 
ATOM     23  C   UNL     1       1.831  12.129  19.236  0.00  0.00    +0.000 A 
ATOM     24  C   UNL     1       1.940  13.517  19.068  0.00  0.00    +0.000 A 
BRANCH  19  26
ATOM     25  C   UNL     1      -0.365  16.273  18.709  0.00  0.00    +0.000 C 
ATOM     26  O   UNL     1       0.874  15.591  18.528  0.00  0.00    +0.000 OA
ENDBRANCH  19  26
BRANCH  21  27
ATOM     27  O   UNL     1      -1.624  11.602  17.993  0.00  0.00    +0.000 OA
ATOM     28  C   UNL     1      -2.799  11.774  18.780  0.00  0.00    +0.000 C 
ENDBRANCH  21  27
BRANCH  24  29
ATOM     29  O   UNL     1       3.199  13.970  19.358  0.00  0.00    +0.000 OA
ATOM     30  C   UNL     1       4.051  14.379  18.301  0.00  0.00    +0.000 C 
ENDBRANCH  24  29
ENDBRANCH   1  22
TORSDOF 5
ENDMDL
MODEL 2
REMARK VINA RESULT:      -7.8      4.177      8.085
REMARK  Name = 
REMARK  9 active torsions:
REMARK  status: ('A' for Active; 'I' for Inactive)
REMARK    1  A    between atoms: C_1  and  O_2
REMARK    2  A    between atoms: O_2  and  C_3
REMARK    3  A    between atoms: C_5  and  O_6
REMARK    4  A    between atoms: O_6  and  C_7
REMARK    5  A    between atoms: C_8  and  C_9
REMARK    6  A    between atoms: C_11  and  C_12
REMARK    7  A    between atoms: C_24  and  C_25
REMARK    8  A    between atoms: C_28  and  O_29
REMARK    9  A    between atoms: O_29  and  C_30
REMARK                            x       y       z     vdW  Elec       q    Type
REMARK                         _______ _______ _______ _____ _____    ______ ____
ROOT
ATOM      1  C   UNL     1       3.634   5.859  19.696  0.00  0.00    +0.000 C 
ATOM      2  C   UNL     1       3.026   7.236  19.465  0.00  0.00    +0.000 C 
ATOM      3  C   UNL     1       1.863   7.145  20.419  0.00  0.00    +0.000 C 
ATOM      4  N   UNL     1       1.562   5.941  20.803  0.00  0.00    +0.000 NA
ATOM      5  N   UNL     1       2.516   5.099  20.273  0.00  0.00    +0.000 N 
ATOM      6  C   UNL     1       2.657   3.788  20.715  0.00  0.00    +0.000 C 
ATOM      7  C   UNL     1       1.766   3.343  21.851  0.00  0.00    +0.000 C 
ATOM      8  O   UNL     1       3.488   3.000  20.264  0.00  0.00    +0.000 OA
ENDROOT
BRANCH   3   9
ATOM      9  C   UNL     1       1.216   8.397  20.895  0.00  0.00    +0.000 A 
ATOM     10  C   UNL     1       1.076   8.550  22.281  0.00  0.00    +0.000 A 
ATOM     11  C   UNL     1       0.232   9.532  22.797  0.00  0.00    +0.000 A 
ATOM     12  C   UNL     1      -0.511  10.324  21.927  0.00  0.00    +0.000 A 
ATOM     13  C   UNL     1      -0.389  10.187  20.540  0.00  0.00    +0.000 A 
ATOM     14  C   UNL     1      -1.203  10.949  19.686  0.00  0.00    +0.000 A 
ATOM     15  C   UNL     1      -1.083  10.859  18.300  0.00  0.00    +0.000 A 
ATOM     16  C   UNL     1      -0.105  10.049  17.747  0.00  0.00    +0.000 A 
ATOM     17  C   UNL     1       0.693   9.261  18.580  0.00  0.00    +0.000 A 
ATOM     18  C   UNL     1       0.542   9.263  19.990  0.00  0.00    +0.000 A 
ENDBRANCH   3   9
BRANCH   1  22
ATOM     19  C   UNL     1       5.722   4.144  16.299  0.00  0.00    +0.000 A 
ATOM     20  C   UNL     1       4.317   4.124  16.351  0.00  0.00    +0.000 A 
ATOM     21  C   UNL     1       3.605   4.703  17.411  0.00  0.00    +0.000 A 
ATOM     22  C   UNL     1       4.304   5.282  18.479  0.00  0.00    +0.000 A 
ATOM     23  C   UNL     1       5.715   5.252  18.435  0.00  0.00    +0.000 A 
ATOM     24  C   UNL     1       6.433   4.668  17.381  0.00  0.00    +0.000 A 
BRANCH  19  26
ATOM     25  C   UNL     1       6.786   4.557  14.232  0.00  0.00    +0.000 C 
ATOM     26  O   UNL     1       6.398   3.616  15.232  0.00  0.00    +0.000 OA
ENDBRANCH  19  26
BRANCH  21  27
ATOM     27  O   UNL     1       2.250   4.493  17.346  0.00  0.00    +0.000 OA
ATOM     28  C   UNL     1       1.791   3.145  17.349  0.00  0.00    +0.000 C 
ENDBRANCH  21  27
BRANCH  24  29
ATOM     29  O   UNL     1       7.784   4.712  17.598  0.00  0.00    +0.000 OA
ATOM     30  C   UNL     1       8.277   5.283  18.798  0.00  0.00    +0.000 C 
ENDBRANCH  24  29
ENDBRANCH   1  22
TORSDOF 5
ENDMDL
MODEL 3
REMARK VINA RESULT:      -7.5      2.074      4.202
REMARK  Name = 
REMARK  9 active torsions:
REMARK  status: ('A' for Active; 'I' for Inactive)
REMARK    1  A    between atoms: C_1  and  O_2
REMARK    2  A    between atoms: O_2  and  C_3
REMARK    3  A    between atoms: C_5  and  O_6
REMARK    4  A    between atoms: O_6  and  C_7
REMARK    5  A    between atoms: C_8  and  C_9
REMARK    6  A    between atoms: C_11  and  C_12
REMARK    7  A    between atoms: C_24  and  C_25
REMARK    8  A    between atoms: C_28  and  O_29
REMARK    9  A    between atoms: O_29  and  C_30
REMARK                            x       y       z     vdW  Elec       q    Type
REMARK                         _______ _______ _______ _____ _____    ______ ____
ROOT
ATOM      1  C   UNL     1       0.249  10.233  18.705  0.00  0.00    +0.000 C 
ATOM      2  C   UNL     1       0.601   8.800  18.329  0.00  0.00    +0.000 C 
ATOM      3  C   UNL     1       2.069   8.983  18.042  0.00  0.00    +0.000 C 
ATOM      4  N   UNL     1       2.442  10.213  17.858  0.00  0.00    +0.000 NA
ATOM      5  N   UNL     1       1.343  11.008  18.101  0.00  0.00    +0.000 N 
ATOM      6  C   UNL     1       1.461  12.384  18.271  0.00  0.00    +0.000 C 
ATOM      7  C   UNL     1       2.856  12.964  18.246  0.00  0.00    +0.000 C 
ATOM      8  O   UNL     1       0.507  13.132  18.480  0.00  0.00    +0.000 OA
ENDROOT
BRANCH   3   9
ATOM      9  C   UNL     1       2.965   7.796  18.065  0.00  0.00    +0.000 A 
ATOM     10  C   UNL     1       3.868   7.663  17.002  0.00  0.00    +0.000 A 
ATOM     11  C   UNL     1       4.527   6.454  16.787  0.00  0.00    +0.000 A 
ATOM     12  C   UNL     1       4.242   5.364  17.604  0.00  0.00    +0.000 A 
ATOM     13  C   UNL     1       3.344   5.473  18.670  0.00  0.00    +0.000 A 
ATOM     14  C   UNL     1       3.021   4.338  19.434  0.00  0.00    +0.000 A 
ATOM     15  C   UNL     1       2.154   4.422  20.523  0.00  0.00    +0.000 A 
ATOM     16  C   UNL     1       1.643   5.652  20.901  0.00  0.00    +0.000 A 
ATOM     17  C   UNL     1       1.929   6.785  20.134  0.00  0.00    +0.000 A 
ATOM     18  C   UNL     1       2.737   6.724  18.972  0.00  0.00    +0.000 A 
ENDBRANCH   3   9
BRANCH   1  22
ATOM     19  C   UNL     1      -3.826  11.192  17.559  0.00  0.00    +0.000 A 
ATOM     20  C   UNL     1      -3.288  11.699  18.756  0.00  0.00    +0.000 A 
ATOM     21  C   UNL     1      -1.965  11.445  19.141  0.00  0.00    +0.000 A 
ATOM     22  C   UNL     1      -1.157  10.627  18.341  0.00  0.00    +0.000 A 
ATOM     23  C   UNL     1      -1.725  10.087  17.167  0.00  0.00    +0.000 A 
ATOM     24  C   UNL     1      -3.051  10.330  16.780  0.00  0.00    +0.000 A 
BRANCH  19  26
ATOM     25  C   UNL     1      -6.126  11.053  18.076  0.00  0.00    +0.000 C 
ATOM     26  O   UNL     1      -5.107  11.490  17.177  0.00  0.00    +0.000 OA
ENDBRANCH  19  26
BRANCH  21  27
ATOM     27  O   UNL     1      -1.649  11.929  20.386  0.00  0.00    +0.000 OA
ATOM     28  C   UNL     1      -2.167  13.206  20.747  0.00  0.00    +0.000 C 
ENDBRANCH  21  27
BRANCH  24  29
ATOM     29  O   UNL     1      -3.384   9.648  15.641  0.00  0.00    +0.000 OA
ATOM     30  C   UNL     1      -3.193  10.267  14.379  0.00  0.00    +0.000 C 
ENDBRANCH  24  29
ENDBRANCH   1  22
TORSDOF 5
ENDMDL
MODEL 4
REMARK VINA RESULT:      -7.4      1.076      2.269
REMARK  Name = 
REMARK  9 active torsions:
REMARK  status: ('A' for Active; 'I' for Inactive)
REMARK    1  A    between atoms: C_1  and  O_2
REMARK    2  A    between atoms: O_2  and  C_3
REMARK    3  A    between atoms: C_5  and  O_6
REMARK    4  A    between atoms: O_6  and  C_7
REMARK    5  A    between atoms: C_8  and  C_9
REMARK    6  A    between atoms: C_11  and  C_12
REMARK    7  A    between atoms: C_24  and  C_25
REMARK    8  A    between atoms: C_28  and  O_29
REMARK    9  A    between atoms: O_29  and  C_30
REMARK                            x       y       z     vdW  Elec       q    Type
REMARK                         _______ _______ _______ _____ _____    ______ ____
ROOT
ATOM      1  C   UNL     1       0.444  10.032  19.860  0.00  0.00    +0.000 C 
ATOM      2  C   UNL     1       1.385   9.097  19.111  0.00  0.00    +0.000 C 
ATOM      3  C   UNL     1       1.595   8.061  20.184  0.00  0.00    +0.000 C 
ATOM      4  N   UNL     1       1.261   8.437  21.382  0.00  0.00    +0.000 NA
ATOM      5  N   UNL     1       0.693   9.688  21.268  0.00  0.00    +0.000 N 
ATOM      6  C   UNL     1      -0.026  10.260  22.312  0.00  0.00    +0.000 C 
ATOM      7  C   UNL     1      -0.220   9.423  23.555  0.00  0.00    +0.000 C 
ATOM      8  O   UNL     1      -0.541  11.376  22.256  0.00  0.00    +0.000 OA
ENDROOT
BRANCH   3   9
ATOM      9  C   UNL     1       2.078   6.707  19.800  0.00  0.00    +0.000 A 
ATOM     10  C   UNL     1       1.747   5.650  20.658  0.00  0.00    +0.000 A 
ATOM     11  C   UNL     1       2.395   4.421  20.540  0.00  0.00    +0.000 A 
ATOM     12  C   UNL     1       3.410   4.269  19.600  0.00  0.00    +0.000 A 
ATOM     13  C   UNL     1       3.758   5.311  18.735  0.00  0.00    +0.000 A 
ATOM     14  C   UNL     1       4.833   5.154  17.844  0.00  0.00    +0.000 A 
ATOM     15  C   UNL     1       5.184   6.162  16.948  0.00  0.00    +0.000 A 
ATOM     16  C   UNL     1       4.427   7.320  16.886  0.00  0.00    +0.000 A 
ATOM     17  C   UNL     1       3.373   7.506  17.785  0.00  0.00    +0.000 A 
ATOM     18  C   UNL     1       3.041   6.539  18.767  0.00  0.00    +0.000 A 
ENDBRANCH   3   9
BRANCH   1  22
ATOM     19  C   UNL     1       1.066  14.175  18.725  0.00  0.00    +0.000 A 
ATOM     20  C   UNL     1      -0.106  13.502  18.336  0.00  0.00    +0.000 A 
ATOM     21  C   UNL     1      -0.362  12.178  18.716  0.00  0.00    +0.000 A 
ATOM     22  C   UNL     1       0.591  11.478  19.469  0.00  0.00    +0.000 A 
ATOM     23  C   UNL     1       1.783  12.152  19.811  0.00  0.00    +0.000 A 
ATOM     24  C   UNL     1       2.049  13.474  19.427  0.00  0.00    +0.000 A 
BRANCH  19  26
ATOM     25  C   UNL     1       0.423  16.426  19.033  0.00  0.00    +0.000 C 
ATOM     26  O   UNL     1       1.276  15.485  18.383  0.00  0.00    +0.000 OA
ENDBRANCH  19  26
BRANCH  21  27
ATOM     27  O   UNL     1      -1.500  11.652  18.157  0.00  0.00    +0.000 OA
ATOM     28  C   UNL     1      -2.717  11.795  18.881  0.00  0.00    +0.000 C 
ENDBRANCH  21  27
BRANCH  24  29
ATOM     29  O   UNL     1       3.292  13.882  19.827  0.00  0.00    +0.000 OA
ATOM     30  C   UNL     1       3.460  14.435  21.122  0.00  0.00    +0.000 C 
ENDBRANCH  24  29
ENDBRANCH   1  22
TORSDOF 5
ENDMDL
MODEL 5
REMARK VINA RESULT:      -7.2      1.126      2.359
REMARK  Name = 
REMARK  9 active torsions:
REMARK  status: ('A' for Active; 'I' for Inactive)
REMARK    1  A    between atoms: C_1  and  O_2
REMARK    2  A    between atoms: O_2  and  C_3
REMARK    3  A    between atoms: C_5  and  O_6
REMARK    4  A    between atoms: O_6  and  C_7
REMARK    5  A    between atoms: C_8  and  C_9
REMARK    6  A    between atoms: C_11  and  C_12
REMARK    7  A    between atoms: C_24  and  C_25
REMARK    8  A    between atoms: C_28  and  O_29
REMARK    9  A    between atoms: O_29  and  C_30
REMARK                            x       y       z     vdW  Elec       q    Type
REMARK                         _______ _______ _______ _____ _____    ______ ____
ROOT
ATOM      1  C   UNL     1       0.819   9.671  18.991  0.00  0.00    +0.000 C 
ATOM      2  C   UNL     1       1.573   8.925  17.899  0.00  0.00    +0.000 C 
ATOM      3  C   UNL     1       2.098   7.773  18.716  0.00  0.00    +0.000 C 
ATOM      4  N   UNL     1       2.068   7.955  20.002  0.00  0.00    +0.000 NA
ATOM      5  N   UNL     1       1.437   9.160  20.224  0.00  0.00    +0.000 N 
ATOM      6  C   UNL     1       0.987   9.525  21.488  0.00  0.00    +0.000 C 
ATOM      7  C   UNL     1       1.156   8.515  22.598  0.00  0.00    +0.000 C 
ATOM      8  O   UNL     1       0.426  10.594  21.732  0.00  0.00    +0.000 OA
ENDROOT
BRANCH   3   9
ATOM      9  C   UNL     1       2.524   6.527  18.023  0.00  0.00    +0.000 A 
ATOM     10  C   UNL     1       1.617   5.460  18.024  0.00  0.00    +0.000 A 
ATOM     11  C   UNL     1       2.038   4.180  17.667  0.00  0.00    +0.000 A 
ATOM     12  C   UNL     1       3.378   3.960  17.360  0.00  0.00    +0.000 A 
ATOM     13  C   UNL     1       4.301   5.010  17.355  0.00  0.00    +0.000 A 
ATOM     14  C   UNL     1       5.660   4.748  17.112  0.00  0.00    +0.000 A 
ATOM     15  C   UNL     1       6.599   5.777  17.068  0.00  0.00    +0.000 A 
ATOM     16  C   UNL     1       6.185   7.092  17.207  0.00  0.00    +0.000 A 
ATOM     17  C   UNL     1       4.843   7.368  17.480  0.00  0.00    +0.000 A 
ATOM     18  C   UNL     1       3.874   6.342  17.615  0.00  0.00    +0.000 A 
ENDBRANCH   3   9
BRANCH   1  22
ATOM     19  C   UNL     1       0.929  13.961  18.341  0.00  0.00    +0.000 A 
ATOM     20  C   UNL     1      -0.303  13.287  18.412  0.00  0.00    +0.000 A 
ATOM     21  C   UNL     1      -0.382  11.909  18.660  0.00  0.00    +0.000 A 
ATOM     22  C   UNL     1       0.796  11.163  18.800  0.00  0.00    +0.000 A 
ATOM     23  C   UNL     1       2.026  11.847  18.680  0.00  0.00    +0.000 A 
ATOM     24  C   UNL     1       2.112  13.223  18.423  0.00  0.00    +0.000 A 
BRANCH  19  26
ATOM     25  C   UNL     1       0.043  16.077  18.900  0.00  0.00    +0.000 C 
ATOM     26  O   UNL     1       0.984  15.315  18.145  0.00  0.00    +0.000 OA
ENDBRANCH  19  26
BRANCH  21  27
ATOM     27  O   UNL     1      -1.657  11.407  18.586  0.00  0.00    +0.000 OA
ATOM     28  C   UNL     1      -2.353  11.554  17.353  0.00  0.00    +0.000 C 
ENDBRANCH  21  27
BRANCH  24  29
ATOM     29  O   UNL     1       3.409  13.638  18.291  0.00  0.00    +0.000 OA
ATOM     30  C   UNL     1       3.968  14.497  19.272  0.00  0.00    +0.000 C 
ENDBRANCH  24  29
ENDBRANCH   1  22
TORSDOF 5
ENDMDL
MODEL 6
REMARK VINA RESULT:      -7.0      3.974      7.739
REMARK  Name = 
REMARK  9 active torsions:
REMARK  status: ('A' for Active; 'I' for Inactive)
REMARK    1  A    between atoms: C_1  and  O_2
REMARK    2  A    between atoms: O_2  and  C_3
REMARK    3  A    between atoms: C_5  and  O_6
REMARK    4  A    between atoms: O_6  and  C_7
REMARK    5  A    between atoms: C_8  and  C_9
REMARK    6  A    between atoms: C_11  and  C_12
REMARK    7  A    between atoms: C_24  and  C_25
REMARK    8  A    between atoms: C_28  and  O_29
REMARK    9  A    between atoms: O_29  and  C_30
REMARK                            x       y       z     vdW  Elec       q    Type
REMARK                         _______ _______ _______ _____ _____    ______ ____
ROOT
ATOM      1  C   UNL     1       3.535   6.918  18.781  0.00  0.00    +0.000 C 
ATOM      2  C   UNL     1       2.668   8.039  18.222  0.00  0.00    +0.000 C 
ATOM      3  C   UNL     1       1.503   7.934  19.171  0.00  0.00    +0.000 C 
ATOM      4  N   UNL     1       1.437   6.821  19.837  0.00  0.00    +0.000 NA
ATOM      5  N   UNL     1       2.569   6.098  19.527  0.00  0.00    +0.000 N 
ATOM      6  C   UNL     1       2.954   4.991  20.275  0.00  0.00    +0.000 C 
ATOM      7  C   UNL     1       2.118   4.652  21.487  0.00  0.00    +0.000 C 
ATOM      8  O   UNL     1       3.951   4.313  20.028  0.00  0.00    +0.000 OA
ENDROOT
BRANCH   3   9
ATOM      9  C   UNL     1       0.589   9.097  19.329  0.00  0.00    +0.000 A 
ATOM     10  C   UNL     1       0.447   9.946  18.223  0.00  0.00    +0.000 A 
ATOM     11  C   UNL     1      -0.142  11.201  18.372  0.00  0.00    +0.000 A 
ATOM     12  C   UNL     1      -0.540  11.625  19.636  0.00  0.00    +0.000 A 
ATOM     13  C   UNL     1      -0.407  10.795  20.754  0.00  0.00    +0.000 A 
ATOM     14  C   UNL     1      -0.751  11.275  22.029  0.00  0.00    +0.000 A 
ATOM     15  C   UNL     1      -0.660  10.463  23.158  0.00  0.00    +0.000 A 
ATOM     16  C   UNL     1      -0.280   9.138  23.020  0.00  0.00    +0.000 A 
ATOM     17  C   UNL     1       0.095   8.652  21.765  0.00  0.00    +0.000 A 
ATOM     18  C   UNL     1       0.096   9.473  20.610  0.00  0.00    +0.000 A 
ENDBRANCH   3   9
BRANCH   1  22
ATOM     19  C   UNL     1       6.104   4.961  15.881  0.00  0.00    +0.000 A 
ATOM     20  C   UNL     1       4.803   4.480  16.113  0.00  0.00    +0.000 A 
ATOM     21  C   UNL     1       3.929   5.108  17.011  0.00  0.00    +0.000 A 
ATOM     22  C   UNL     1       4.369   6.222  17.739  0.00  0.00    +0.000 A 
ATOM     23  C   UNL     1       5.693   6.664  17.529  0.00  0.00    +0.000 A 
ATOM     24  C   UNL     1       6.574   6.035  16.638  0.00  0.00    +0.000 A 
BRANCH  19  26
ATOM     25  C   UNL     1       6.302   4.003  13.732  0.00  0.00    +0.000 C 
ATOM     26  O   UNL     1       6.926   4.361  14.964  0.00  0.00    +0.000 OA
ENDBRANCH  19  26
BRANCH  21  27
ATOM     27  O   UNL     1       2.744   4.438  17.189  0.00  0.00    +0.000 OA
ATOM     28  C   UNL     1       2.784   3.015  17.182  0.00  0.00    +0.000 C 
ENDBRANCH  21  27
BRANCH  24  29
ATOM     29  O   UNL     1       7.816   6.611  16.657  0.00  0.00    +0.000 OA
ATOM     30  C   UNL     1       8.029   7.780  17.431  0.00  0.00    +0.000 C 
ENDBRANCH  24  29
ENDBRANCH   1  22
TORSDOF 5
ENDMDL
MODEL 7
REMARK VINA RESULT:      -6.9      2.047      3.427
REMARK  Name = 
REMARK  9 active torsions:
REMARK  status: ('A' for Active; 'I' for Inactive)
REMARK    1  A    between atoms: C_1  and  O_2
REMARK    2  A    between atoms: O_2  and  C_3
REMARK    3  A    between atoms: C_5  and  O_6
REMARK    4  A    between atoms: O_6  and  C_7
REMARK    5  A    between atoms: C_8  and  C_9
REMARK    6  A    between atoms: C_11  and  C_12
REMARK    7  A    between atoms: C_24  and  C_25
REMARK    8  A    between atoms: C_28  and  O_29
REMARK    9  A    between atoms: O_29  and  C_30
REMARK                            x       y       z     vdW  Elec       q    Type
REMARK                         _______ _______ _______ _____ _____    ______ ____
ROOT
ATOM      1  C   UNL     1       0.811  11.187  18.899  0.00  0.00    +0.000 C 
ATOM      2  C   UNL     1       1.898  10.239  19.389  0.00  0.00    +0.000 C 
ATOM      3  C   UNL     1       1.520   9.014  18.598  0.00  0.00    +0.000 C 
ATOM      4  N   UNL     1       0.319   9.030  18.104  0.00  0.00    +0.000 NA
ATOM      5  N   UNL     1      -0.216  10.269  18.385  0.00  0.00    +0.000 N 
ATOM      6  C   UNL     1      -1.372  10.723  17.759  0.00  0.00    +0.000 C 
ATOM      7  C   UNL     1      -1.982   9.828  16.706  0.00  0.00    +0.000 C 
ATOM      8  O   UNL     1      -1.888  11.817  17.985  0.00  0.00    +0.000 OA
ENDROOT
BRANCH   3   9
ATOM      9  C   UNL     1       2.535   7.948  18.383  0.00  0.00    +0.000 A 
ATOM     10  C   UNL     1       3.388   8.098  17.282  0.00  0.00    +0.000 A 
ATOM     11  C   UNL     1       4.157   7.024  16.837  0.00  0.00    +0.000 A 
ATOM     12  C   UNL     1       4.031   5.787  17.460  0.00  0.00    +0.000 A 
ATOM     13  C   UNL     1       3.184   5.612  18.560  0.00  0.00    +0.000 A 
ATOM     14  C   UNL     1       3.022   4.336  19.126  0.00  0.00    +0.000 A 
ATOM     15  C   UNL     1       2.211   4.136  20.241  0.00  0.00    +0.000 A 
ATOM     16  C   UNL     1       1.596   5.220  20.845  0.00  0.00    +0.000 A 
ATOM     17  C   UNL     1       1.721   6.491  20.279  0.00  0.00    +0.000 A 
ATOM     18  C   UNL     1       2.468   6.719  19.096  0.00  0.00    +0.000 A 
ENDBRANCH   3   9
BRANCH   1  22
ATOM     19  C   UNL     1      -0.402  13.960  22.010  0.00  0.00    +0.000 A 
ATOM     20  C   UNL     1       0.217  14.434  20.840  0.00  0.00    +0.000 A 
ATOM     21  C   UNL     1       0.587  13.576  19.795  0.00  0.00    +0.000 A 
ATOM     22  C   UNL     1       0.380  12.196  19.928  0.00  0.00    +0.000 A 
ATOM     23  C   UNL     1      -0.199  11.730  21.129  0.00  0.00    +0.000 A 
ATOM     24  C   UNL     1      -0.563  12.583  22.181  0.00  0.00    +0.000 A 
BRANCH  19  26
ATOM     25  C   UNL     1      -2.149  15.271  22.906  0.00  0.00    +0.000 C 
ATOM     26  O   UNL     1      -0.799  14.820  22.999  0.00  0.00    +0.000 OA
ENDBRANCH  19  26
BRANCH  21  27
ATOM     27  O   UNL     1       1.272  14.200  18.784  0.00  0.00    +0.000 OA
ATOM     28  C   UNL     1       1.353  15.621  18.821  0.00  0.00    +0.000 C 
ENDBRANCH  21  27
BRANCH  24  29
ATOM     29  O   UNL     1      -1.046  11.889  23.257  0.00  0.00    +0.000 OA
ATOM     30  C   UNL     1      -1.022  10.471  23.238  0.00  0.00    +0.000 C 
ENDBRANCH  24  29
ENDBRANCH   1  22
TORSDOF 5
ENDMDL
MODEL 8
REMARK VINA RESULT:      -6.8      2.174      3.248
REMARK  Name = 
REMARK  9 active torsions:
REMARK  status: ('A' for Active; 'I' for Inactive)
REMARK    1  A    between atoms: C_1  and  O_2
REMARK    2  A    between atoms: O_2  and  C_3
REMARK    3  A    between atoms: C_5  and  O_6
REMARK    4  A    between atoms: O_6  and  C_7
REMARK    5  A    between atoms: C_8  and  C_9
REMARK    6  A    between atoms: C_11  and  C_12
REMARK    7  A    between atoms: C_24  and  C_25
REMARK    8  A    between atoms: C_28  and  O_29
REMARK    9  A    between atoms: O_29  and  C_30
REMARK                            x       y       z     vdW  Elec       q    Type
REMARK                         _______ _______ _______ _____ _____    ______ ____
ROOT
ATOM      1  C   UNL     1       0.683  11.051  19.506  0.00  0.00    +0.000 C 
ATOM      2  C   UNL     1       1.738  10.033  19.918  0.00  0.00    +0.000 C 
ATOM      3  C   UNL     1       1.412   8.941  18.932  0.00  0.00    +0.000 C 
ATOM      4  N   UNL     1       0.244   9.039  18.372  0.00  0.00    +0.000 NA
ATOM      5  N   UNL     1      -0.309  10.228  18.799  0.00  0.00    +0.000 N 
ATOM      6  C   UNL     1      -1.424  10.778  18.177  0.00  0.00    +0.000 C 
ATOM      7  C   UNL     1      -1.966  10.053  16.967  0.00  0.00    +0.000 C 
ATOM      8  O   UNL     1      -1.955  11.831  18.530  0.00  0.00    +0.000 OA
ENDROOT
BRANCH   3   9
ATOM      9  C   UNL     1       2.440   7.910  18.625  0.00  0.00    +0.000 A 
ATOM     10  C   UNL     1       3.290   8.167  17.542  0.00  0.00    +0.000 A 
ATOM     11  C   UNL     1       4.072   7.145  17.005  0.00  0.00    +0.000 A 
ATOM     12  C   UNL     1       3.962   5.857  17.518  0.00  0.00    +0.000 A 
ATOM     13  C   UNL     1       3.118   5.577  18.598  0.00  0.00    +0.000 A 
ATOM     14  C   UNL     1       2.973   4.254  19.050  0.00  0.00    +0.000 A 
ATOM     15  C   UNL     1       2.165   3.948  20.144  0.00  0.00    +0.000 A 
ATOM     16  C   UNL     1       1.536   4.967  20.840  0.00  0.00    +0.000 A 
ATOM     17  C   UNL     1       1.645   6.284  20.387  0.00  0.00    +0.000 A 
ATOM     18  C   UNL     1       2.389   6.623  19.229  0.00  0.00    +0.000 A 
ENDBRANCH   3   9
BRANCH   1  22
ATOM     19  C   UNL     1      -0.788  13.648  22.658  0.00  0.00    +0.000 A 
ATOM     20  C   UNL     1      -0.927  12.253  22.766  0.00  0.00    +0.000 A 
ATOM     21  C   UNL     1      -0.430  11.379  21.790  0.00  0.00    +0.000 A 
ATOM     22  C   UNL     1       0.186  11.901  20.645  0.00  0.00    +0.000 A 
ATOM     23  C   UNL     1       0.277  13.305  20.528  0.00  0.00    +0.000 A 
ATOM     24  C   UNL     1      -0.226  14.185  21.497  0.00  0.00    +0.000 A 
BRANCH  19  26
ATOM     25  C   UNL     1      -2.653  14.493  23.835  0.00  0.00    +0.000 C 
ATOM     26  O   UNL     1      -1.238  14.483  23.646  0.00  0.00    +0.000 OA
ENDBRANCH  19  26
BRANCH  21  27
ATOM     27  O   UNL     1      -0.751  10.063  22.011  0.00  0.00    +0.000 OA
ATOM     28  C   UNL     1      -0.145   9.414  23.124  0.00  0.00    +0.000 C 
ENDBRANCH  21  27
BRANCH  24  29
ATOM     29  O   UNL     1      -0.072  15.494  21.128  0.00  0.00    +0.000 OA
ATOM     30  C   UNL     1       0.263  15.802  19.785  0.00  0.00    +0.000 C 
ENDBRANCH  24  29
ENDBRANCH   1  22
TORSDOF 5
ENDMDL
MODEL 9
REMARK VINA RESULT:      -6.7      3.681      6.356
REMARK  Name = 
REMARK  9 active torsions:
REMARK  status: ('A' for Active; 'I' for Inactive)
REMARK    1  A    between atoms: C_1  and  O_2
REMARK    2  A    between atoms: O_2  and  C_3
REMARK    3  A    between atoms: C_5  and  O_6
REMARK    4  A    between atoms: O_6  and  C_7
REMARK    5  A    between atoms: C_8  and  C_9
REMARK    6  A    between atoms: C_11  and  C_12
REMARK    7  A    between atoms: C_24  and  C_25
REMARK    8  A    between atoms: C_28  and  O_29
REMARK    9  A    between atoms: O_29  and  C_30
REMARK                            x       y       z     vdW  Elec       q    Type
REMARK                         _______ _______ _______ _____ _____    ______ ____
ROOT
ATOM      1  C   UNL     1      -0.170  12.214  20.237  0.00  0.00    +0.000 C 
ATOM      2  C   UNL     1      -0.904  12.477  18.929  0.00  0.00    +0.000 C 
ATOM      3  C   UNL     1      -1.366  11.074  18.629  0.00  0.00    +0.000 C 
ATOM      4  N   UNL     1      -0.750  10.142  19.291  0.00  0.00    +0.000 NA
ATOM      5  N   UNL     1       0.098  10.770  20.178  0.00  0.00    +0.000 N 
ATOM      6  C   UNL     1       0.695  10.080  21.228  0.00  0.00    +0.000 C 
ATOM      7  C   UNL     1       0.321   8.626  21.399  0.00  0.00    +0.000 C 
ATOM      8  O   UNL     1       1.464  10.599  22.037  0.00  0.00    +0.000 OA
ENDROOT
BRANCH   3   9
ATOM      9  C   UNL     1      -2.502  10.870  17.691  0.00  0.00    +0.000 A 
ATOM     10  C   UNL     1      -2.204  10.286  16.453  0.00  0.00    +0.000 A 
ATOM     11  C   UNL     1      -3.134  10.328  15.415  0.00  0.00    +0.000 A 
ATOM     12  C   UNL     1      -4.339  11.000  15.601  0.00  0.00    +0.000 A 
ATOM     13  C   UNL     1      -4.657  11.590  16.828  0.00  0.00    +0.000 A 
ATOM     14  C   UNL     1      -5.848  12.323  16.966  0.00  0.00    +0.000 A 
ATOM     15  C   UNL     1      -6.208  12.896  18.185  0.00  0.00    +0.000 A 
ATOM     16  C   UNL     1      -5.412  12.695  19.300  0.00  0.00    +0.000 A 
ATOM     17  C   UNL     1      -4.209  11.996  19.174  0.00  0.00    +0.000 A 
ATOM     18  C   UNL     1      -3.768  11.472  17.933  0.00  0.00    +0.000 A 
ENDBRANCH   3   9
BRANCH   1  22
ATOM     19  C   UNL     1       3.236  14.866  20.691  0.00  0.00    +0.000 A 
ATOM     20  C   UNL     1       2.257  14.792  21.697  0.00  0.00    +0.000 A 
ATOM     21  C   UNL     1       1.164  13.919  21.606  0.00  0.00    +0.000 A 
ATOM     22  C   UNL     1       1.007  13.124  20.463  0.00  0.00    +0.000 A 
ATOM     23  C   UNL     1       1.973  13.244  19.441  0.00  0.00    +0.000 A 
ATOM     24  C   UNL     1       3.064  14.121  19.522  0.00  0.00    +0.000 A 
BRANCH  19  26
ATOM     25  C   UNL     1       5.153  15.429  21.950  0.00  0.00    +0.000 C 
ATOM     26  O   UNL     1       4.322  15.691  20.820  0.00  0.00    +0.000 OA
ENDBRANCH  19  26
BRANCH  21  27
ATOM     27  O   UNL     1       0.258  14.061  22.627  0.00  0.00    +0.000 OA
ATOM     28  C   UNL     1      -0.208  15.375  22.917  0.00  0.00    +0.000 C 
ENDBRANCH  21  27
BRANCH  24  29
ATOM     29  O   UNL     1       3.823  14.100  18.382  0.00  0.00    +0.000 OA
ATOM     30  C   UNL     1       3.793  15.214  17.506  0.00  0.00    +0.000 C 
ENDBRANCH  24  29
ENDBRANCH   1  22
TORSDOF 5
ENDMDL
