MODEL 1
REMARK VINA RESULT:      -8.7      0.000      0.000
REMARK  Name = 
REMARK  7 active torsions:
REMARK  status: ('A' for Active; 'I' for Inactive)
REMARK    1  A    between atoms: C_1  and  N_2
REMARK    2  A    between atoms: N_9  and  C_10
REMARK    3  A    between atoms: C_10  and  C_11
REMARK    4  A    between atoms: C_10  and  C_25
REMARK    5  A    between atoms: N_13  and  C_14
REMARK    6  A    between atoms: C_19  and  C_20
REMARK    7  A    between atoms: N_31  and  C_32
REMARK                            x       y       z     vdW  Elec       q    Type
REMARK                         _______ _______ _______ _____ _____    ______ ____
ROOT
ATOM      1  C   UNL     1       0.409  11.072  18.740  0.00  0.00    +0.000 C 
ENDROOT
BRANCH   1  10
ATOM      2  C   UNL     1       4.670  14.650  18.063  0.00  0.00    +0.000 C 
ATOM      3  N   UNL     1       3.603  14.324  18.987  0.00  0.00    +0.000 N 
ATOM      4  C   UNL     1       2.654  13.376  18.594  0.00  0.00    +0.000 A 
ATOM      5  O   UNL     1       2.609  12.860  17.483  0.00  0.00    +0.000 OA
ATOM      6  C   UNL     1       1.728  13.059  19.628  0.00  0.00    +0.000 A 
ATOM      7  C   UNL     1       1.706  13.709  20.827  0.00  0.00    +0.000 A 
ATOM      8  N   UNL     1       0.730  13.238  21.646  0.00  0.00    +0.000 NA
ATOM      9  C   UNL     1       0.173  12.261  20.964  0.00  0.00    +0.000 A 
ATOM     10  N   UNL     1       0.740  12.113  19.721  0.00  0.00    +0.000 N 
ATOM     11  N   UNL     1       2.603  14.710  21.125  0.00  0.00    +0.000 N 
ATOM     12  C   UNL     1       2.577  15.400  22.401  0.00  0.00    +0.000 C 
ATOM     13  C   UNL     1       3.599  15.034  20.206  0.00  0.00    +0.000 A 
ATOM     14  O   UNL     1       4.445  15.901  20.448  0.00  0.00    +0.000 OA
ENDBRANCH   1  10
BRANCH   1  15
ATOM     15  C   UNL     1      -1.081  11.003  18.411  0.00  0.00    +0.000 A 
ATOM     16  C   UNL     1      -1.543   9.974  17.567  0.00  0.00    +0.000 A 
ATOM     17  C   UNL     1      -2.904   9.834  17.281  0.00  0.00    +0.000 A 
ATOM     18  C   UNL     1      -3.827  10.717  17.835  0.00  0.00    +0.000 A 
ATOM     19  C   UNL     1      -3.388  11.743  18.668  0.00  0.00    +0.000 A 
ATOM     20  C   UNL     1      -2.029  11.885  18.957  0.00  0.00    +0.000 A 
ENDBRANCH   1  15
BRANCH   1  21
ATOM     21  C   UNL     1       1.050   9.734  19.152  0.00  0.00    +0.000 C 
ATOM     22  O   UNL     1       0.753   9.212  20.231  0.00  0.00    +0.000 OA
ATOM     23  N   UNL     1       1.913   9.147  18.233  0.00  0.00    +0.000 N 
ATOM     24  H   UNL     1       2.395   9.773  17.596  0.00  0.00    +0.000 HD
BRANCH  23  25
ATOM     25  C   UNL     1       2.508   7.888  18.443  0.00  0.00    +0.000 A 
ATOM     26  C   UNL     1       2.299   7.143  19.601  0.00  0.00    +0.000 A 
ATOM     27  C   UNL     1       2.921   5.900  19.749  0.00  0.00    +0.000 A 
ATOM     28  C   UNL     1       3.790   5.413  18.766  0.00  0.00    +0.000 A 
ATOM     29 CL   UNL     1       4.530   3.887  19.077  0.00  0.00    +0.000 Cl
ATOM     30  C   UNL     1       4.023   6.155  17.605  0.00  0.00    +0.000 A 
ATOM     31  C   UNL     1       3.332   7.378  17.439  0.00  0.00    +0.000 A 
BRANCH  30  32
ATOM     32  C   UNL     1       5.002   5.781  16.524  0.00  0.00    +0.000 C 
ATOM     33  F   UNL     1       5.081   6.608  15.453  0.00  0.00    +0.000 F 
ATOM     34  F   UNL     1       6.274   5.686  17.010  0.00  0.00    +0.000 F 
ATOM     35  F   UNL     1       4.724   4.546  16.010  0.00  0.00    +0.000 F 
ENDBRANCH  30  32
ENDBRANCH  23  25
ENDBRANCH   1  21
TORSDOF 5
ENDMDL
MODEL 2
REMARK VINA RESULT:      -8.7      5.648      9.158
REMARK  Name = 
REMARK  7 active torsions:
REMARK  status: ('A' for Active; 'I' for Inactive)
REMARK    1  A    between atoms: C_1  and  N_2
REMARK    2  A    between atoms: N_9  and  C_10
REMARK    3  A    between atoms: C_10  and  C_11
REMARK    4  A    between atoms: C_10  and  C_25
REMARK    5  A    between atoms: N_13  and  C_14
REMARK    6  A    between atoms: C_19  and  C_20
REMARK    7  A    between atoms: N_31  and  C_32
REMARK                            x       y       z     vdW  Elec       q    Type
REMARK                         _______ _______ _______ _____ _____    ______ ____
ROOT
ATOM      1  C   UNL     1       5.691   5.862  16.030  0.00  0.00    +0.000 C 
ENDROOT
BRANCH   1  10
ATOM      2  C   UNL     1       1.989   7.740  19.797  0.00  0.00    +0.000 C 
ATOM      3  N   UNL     1       2.546   6.508  19.274  0.00  0.00    +0.000 N 
ATOM      4  C   UNL     1       3.385   6.582  18.159  0.00  0.00    +0.000 A 
ATOM      5  O   UNL     1       3.619   7.611  17.535  0.00  0.00    +0.000 OA
ATOM      6  C   UNL     1       3.956   5.324  17.813  0.00  0.00    +0.000 A 
ATOM      7  C   UNL     1       3.615   4.160  18.436  0.00  0.00    +0.000 A 
ATOM      8  N   UNL     1       4.285   3.093  17.928  0.00  0.00    +0.000 NA
ATOM      9  C   UNL     1       5.077   3.609  17.013  0.00  0.00    +0.000 A 
ATOM     10  N   UNL     1       4.913   4.969  16.897  0.00  0.00    +0.000 N 
ATOM     11  N   UNL     1       2.702   4.129  19.465  0.00  0.00    +0.000 N 
ATOM     12  C   UNL     1       2.341   2.889  20.126  0.00  0.00    +0.000 C 
ATOM     13  C   UNL     1       2.150   5.322  19.928  0.00  0.00    +0.000 A 
ATOM     14  O   UNL     1       1.355   5.343  20.873  0.00  0.00    +0.000 OA
ENDBRANCH   1  10
BRANCH   1  15
ATOM     15  C   UNL     1       6.182   5.187  14.751  0.00  0.00    +0.000 A 
ATOM     16  C   UNL     1       5.359   4.226  14.131  0.00  0.00    +0.000 A 
ATOM     17  C   UNL     1       5.739   3.622  12.929  0.00  0.00    +0.000 A 
ATOM     18  C   UNL     1       6.944   3.967  12.325  0.00  0.00    +0.000 A 
ATOM     19  C   UNL     1       7.773   4.911  12.925  0.00  0.00    +0.000 A 
ATOM     20  C   UNL     1       7.396   5.519  14.126  0.00  0.00    +0.000 A 
ENDBRANCH   1  15
BRANCH   1  21
ATOM     21  C   UNL     1       6.780   6.578  16.850  0.00  0.00    +0.000 C 
ATOM     22  O   UNL     1       7.761   5.949  17.257  0.00  0.00    +0.000 OA
ATOM     23  N   UNL     1       6.615   7.944  17.046  0.00  0.00    +0.000 N 
ATOM     24  H   UNL     1       5.662   8.294  17.042  0.00  0.00    +0.000 HD
BRANCH  23  25
ATOM     25  C   UNL     1       7.570   8.740  17.708  0.00  0.00    +0.000 A 
ATOM     26  C   UNL     1       8.395   8.242  18.713  0.00  0.00    +0.000 A 
ATOM     27  C   UNL     1       9.322   9.084  19.333  0.00  0.00    +0.000 A 
ATOM     28  C   UNL     1       9.400  10.439  18.988  0.00  0.00    +0.000 A 
ATOM     29 CL   UNL     1      10.553  11.389  19.848  0.00  0.00    +0.000 Cl
ATOM     30  C   UNL     1       8.568  10.959  17.992  0.00  0.00    +0.000 A 
ATOM     31  C   UNL     1       7.685  10.077  17.327  0.00  0.00    +0.000 A 
BRANCH  30  32
ATOM     32  C   UNL     1       8.497  12.411  17.600  0.00  0.00    +0.000 C 
ATOM     33  F   UNL     1       8.217  13.300  18.585  0.00  0.00    +0.000 F 
ATOM     34  F   UNL     1       9.667  12.838  17.042  0.00  0.00    +0.000 F 
ATOM     35  F   UNL     1       7.548  12.618  16.641  0.00  0.00    +0.000 F 
ENDBRANCH  30  32
ENDBRANCH  23  25
ENDBRANCH   1  21
TORSDOF 5
ENDMDL
MODEL 3
REMARK VINA RESULT:      -8.7      1.768      2.204
REMARK  Name = 
REMARK  7 active torsions:
REMARK  status: ('A' for Active; 'I' for Inactive)
REMARK    1  A    between atoms: C_1  and  N_2
REMARK    2  A    between atoms: N_9  and  C_10
REMARK    3  A    between atoms: C_10  and  C_11
REMARK    4  A    between atoms: C_10  and  C_25
REMARK    5  A    between atoms: N_13  and  C_14
REMARK    6  A    between atoms: C_19  and  C_20
REMARK    7  A    between atoms: N_31  and  C_32
REMARK                            x       y       z     vdW  Elec       q    Type
REMARK                         _______ _______ _______ _____ _____    ______ ____
ROOT
ATOM      1  C   UNL     1       0.535  11.071  18.679  0.00  0.00    +0.000 C 
ENDROOT
BRANCH   1  10
ATOM      2  C   UNL     1       4.741  14.713  17.992  0.00  0.00    +0.000 C 
ATOM      3  N   UNL     1       3.698  14.353  18.932  0.00  0.00    +0.000 N 
ATOM      4  C   UNL     1       2.751  13.403  18.537  0.00  0.00    +0.000 A 
ATOM      5  O   UNL     1       2.687  12.912  17.416  0.00  0.00    +0.000 OA
ATOM      6  C   UNL     1       1.852  13.053  19.584  0.00  0.00    +0.000 A 
ATOM      7  C   UNL     1       1.850  13.675  20.798  0.00  0.00    +0.000 A 
ATOM      8  N   UNL     1       0.898  13.174  21.628  0.00  0.00    +0.000 NA
ATOM      9  C   UNL     1       0.336  12.206  20.936  0.00  0.00    +0.000 A 
ATOM     10  N   UNL     1       0.877  12.093  19.677  0.00  0.00    +0.000 N 
ATOM     11  N   UNL     1       2.742  14.679  21.099  0.00  0.00    +0.000 N 
ATOM     12  C   UNL     1       2.737  15.338  22.391  0.00  0.00    +0.000 C 
ATOM     13  C   UNL     1       3.713  15.035  20.166  0.00  0.00    +0.000 A 
ATOM     14  O   UNL     1       4.555  15.905  20.410  0.00  0.00    +0.000 OA
ENDBRANCH   1  10
BRANCH   1  15
ATOM     15  C   UNL     1      -0.960  10.995  18.378  0.00  0.00    +0.000 A 
ATOM     16  C   UNL     1      -1.442   9.931  17.591  0.00  0.00    +0.000 A 
ATOM     17  C   UNL     1      -2.808   9.787  17.335  0.00  0.00    +0.000 A 
ATOM     18  C   UNL     1      -3.716  10.700  17.862  0.00  0.00    +0.000 A 
ATOM     19  C   UNL     1      -3.259  11.761  18.639  0.00  0.00    +0.000 A 
ATOM     20  C   UNL     1      -1.894  11.908  18.898  0.00  0.00    +0.000 A 
ENDBRANCH   1  15
BRANCH   1  21
ATOM     21  C   UNL     1       1.196   9.730  19.049  0.00  0.00    +0.000 C 
ATOM     22  O   UNL     1       0.947   9.196  20.134  0.00  0.00    +0.000 OA
ATOM     23  N   UNL     1       2.019   9.156  18.087  0.00  0.00    +0.000 N 
ATOM     24  H   UNL     1       2.472   9.789  17.437  0.00  0.00    +0.000 HD
BRANCH  23  25
ATOM     25  C   UNL     1       2.625   7.895  18.257  0.00  0.00    +0.000 A 
ATOM     26  C   UNL     1       3.732   7.490  17.514  0.00  0.00    +0.000 A 
ATOM     27  C   UNL     1       4.287   6.225  17.729  0.00  0.00    +0.000 A 
ATOM     28  C   UNL     1       3.715   5.339  18.650  0.00  0.00    +0.000 A 
ATOM     29 CL   UNL     1       4.461   3.792  18.800  0.00  0.00    +0.000 Cl
ATOM     30  C   UNL     1       2.594   5.725  19.391  0.00  0.00    +0.000 A 
ATOM     31  C   UNL     1       2.088   7.034  19.212  0.00  0.00    +0.000 A 
BRANCH  30  32
ATOM     32  C   UNL     1       1.839   4.832  20.340  0.00  0.00    +0.000 C 
ATOM     33  F   UNL     1       1.367   3.664  19.840  0.00  0.00    +0.000 F 
ATOM     34  F   UNL     1       2.602   4.488  21.419  0.00  0.00    +0.000 F 
ATOM     35  F   UNL     1       0.751   5.471  20.862  0.00  0.00    +0.000 F 
ENDBRANCH  30  32
ENDBRANCH  23  25
ENDBRANCH   1  21
TORSDOF 5
ENDMDL
MODEL 4
REMARK VINA RESULT:      -8.7      2.867      5.418
REMARK  Name = 
REMARK  7 active torsions:
REMARK  status: ('A' for Active; 'I' for Inactive)
REMARK    1  A    between atoms: C_1  and  N_2
REMARK    2  A    between atoms: N_9  and  C_10
REMARK    3  A    between atoms: C_10  and  C_11
REMARK    4  A    between atoms: C_10  and  C_25
REMARK    5  A    between atoms: N_13  and  C_14
REMARK    6  A    between atoms: C_19  and  C_20
REMARK    7  A    between atoms: N_31  and  C_32
REMARK                            x       y       z     vdW  Elec       q    Type
REMARK                         _______ _______ _______ _____ _____    ______ ____
ROOT
ATOM      1  C   UNL     1       0.546  11.119  19.755  0.00  0.00    +0.000 C 
ENDROOT
BRANCH   1  10
ATOM      2  C   UNL     1      -3.253  12.565  23.615  0.00  0.00    +0.000 C 
ATOM      3  N   UNL     1      -3.090  12.433  22.181  0.00  0.00    +0.000 N 
ATOM      4  C   UNL     1      -1.813  12.164  21.682  0.00  0.00    +0.000 A 
ATOM      5  O   UNL     1      -0.797  12.116  22.366  0.00  0.00    +0.000 OA
ATOM      6  C   UNL     1      -1.805  11.945  20.275  0.00  0.00    +0.000 A 
ATOM      7  C   UNL     1      -2.911  12.105  19.494  0.00  0.00    +0.000 A 
ATOM      8  N   UNL     1      -2.655  11.847  18.185  0.00  0.00    +0.000 NA
ATOM      9  C   UNL     1      -1.391  11.484  18.164  0.00  0.00    +0.000 A 
ATOM     10  N   UNL     1      -0.821  11.532  19.414  0.00  0.00    +0.000 N 
ATOM     11  N   UNL     1      -4.126  12.472  20.026  0.00  0.00    +0.000 N 
ATOM     12  C   UNL     1      -5.302  12.641  19.192  0.00  0.00    +0.000 C 
ATOM     13  C   UNL     1      -4.251  12.630  21.405  0.00  0.00    +0.000 A 
ATOM     14  O   UNL     1      -5.332  12.924  21.926  0.00  0.00    +0.000 OA
ENDBRANCH   1  10
BRANCH   1  15
ATOM     15  C   UNL     1       1.571  12.243  19.614  0.00  0.00    +0.000 A 
ATOM     16  C   UNL     1       2.132  12.497  18.347  0.00  0.00    +0.000 A 
ATOM     17  C   UNL     1       3.031  13.549  18.156  0.00  0.00    +0.000 A 
ATOM     18  C   UNL     1       3.383  14.368  19.224  0.00  0.00    +0.000 A 
ATOM     19  C   UNL     1       2.843  14.131  20.485  0.00  0.00    +0.000 A 
ATOM     20  C   UNL     1       1.943  13.080  20.681  0.00  0.00    +0.000 A 
ENDBRANCH   1  15
BRANCH   1  21
ATOM     21  C   UNL     1       0.903   9.814  19.020  0.00  0.00    +0.000 C 
ATOM     22  O   UNL     1       0.453   9.597  17.892  0.00  0.00    +0.000 OA
ATOM     23  N   UNL     1       1.782   8.954  19.670  0.00  0.00    +0.000 N 
ATOM     24  H   UNL     1       1.790   8.991  20.684  0.00  0.00    +0.000 HD
BRANCH  23  25
ATOM     25  C   UNL     1       2.257   7.764  19.084  0.00  0.00    +0.000 A 
ATOM     26  C   UNL     1       3.098   7.759  17.973  0.00  0.00    +0.000 A 
ATOM     27  C   UNL     1       3.533   6.544  17.437  0.00  0.00    +0.000 A 
ATOM     28  C   UNL     1       3.097   5.328  17.975  0.00  0.00    +0.000 A 
ATOM     29 CL   UNL     1       3.668   3.894  17.206  0.00  0.00    +0.000 Cl
ATOM     30  C   UNL     1       2.240   5.315  19.079  0.00  0.00    +0.000 A 
ATOM     31  C   UNL     1       1.865   6.553  19.652  0.00  0.00    +0.000 A 
BRANCH  30  32
ATOM     32  C   UNL     1       1.633   4.078  19.686  0.00  0.00    +0.000 C 
ATOM     33  F   UNL     1       2.490   3.169  20.214  0.00  0.00    +0.000 F 
ATOM     34  F   UNL     1       0.761   4.387  20.689  0.00  0.00    +0.000 F 
ATOM     35  F   UNL     1       0.892   3.389  18.768  0.00  0.00    +0.000 F 
ENDBRANCH  30  32
ENDBRANCH  23  25
ENDBRANCH   1  21
TORSDOF 5
ENDMDL
MODEL 5
REMARK VINA RESULT:      -8.7      1.741      2.354
REMARK  Name = 
REMARK  7 active torsions:
REMARK  status: ('A' for Active; 'I' for Inactive)
REMARK    1  A    between atoms: C_1  and  N_2
REMARK    2  A    between atoms: N_9  and  C_10
REMARK    3  A    between atoms: C_10  and  C_11
REMARK    4  A    between atoms: C_10  and  C_25
REMARK    5  A    between atoms: N_13  and  C_14
REMARK    6  A    between atoms: C_19  and  C_20
REMARK    7  A    between atoms: N_31  and  C_32
REMARK                            x       y       z     vdW  Elec       q    Type
REMARK                         _______ _______ _______ _____ _____    ______ ____
ROOT
ATOM      1  C   UNL     1       0.532  10.984  18.701  0.00  0.00    +0.000 C 
ENDROOT
BRANCH   1  10
ATOM      2  C   UNL     1       4.685  14.686  18.018  0.00  0.00    +0.000 C 
ATOM      3  N   UNL     1       3.635  14.322  18.948  0.00  0.00    +0.000 N 
ATOM      4  C   UNL     1       2.710  13.351  18.555  0.00  0.00    +0.000 A 
ATOM      5  O   UNL     1       2.670  12.842  17.440  0.00  0.00    +0.000 OA
ATOM      6  C   UNL     1       1.801  13.000  19.594  0.00  0.00    +0.000 A 
ATOM      7  C   UNL     1       1.772  13.640  20.799  0.00  0.00    +0.000 A 
ATOM      8  N   UNL     1       0.817  13.135  21.622  0.00  0.00    +0.000 NA
ATOM      9  C   UNL     1       0.282  12.148  20.937  0.00  0.00    +0.000 A 
ATOM     10  N   UNL     1       0.842  12.025  19.688  0.00  0.00    +0.000 N 
ATOM     11  N   UNL     1       2.643  14.663  21.097  0.00  0.00    +0.000 N 
ATOM     12  C   UNL     1       2.608  15.342  22.379  0.00  0.00    +0.000 C 
ATOM     13  C   UNL     1       3.621  15.022  20.173  0.00  0.00    +0.000 A 
ATOM     14  O   UNL     1       4.445  15.910  20.415  0.00  0.00    +0.000 OA
ENDBRANCH   1  10
BRANCH   1  15
ATOM     15  C   UNL     1      -0.962  10.850  18.411  0.00  0.00    +0.000 A 
ATOM     16  C   UNL     1      -1.842  11.827  18.916  0.00  0.00    +0.000 A 
ATOM     17  C   UNL     1      -3.209  11.780  18.631  0.00  0.00    +0.000 A 
ATOM     18  C   UNL     1      -3.721  10.759  17.835  0.00  0.00    +0.000 A 
ATOM     19  C   UNL     1      -2.868   9.782  17.331  0.00  0.00    +0.000 A 
ATOM     20  C   UNL     1      -1.500   9.826  17.612  0.00  0.00    +0.000 A 
ENDBRANCH   1  15
BRANCH   1  21
ATOM     21  C   UNL     1       1.244   9.671  19.077  0.00  0.00    +0.000 C 
ATOM     22  O   UNL     1       1.098   9.189  20.203  0.00  0.00    +0.000 OA
ATOM     23  N   UNL     1       1.991   9.060  18.076  0.00  0.00    +0.000 N 
ATOM     24  H   UNL     1       2.376   9.666  17.359  0.00  0.00    +0.000 HD
BRANCH  23  25
ATOM     25  C   UNL     1       2.630   7.817  18.254  0.00  0.00    +0.000 A 
ATOM     26  C   UNL     1       3.766   7.449  17.537  0.00  0.00    +0.000 A 
ATOM     27  C   UNL     1       4.353   6.200  17.758  0.00  0.00    +0.000 A 
ATOM     28  C   UNL     1       3.786   5.292  18.660  0.00  0.00    +0.000 A 
ATOM     29 CL   UNL     1       4.574   3.768  18.821  0.00  0.00    +0.000 Cl
ATOM     30  C   UNL     1       2.637   5.640  19.377  0.00  0.00    +0.000 A 
ATOM     31  C   UNL     1       2.096   6.934  19.192  0.00  0.00    +0.000 A 
BRANCH  30  32
ATOM     32  C   UNL     1       1.887   4.720  20.303  0.00  0.00    +0.000 C 
ATOM     33  F   UNL     1       2.565   4.239  21.374  0.00  0.00    +0.000 F 
ATOM     34  F   UNL     1       0.773   5.321  20.814  0.00  0.00    +0.000 F 
ATOM     35  F   UNL     1       1.425   3.619  19.640  0.00  0.00    +0.000 F 
ENDBRANCH  30  32
ENDBRANCH  23  25
ENDBRANCH   1  21
TORSDOF 5
ENDMDL
MODEL 6
REMARK VINA RESULT:      -8.6      0.146      1.056
REMARK  Name = 
REMARK  7 active torsions:
REMARK  status: ('A' for Active; 'I' for Inactive)
REMARK    1  A    between atoms: C_1  and  N_2
REMARK    2  A    between atoms: N_9  and  C_10
REMARK    3  A    between atoms: C_10  and  C_11
REMARK    4  A    between atoms: C_10  and  C_25
REMARK    5  A    between atoms: N_13  and  C_14
REMARK    6  A    between atoms: C_19  and  C_20
REMARK    7  A    between atoms: N_31  and  C_32
REMARK                            x       y       z     vdW  Elec       q    Type
REMARK                         _______ _______ _______ _____ _____    ______ ____
ROOT
ATOM      1  C   UNL     1       0.376  11.104  18.816  0.00  0.00    +0.000 C 
ENDROOT
BRANCH   1  10
ATOM      2  C   UNL     1       4.636  14.672  18.081  0.00  0.00    +0.000 C 
ATOM      3  N   UNL     1       3.576  14.353  19.016  0.00  0.00    +0.000 N 
ATOM      4  C   UNL     1       2.623  13.403  18.637  0.00  0.00    +0.000 A 
ATOM      5  O   UNL     1       2.568  12.880  17.529  0.00  0.00    +0.000 OA
ATOM      6  C   UNL     1       1.704  13.095  19.680  0.00  0.00    +0.000 A 
ATOM      7  C   UNL     1       1.693  13.753  20.875  0.00  0.00    +0.000 A 
ATOM      8  N   UNL     1       0.723  13.289  21.705  0.00  0.00    +0.000 NA
ATOM      9  C   UNL     1       0.159  12.308  21.034  0.00  0.00    +0.000 A 
ATOM     10  N   UNL     1       0.716  12.150  19.788  0.00  0.00    +0.000 N 
ATOM     11  N   UNL     1       2.593  14.755  21.159  0.00  0.00    +0.000 N 
ATOM     12  C   UNL     1       2.579  15.453  22.431  0.00  0.00    +0.000 C 
ATOM     13  C   UNL     1       3.582  15.071  20.230  0.00  0.00    +0.000 A 
ATOM     14  O   UNL     1       4.431  15.938  20.459  0.00  0.00    +0.000 OA
ENDBRANCH   1  10
BRANCH   1  15
ATOM     15  C   UNL     1      -1.123  11.002  18.536  0.00  0.00    +0.000 A 
ATOM     16  C   UNL     1      -1.980  11.990  19.058  0.00  0.00    +0.000 A 
ATOM     17  C   UNL     1      -3.350  11.972  18.783  0.00  0.00    +0.000 A 
ATOM     18  C   UNL     1      -3.887  10.970  17.980  0.00  0.00    +0.000 A 
ATOM     19  C   UNL     1      -3.056   9.982  17.459  0.00  0.00    +0.000 A 
ATOM     20  C   UNL     1      -1.686   9.997  17.730  0.00  0.00    +0.000 A 
ENDBRANCH   1  15
BRANCH   1  21
ATOM     21  C   UNL     1       1.059   9.779  19.205  0.00  0.00    +0.000 C 
ATOM     22  O   UNL     1       0.830   9.265  20.304  0.00  0.00    +0.000 OA
ATOM     23  N   UNL     1       1.878   9.196  18.245  0.00  0.00    +0.000 N 
ATOM     24  H   UNL     1       2.315   9.822  17.577  0.00  0.00    +0.000 HD
BRANCH  23  25
ATOM     25  C   UNL     1       2.503   7.948  18.433  0.00  0.00    +0.000 A 
ATOM     26  C   UNL     1       2.294   7.168  19.569  0.00  0.00    +0.000 A 
ATOM     27  C   UNL     1       2.946   5.939  19.697  0.00  0.00    +0.000 A 
ATOM     28  C   UNL     1       3.845   5.500  18.718  0.00  0.00    +0.000 A 
ATOM     29 CL   UNL     1       4.620   3.986  19.003  0.00  0.00    +0.000 Cl
ATOM     30  C   UNL     1       4.078   6.278  17.580  0.00  0.00    +0.000 A 
ATOM     31  C   UNL     1       3.357   7.486  17.433  0.00  0.00    +0.000 A 
BRANCH  30  32
ATOM     32  C   UNL     1       5.085   5.957  16.508  0.00  0.00    +0.000 C 
ATOM     33  F   UNL     1       6.386   5.897  16.885  0.00  0.00    +0.000 F 
ATOM     34  F   UNL     1       4.820   4.757  15.913  0.00  0.00    +0.000 F 
ATOM     35  F   UNL     1       5.041   6.874  15.496  0.00  0.00    +0.000 F 
ENDBRANCH  30  32
ENDBRANCH  23  25
ENDBRANCH   1  21
TORSDOF 5
ENDMDL
MODEL 7
REMARK VINA RESULT:      -8.6      2.866      5.486
REMARK  Name = 
REMARK  7 active torsions:
REMARK  status: ('A' for Active; 'I' for Inactive)
REMARK    1  A    between atoms: C_1  and  N_2
REMARK    2  A    between atoms: N_9  and  C_10
REMARK    3  A    between atoms: C_10  and  C_11
REMARK    4  A    between atoms: C_10  and  C_25
REMARK    5  A    between atoms: N_13  and  C_14
REMARK    6  A    between atoms: C_19  and  C_20
REMARK    7  A    between atoms: N_31  and  C_32
REMARK                            x       y       z     vdW  Elec       q    Type
REMARK                         _______ _______ _______ _____ _____    ______ ____
ROOT
ATOM      1  C   UNL     1       0.529  11.191  19.710  0.00  0.00    +0.000 C 
ENDROOT
BRANCH   1  10
ATOM      2  C   UNL     1      -3.244  12.537  23.631  0.00  0.00    +0.000 C 
ATOM      3  N   UNL     1      -3.097  12.424  22.193  0.00  0.00    +0.000 N 
ATOM      4  C   UNL     1      -1.822  12.179  21.676  0.00  0.00    +0.000 A 
ATOM      5  O   UNL     1      -0.797  12.138  22.348  0.00  0.00    +0.000 OA
ATOM      6  C   UNL     1      -1.827  11.976  20.267  0.00  0.00    +0.000 A 
ATOM      7  C   UNL     1      -2.945  12.129  19.501  0.00  0.00    +0.000 A 
ATOM      8  N   UNL     1      -2.701  11.890  18.186  0.00  0.00    +0.000 NA
ATOM      9  C   UNL     1      -1.432  11.545  18.146  0.00  0.00    +0.000 A 
ATOM     10  N   UNL     1      -0.848  11.587  19.390  0.00  0.00    +0.000 N 
ATOM     11  N   UNL     1      -4.159  12.472  20.052  0.00  0.00    +0.000 N 
ATOM     12  C   UNL     1      -5.347  12.633  19.234  0.00  0.00    +0.000 C 
ATOM     13  C   UNL     1      -4.270  12.613  21.433  0.00  0.00    +0.000 A 
ATOM     14  O   UNL     1      -5.348  12.884  21.971  0.00  0.00    +0.000 OA
ENDBRANCH   1  10
BRANCH   1  15
ATOM     15  C   UNL     1       1.542  12.319  19.526  0.00  0.00    +0.000 A 
ATOM     16  C   UNL     1       1.951  13.056  20.655  0.00  0.00    +0.000 A 
ATOM     17  C   UNL     1       2.917  14.060  20.547  0.00  0.00    +0.000 A 
ATOM     18  C   UNL     1       3.493  14.344  19.312  0.00  0.00    +0.000 A 
ATOM     19  C   UNL     1       3.099  13.629  18.184  0.00  0.00    +0.000 A 
ATOM     20  C   UNL     1       2.135  12.623  18.288  0.00  0.00    +0.000 A 
ENDBRANCH   1  15
BRANCH   1  21
ATOM     21  C   UNL     1       0.880   9.874  18.993  0.00  0.00    +0.000 C 
ATOM     22  O   UNL     1       0.406   9.630  17.880  0.00  0.00    +0.000 OA
ATOM     23  N   UNL     1       1.781   9.035  19.639  0.00  0.00    +0.000 N 
ATOM     24  H   UNL     1       1.812   9.092  20.652  0.00  0.00    +0.000 HD
BRANCH  23  25
ATOM     25  C   UNL     1       2.252   7.837  19.067  0.00  0.00    +0.000 A 
ATOM     26  C   UNL     1       3.087   7.817  17.952  0.00  0.00    +0.000 A 
ATOM     27  C   UNL     1       3.519   6.595  17.429  0.00  0.00    +0.000 A 
ATOM     28  C   UNL     1       3.086   5.386  17.985  0.00  0.00    +0.000 A 
ATOM     29 CL   UNL     1       3.653   3.942  17.232  0.00  0.00    +0.000 Cl
ATOM     30  C   UNL     1       2.235   5.388  19.094  0.00  0.00    +0.000 A 
ATOM     31  C   UNL     1       1.863   6.633  19.653  0.00  0.00    +0.000 A 
BRANCH  30  32
ATOM     32  C   UNL     1       1.632   4.159  19.720  0.00  0.00    +0.000 C 
ATOM     33  F   UNL     1       0.757   4.354  20.738  0.00  0.00    +0.000 F 
ATOM     34  F   UNL     1       0.962   3.405  18.801  0.00  0.00    +0.000 F 
ATOM     35  F   UNL     1       2.597   3.334  20.223  0.00  0.00    +0.000 F 
ENDBRANCH  30  32
ENDBRANCH  23  25
ENDBRANCH   1  21
TORSDOF 5
ENDMDL
MODEL 8
REMARK VINA RESULT:      -8.5      2.375      5.129
REMARK  Name = 
REMARK  7 active torsions:
REMARK  status: ('A' for Active; 'I' for Inactive)
REMARK    1  A    between atoms: C_1  and  N_2
REMARK    2  A    between atoms: N_9  and  C_10
REMARK    3  A    between atoms: C_10  and  C_11
REMARK    4  A    between atoms: C_10  and  C_25
REMARK    5  A    between atoms: N_13  and  C_14
REMARK    6  A    between atoms: C_19  and  C_20
REMARK    7  A    between atoms: N_31  and  C_32
REMARK                            x       y       z     vdW  Elec       q    Type
REMARK                         _______ _______ _______ _____ _____    ______ ____
ROOT
ATOM      1  C   UNL     1       0.420  10.807  19.986  0.00  0.00    +0.000 C 
ENDROOT
BRANCH   1  10
ATOM      2  C   UNL     1      -4.439  13.403  21.022  0.00  0.00    +0.000 C 
ATOM      3  N   UNL     1      -3.768  12.622  20.002  0.00  0.00    +0.000 N 
ATOM      4  C   UNL     1      -2.415  12.321  20.182  0.00  0.00    +0.000 A 
ATOM      5  O   UNL     1      -1.728  12.744  21.105  0.00  0.00    +0.000 OA
ATOM      6  C   UNL     1      -1.902  11.457  19.172  0.00  0.00    +0.000 A 
ATOM      7  C   UNL     1      -2.632  11.073  18.086  0.00  0.00    +0.000 A 
ATOM      8  N   UNL     1      -1.927  10.257  17.260  0.00  0.00    +0.000 NA
ATOM      9  C   UNL     1      -0.769  10.101  17.863  0.00  0.00    +0.000 A 
ATOM     10  N   UNL     1      -0.697  10.818  19.033  0.00  0.00    +0.000 N 
ATOM     11  N   UNL     1      -3.933  11.484  17.905  0.00  0.00    +0.000 N 
ATOM     12  C   UNL     1      -4.707  11.073  16.748  0.00  0.00    +0.000 C 
ATOM     13  C   UNL     1      -4.547  12.265  18.882  0.00  0.00    +0.000 A 
ATOM     14  O   UNL     1      -5.724  12.625  18.776  0.00  0.00    +0.000 OA
ENDBRANCH   1  10
BRANCH   1  15
ATOM     15  C   UNL     1       1.409  11.953  19.772  0.00  0.00    +0.000 A 
ATOM     16  C   UNL     1       1.880  12.209  18.470  0.00  0.00    +0.000 A 
ATOM     17  C   UNL     1       2.741  13.280  18.214  0.00  0.00    +0.000 A 
ATOM     18  C   UNL     1       3.144  14.114  19.253  0.00  0.00    +0.000 A 
ATOM     19  C   UNL     1       2.693  13.873  20.548  0.00  0.00    +0.000 A 
ATOM     20  C   UNL     1       1.830  12.805  20.807  0.00  0.00    +0.000 A 
ENDBRANCH   1  15
BRANCH   1  21
ATOM     21  C   UNL     1       1.050   9.403  20.045  0.00  0.00    +0.000 C 
ATOM     22  O   UNL     1       0.827   8.665  21.008  0.00  0.00    +0.000 OA
ATOM     23  N   UNL     1       1.815   9.018  18.949  0.00  0.00    +0.000 N 
ATOM     24  H   UNL     1       2.263   9.760  18.422  0.00  0.00    +0.000 HD
BRANCH  23  25
ATOM     25  C   UNL     1       2.386   7.736  18.832  0.00  0.00    +0.000 A 
ATOM     26  C   UNL     1       2.136   6.717  19.748  0.00  0.00    +0.000 A 
ATOM     27  C   UNL     1       2.735   5.466  19.576  0.00  0.00    +0.000 A 
ATOM     28  C   UNL     1       3.621   5.235  18.517  0.00  0.00    +0.000 A 
ATOM     29 CL   UNL     1       4.329   3.666  18.430  0.00  0.00    +0.000 Cl
ATOM     30  C   UNL     1       3.895   6.252  17.598  0.00  0.00    +0.000 A 
ATOM     31  C   UNL     1       3.227   7.490  17.747  0.00  0.00    +0.000 A 
BRANCH  30  32
ATOM     32  C   UNL     1       4.895   6.154  16.476  0.00  0.00    +0.000 C 
ATOM     33  F   UNL     1       4.855   5.034  15.714  0.00  0.00    +0.000 F 
ATOM     34  F   UNL     1       4.774   7.196  15.603  0.00  0.00    +0.000 F 
ATOM     35  F   UNL     1       6.175   6.230  16.947  0.00  0.00    +0.000 F 
ENDBRANCH  30  32
ENDBRANCH  23  25
ENDBRANCH   1  21
TORSDOF 5
ENDMDL
MODEL 9
REMARK VINA RESULT:      -8.5      2.761      5.538
REMARK  Name = 
REMARK  7 active torsions:
REMARK  status: ('A' for Active; 'I' for Inactive)
REMARK    1  A    between atoms: C_1  and  N_2
REMARK    2  A    between atoms: N_9  and  C_10
REMARK    3  A    between atoms: C_10  and  C_11
REMARK    4  A    between atoms: C_10  and  C_25
REMARK    5  A    between atoms: N_13  and  C_14
REMARK    6  A    between atoms: C_19  and  C_20
REMARK    7  A    between atoms: N_31  and  C_32
REMARK                            x       y       z     vdW  Elec       q    Type
REMARK                         _______ _______ _______ _____ _____    ______ ____
ROOT
ATOM      1  C   UNL     1       0.129  12.615  20.029  0.00  0.00    +0.000 C 
ENDROOT
BRANCH   1  10
ATOM      2  C   UNL     1      -4.866  12.952  22.551  0.00  0.00    +0.000 C 
ATOM      3  N   UNL     1      -4.267  12.685  21.259  0.00  0.00    +0.000 N 
ATOM      4  C   UNL     1      -2.891  12.887  21.113  0.00  0.00    +0.000 A 
ATOM      5  O   UNL     1      -2.164  13.358  21.980  0.00  0.00    +0.000 OA
ATOM      6  C   UNL     1      -2.406  12.483  19.837  0.00  0.00    +0.000 A 
ATOM      7  C   UNL     1      -3.226  12.061  18.832  0.00  0.00    +0.000 A 
ATOM      8  N   UNL     1      -2.534  11.737  17.709  0.00  0.00    +0.000 NA
ATOM      9  C   UNL     1      -1.274  11.920  18.037  0.00  0.00    +0.000 A 
ATOM     10  N   UNL     1      -1.138  12.381  19.324  0.00  0.00    +0.000 N 
ATOM     11  N   UNL     1      -4.590  11.978  18.997  0.00  0.00    +0.000 N 
ATOM     12  C   UNL     1      -5.460  11.529  17.926  0.00  0.00    +0.000 C 
ATOM     13  C   UNL     1      -5.150  12.276  20.238  0.00  0.00    +0.000 A 
ATOM     14  O   UNL     1      -6.365  12.180  20.439  0.00  0.00    +0.000 OA
ENDBRANCH   1  10
BRANCH   1  15
ATOM     15  C   UNL     1       1.048  13.600  19.310  0.00  0.00    +0.000 A 
ATOM     16  C   UNL     1       0.692  14.962  19.277  0.00  0.00    +0.000 A 
ATOM     17  C   UNL     1       1.527  15.910  18.680  0.00  0.00    +0.000 A 
ATOM     18  C   UNL     1       2.733  15.516  18.109  0.00  0.00    +0.000 A 
ATOM     19  C   UNL     1       3.101  14.173  18.128  0.00  0.00    +0.000 A 
ATOM     20  C   UNL     1       2.269  13.222  18.725  0.00  0.00    +0.000 A 
ENDBRANCH   1  15
BRANCH   1  21
ATOM     21  C   UNL     1       0.779  11.271  20.407  0.00  0.00    +0.000 C 
ATOM     22  O   UNL     1       1.287  11.121  21.521  0.00  0.00    +0.000 OA
ATOM     23  N   UNL     1       0.706  10.257  19.459  0.00  0.00    +0.000 N 
ATOM     24  H   UNL     1       0.647  10.543  18.487  0.00  0.00    +0.000 HD
BRANCH  23  25
ATOM     25  C   UNL     1       1.187   8.954  19.698  0.00  0.00    +0.000 A 
ATOM     26  C   UNL     1       0.882   8.243  20.856  0.00  0.00    +0.000 A 
ATOM     27  C   UNL     1       1.393   6.954  21.035  0.00  0.00    +0.000 A 
ATOM     28  C   UNL     1       2.247   6.385  20.083  0.00  0.00    +0.000 A 
ATOM     29 CL   UNL     1       2.846   4.806  20.430  0.00  0.00    +0.000 Cl
ATOM     30  C   UNL     1       2.575   7.092  18.922  0.00  0.00    +0.000 A 
ATOM     31  C   UNL     1       1.995   8.366  18.725  0.00  0.00    +0.000 A 
BRANCH  30  32
ATOM     32  C   UNL     1       3.551   6.623  17.875  0.00  0.00    +0.000 C 
ATOM     33  F   UNL     1       3.788   7.463  16.837  0.00  0.00    +0.000 F 
ATOM     34  F   UNL     1       4.775   6.353  18.416  0.00  0.00    +0.000 F 
ATOM     35  F   UNL     1       3.144   5.449  17.309  0.00  0.00    +0.000 F 
ENDBRANCH  30  32
ENDBRANCH  23  25
ENDBRANCH   1  21
TORSDOF 5
ENDMDL
