MODEL 1
REMARK VINA RESULT:      -7.6      0.000      0.000
REMARK  Name = 
REMARK  5 active torsions:
REMARK  status: ('A' for Active; 'I' for Inactive)
REMARK    1  A    between atoms: C_1  and  N_2
REMARK    2  A    between atoms: N_2  and  C_3
REMARK    3  A    between atoms: C_3  and  C_4
REMARK    4  A    between atoms: C_4  and  C_5
REMARK    5  A    between atoms: C_11  and  C_13
REMARK                            x       y       z     vdW  Elec       q    Type
REMARK                         _______ _______ _______ _____ _____    ______ ____
ROOT
ATOM      1  C   UNL     1       7.736   6.389  17.374  0.00  0.00    +0.000 C 
ATOM      2  N   UNL     1       6.416   5.837  17.631  0.00  0.00    +0.000 N 
ATOM      3  C   UNL     1       6.175   5.438  18.961  0.00  0.00    +0.000 C 
ATOM      4  O   UNL     1       7.045   5.580  19.825  0.00  0.00    +0.000 OA
ENDROOT
BRANCH   3   5
ATOM      5  C   UNL     1       4.866   4.860  19.330  0.00  0.00    +0.000 A 
ATOM      6  C   UNL     1       4.551   3.512  19.253  0.00  0.00    +0.000 A 
ATOM      7  N   UNL     1       3.271   3.411  19.696  0.00  0.00    +0.000 N 
ATOM      8  C   UNL     1       2.810   4.667  19.990  0.00  0.00    +0.000 A 
ATOM      9  N   UNL     1       3.759   5.556  19.795  0.00  0.00    +0.000 NA
ATOM     10  C   UNL     1       1.417   4.894  20.479  0.00  0.00    +0.000 C 
ATOM     11  N   UNL     1       0.520   3.762  20.171  0.00  0.00    +0.000 NA
ATOM     12  C   UNL     1       1.156   2.494  20.562  0.00  0.00    +0.000 C 
ATOM     13  C   UNL     1       2.457   2.217  19.794  0.00  0.00    +0.000 C 
ATOM     14  H   UNL     1       0.358   3.764  19.162  0.00  0.00    +0.000 HD
ENDBRANCH   3   5
BRANCH   2  15
ATOM     15  C   UNL     1       5.404   5.739  16.562  0.00  0.00    +0.000 C 
BRANCH  15  16
ATOM     16  C   UNL     1       5.268   4.399  15.833  0.00  0.00    +0.000 C 
BRANCH  16  17
ATOM     17  C   UNL     1       5.998   4.351  14.515  0.00  0.00    +0.000 A 
ATOM     18  C   UNL     1       5.547   3.558  13.463  0.00  0.00    +0.000 A 
ATOM     19  C   UNL     1       6.219   3.609  12.244  0.00  0.00    +0.000 A 
ATOM     20  C   UNL     1       7.313   4.454  12.104  0.00  0.00    +0.000 A 
ATOM     21  C   UNL     1       7.696   5.209  13.195  0.00  0.00    +0.000 A 
ATOM     22  N   UNL     1       7.068   5.177  14.389  0.00  0.00    +0.000 NA
ENDBRANCH  16  17
ENDBRANCH  15  16
ENDBRANCH   2  15
TORSDOF 4
ENDMDL
MODEL 2
REMARK VINA RESULT:      -7.6      1.045      1.542
REMARK  Name = 
REMARK  5 active torsions:
REMARK  status: ('A' for Active; 'I' for Inactive)
REMARK    1  A    between atoms: C_1  and  N_2
REMARK    2  A    between atoms: N_2  and  C_3
REMARK    3  A    between atoms: C_3  and  C_4
REMARK    4  A    between atoms: C_4  and  C_5
REMARK    5  A    between atoms: C_11  and  C_13
REMARK                            x       y       z     vdW  Elec       q    Type
REMARK                         _______ _______ _______ _____ _____    ______ ____
ROOT
ATOM      1  C   UNL     1       7.844   7.031  17.910  0.00  0.00    +0.000 C 
ATOM      2  N   UNL     1       6.607   6.273  17.811  0.00  0.00    +0.000 N 
ATOM      3  C   UNL     1       6.260   5.528  18.956  0.00  0.00    +0.000 C 
ATOM      4  O   UNL     1       6.975   5.556  19.962  0.00  0.00    +0.000 OA
ENDROOT
BRANCH   3   5
ATOM      5  C   UNL     1       5.025   4.718  18.960  0.00  0.00    +0.000 A 
ATOM      6  C   UNL     1       3.788   5.171  19.395  0.00  0.00    +0.000 A 
ATOM      7  N   UNL     1       2.935   4.129  19.216  0.00  0.00    +0.000 N 
ATOM      8  C   UNL     1       3.643   3.063  18.730  0.00  0.00    +0.000 A 
ATOM      9  N   UNL     1       4.902   3.397  18.549  0.00  0.00    +0.000 NA
ATOM     10  C   UNL     1       2.987   1.750  18.452  0.00  0.00    +0.000 C 
ATOM     11  N   UNL     1       1.700   1.602  19.160  0.00  0.00    +0.000 NA
ATOM     12  C   UNL     1       0.875   2.805  18.962  0.00  0.00    +0.000 C 
ATOM     13  C   UNL     1       1.523   4.074  19.535  0.00  0.00    +0.000 C 
ATOM     14  H   UNL     1       1.907   1.492  20.154  0.00  0.00    +0.000 HD
ENDBRANCH   3   5
BRANCH   2  15
ATOM     15  C   UNL     1       5.773   6.320  16.595  0.00  0.00    +0.000 C 
BRANCH  15  16
ATOM     16  C   UNL     1       5.406   4.989  15.934  0.00  0.00    +0.000 C 
BRANCH  16  17
ATOM     17  C   UNL     1       6.137   4.733  14.640  0.00  0.00    +0.000 A 
ATOM     18  C   UNL     1       5.632   3.862  13.680  0.00  0.00    +0.000 A 
ATOM     19  C   UNL     1       6.312   3.720  12.472  0.00  0.00    +0.000 A 
ATOM     20  C   UNL     1       7.470   4.457  12.252  0.00  0.00    +0.000 A 
ATOM     21  C   UNL     1       7.905   5.300  13.256  0.00  0.00    +0.000 A 
ATOM     22  N   UNL     1       7.270   5.454  14.437  0.00  0.00    +0.000 NA
ENDBRANCH  16  17
ENDBRANCH  15  16
ENDBRANCH   2  15
TORSDOF 4
ENDMDL
MODEL 3
REMARK VINA RESULT:      -7.5      2.337      6.210
REMARK  Name = 
REMARK  5 active torsions:
REMARK  status: ('A' for Active; 'I' for Inactive)
REMARK    1  A    between atoms: C_1  and  N_2
REMARK    2  A    between atoms: N_2  and  C_3
REMARK    3  A    between atoms: C_3  and  C_4
REMARK    4  A    between atoms: C_4  and  C_5
REMARK    5  A    between atoms: C_11  and  C_13
REMARK                            x       y       z     vdW  Elec       q    Type
REMARK                         _______ _______ _______ _____ _____    ______ ____
ROOT
ATOM      1  C   UNL     1       2.446   2.464  21.717  0.00  0.00    +0.000 C 
ATOM      2  N   UNL     1       2.936   3.214  20.571  0.00  0.00    +0.000 N 
ATOM      3  C   UNL     1       4.198   2.819  20.084  0.00  0.00    +0.000 C 
ATOM      4  O   UNL     1       4.807   1.883  20.609  0.00  0.00    +0.000 OA
ENDROOT
BRANCH   3   5
ATOM      5  C   UNL     1       4.791   3.518  18.926  0.00  0.00    +0.000 A 
ATOM      6  C   UNL     1       4.429   3.301  17.604  0.00  0.00    +0.000 A 
ATOM      7  N   UNL     1       5.197   4.149  16.872  0.00  0.00    +0.000 N 
ATOM      8  C   UNL     1       6.031   4.827  17.721  0.00  0.00    +0.000 A 
ATOM      9  N   UNL     1       5.794   4.478  18.966  0.00  0.00    +0.000 NA
ATOM     10  C   UNL     1       7.023   5.821  17.213  0.00  0.00    +0.000 C 
ATOM     11  N   UNL     1       7.311   5.646  15.776  0.00  0.00    +0.000 NA
ATOM     12  C   UNL     1       6.053   5.527  15.020  0.00  0.00    +0.000 C 
ATOM     13  C   UNL     1       5.224   4.302  15.432  0.00  0.00    +0.000 C 
ATOM     14  H   UNL     1       7.852   4.786  15.673  0.00  0.00    +0.000 HD
ENDBRANCH   3   5
BRANCH   2  15
ATOM     15  C   UNL     1       2.136   4.293  19.960  0.00  0.00    +0.000 C 
BRANCH  15  16
ATOM     16  C   UNL     1       2.162   5.667  20.636  0.00  0.00    +0.000 C 
BRANCH  16  17
ATOM     17  C   UNL     1       2.179   6.819  19.663  0.00  0.00    +0.000 A 
ATOM     18  C   UNL     1       1.543   8.022  19.952  0.00  0.00    +0.000 A 
ATOM     19  C   UNL     1       1.652   9.078  19.050  0.00  0.00    +0.000 A 
ATOM     20  C   UNL     1       2.400   8.907  17.890  0.00  0.00    +0.000 A 
ATOM     21  C   UNL     1       3.001   7.681  17.678  0.00  0.00    +0.000 A 
ATOM     22  N   UNL     1       2.907   6.640  18.532  0.00  0.00    +0.000 NA
ENDBRANCH  16  17
ENDBRANCH  15  16
ENDBRANCH   2  15
TORSDOF 4
ENDMDL
MODEL 4
REMARK VINA RESULT:      -7.4      2.788      6.486
REMARK  Name = 
REMARK  5 active torsions:
REMARK  status: ('A' for Active; 'I' for Inactive)
REMARK    1  A    between atoms: C_1  and  N_2
REMARK    2  A    between atoms: N_2  and  C_3
REMARK    3  A    between atoms: C_3  and  C_4
REMARK    4  A    between atoms: C_4  and  C_5
REMARK    5  A    between atoms: C_11  and  C_13
REMARK                            x       y       z     vdW  Elec       q    Type
REMARK                         _______ _______ _______ _____ _____    ______ ____
ROOT
ATOM      1  C   UNL     1       0.980   3.097  20.822  0.00  0.00    +0.000 C 
ATOM      2  N   UNL     1       2.125   3.685  20.146  0.00  0.00    +0.000 N 
ATOM      3  C   UNL     1       2.617   2.958  19.045  0.00  0.00    +0.000 C 
ATOM      4  O   UNL     1       2.075   1.905  18.696  0.00  0.00    +0.000 OA
ENDROOT
BRANCH   3   5
ATOM      5  C   UNL     1       3.782   3.464  18.289  0.00  0.00    +0.000 A 
ATOM      6  C   UNL     1       3.810   3.645  16.914  0.00  0.00    +0.000 A 
ATOM      7  N   UNL     1       5.046   4.135  16.637  0.00  0.00    +0.000 N 
ATOM      8  C   UNL     1       5.760   4.205  17.802  0.00  0.00    +0.000 A 
ATOM      9  N   UNL     1       5.014   3.824  18.816  0.00  0.00    +0.000 NA
ATOM     10  C   UNL     1       7.175   4.683  17.825  0.00  0.00    +0.000 C 
ATOM     11  N   UNL     1       7.815   4.614  16.496  0.00  0.00    +0.000 NA
ATOM     12  C   UNL     1       6.933   5.214  15.481  0.00  0.00    +0.000 C 
ATOM     13  C   UNL     1       5.595   4.474  15.340  0.00  0.00    +0.000 C 
ATOM     14  H   UNL     1       7.962   3.627  16.277  0.00  0.00    +0.000 HD
ENDBRANCH   3   5
BRANCH   2  15
ATOM     15  C   UNL     1       2.697   4.973  20.585  0.00  0.00    +0.000 C 
BRANCH  15  16
ATOM     16  C   UNL     1       1.738   6.152  20.767  0.00  0.00    +0.000 C 
BRANCH  16  17
ATOM     17  C   UNL     1       1.931   7.251  19.754  0.00  0.00    +0.000 A 
ATOM     18  C   UNL     1       2.641   7.038  18.577  0.00  0.00    +0.000 A 
ATOM     19  C   UNL     1       2.725   8.068  17.643  0.00  0.00    +0.000 A 
ATOM     20  C   UNL     1       2.092   9.277  17.904  0.00  0.00    +0.000 A 
ATOM     21  C   UNL     1       1.407   9.409  19.097  0.00  0.00    +0.000 A 
ATOM     22  N   UNL     1       1.313   8.430  20.021  0.00  0.00    +0.000 NA
ENDBRANCH  16  17
ENDBRANCH  15  16
ENDBRANCH   2  15
TORSDOF 4
ENDMDL
MODEL 5
REMARK VINA RESULT:      -7.3      2.439      6.314
REMARK  Name = 
REMARK  5 active torsions:
REMARK  status: ('A' for Active; 'I' for Inactive)
REMARK    1  A    between atoms: C_1  and  N_2
REMARK    2  A    between atoms: N_2  and  C_3
REMARK    3  A    between atoms: C_3  and  C_4
REMARK    4  A    between atoms: C_4  and  C_5
REMARK    5  A    between atoms: C_11  and  C_13
REMARK                            x       y       z     vdW  Elec       q    Type
REMARK                         _______ _______ _______ _____ _____    ______ ____
ROOT
ATOM      1  C   UNL     1       2.269   2.673  21.666  0.00  0.00    +0.000 C 
ATOM      2  N   UNL     1       2.792   3.401  20.521  0.00  0.00    +0.000 N 
ATOM      3  C   UNL     1       4.048   2.968  20.049  0.00  0.00    +0.000 C 
ATOM      4  O   UNL     1       4.625   2.019  20.586  0.00  0.00    +0.000 OA
ENDROOT
BRANCH   3   5
ATOM      5  C   UNL     1       4.673   3.643  18.893  0.00  0.00    +0.000 A 
ATOM      6  C   UNL     1       5.619   4.653  18.988  0.00  0.00    +0.000 A 
ATOM      7  N   UNL     1       5.937   4.975  17.707  0.00  0.00    +0.000 N 
ATOM      8  C   UNL     1       5.172   4.216  16.863  0.00  0.00    +0.000 A 
ATOM      9  N   UNL     1       4.415   3.391  17.552  0.00  0.00    +0.000 NA
ATOM     10  C   UNL     1       5.270   4.357  15.379  0.00  0.00    +0.000 C 
ATOM     11  N   UNL     1       5.878   5.641  14.974  0.00  0.00    +0.000 NA
ATOM     12  C   UNL     1       7.113   5.878  15.741  0.00  0.00    +0.000 C 
ATOM     13  C   UNL     1       6.864   5.991  17.253  0.00  0.00    +0.000 C 
ATOM     14  H   UNL     1       5.204   6.379  15.181  0.00  0.00    +0.000 HD
ENDBRANCH   3   5
BRANCH   2  15
ATOM     15  C   UNL     1       2.029   4.498  19.895  0.00  0.00    +0.000 C 
BRANCH  15  16
ATOM     16  C   UNL     1       2.001   5.847  20.619  0.00  0.00    +0.000 C 
BRANCH  16  17
ATOM     17  C   UNL     1       2.105   7.033  19.694  0.00  0.00    +0.000 A 
ATOM     18  C   UNL     1       2.742   6.938  18.460  0.00  0.00    +0.000 A 
ATOM     19  C   UNL     1       2.745   8.045  17.615  0.00  0.00    +0.000 A 
ATOM     20  C   UNL     1       2.106   9.212  18.019  0.00  0.00    +0.000 A 
ATOM     21  C   UNL     1       1.498   9.224  19.259  0.00  0.00    +0.000 A 
ATOM     22  N   UNL     1       1.483   8.169  20.100  0.00  0.00    +0.000 NA
ENDBRANCH  16  17
ENDBRANCH  15  16
ENDBRANCH   2  15
TORSDOF 4
ENDMDL
MODEL 6
REMARK VINA RESULT:      -7.3      2.756      6.646
REMARK  Name = 
REMARK  5 active torsions:
REMARK  status: ('A' for Active; 'I' for Inactive)
REMARK    1  A    between atoms: C_1  and  N_2
REMARK    2  A    between atoms: N_2  and  C_3
REMARK    3  A    between atoms: C_3  and  C_4
REMARK    4  A    between atoms: C_4  and  C_5
REMARK    5  A    between atoms: C_11  and  C_13
REMARK                            x       y       z     vdW  Elec       q    Type
REMARK                         _______ _______ _______ _____ _____    ______ ____
ROOT
ATOM      1  C   UNL     1       1.728   3.321  21.478  0.00  0.00    +0.000 C 
ATOM      2  N   UNL     1       2.482   3.841  20.350  0.00  0.00    +0.000 N 
ATOM      3  C   UNL     1       3.636   3.110  20.003  0.00  0.00    +0.000 C 
ATOM      4  O   UNL     1       3.943   2.091  20.628  0.00  0.00    +0.000 OA
ENDROOT
BRANCH   3   5
ATOM      5  C   UNL     1       4.478   3.555  18.873  0.00  0.00    +0.000 A 
ATOM      6  C   UNL     1       4.138   3.417  17.536  0.00  0.00    +0.000 A 
ATOM      7  N   UNL     1       5.168   3.964  16.840  0.00  0.00    +0.000 N 
ATOM      8  C   UNL     1       6.123   4.381  17.728  0.00  0.00    +0.000 A 
ATOM      9  N   UNL     1       5.723   4.163  18.962  0.00  0.00    +0.000 NA
ATOM     10  C   UNL     1       7.399   5.007  17.268  0.00  0.00    +0.000 C 
ATOM     11  N   UNL     1       7.697   4.705  15.854  0.00  0.00    +0.000 NA
ATOM     12  C   UNL     1       6.506   4.952  15.024  0.00  0.00    +0.000 C 
ATOM     13  C   UNL     1       5.319   4.054  15.402  0.00  0.00    +0.000 C 
ATOM     14  H   UNL     1       7.951   3.717  15.797  0.00  0.00    +0.000 HD
ENDBRANCH   3   5
BRANCH   2  15
ATOM     15  C   UNL     1       2.034   5.040  19.615  0.00  0.00    +0.000 C 
BRANCH  15  16
ATOM     16  C   UNL     1       2.901   6.298  19.713  0.00  0.00    +0.000 C 
BRANCH  16  17
ATOM     17  C   UNL     1       2.143   7.577  19.459  0.00  0.00    +0.000 A 
ATOM     18  C   UNL     1       1.435   8.214  20.473  0.00  0.00    +0.000 A 
ATOM     19  C   UNL     1       0.813   9.431  20.201  0.00  0.00    +0.000 A 
ATOM     20  C   UNL     1       0.923   9.982  18.930  0.00  0.00    +0.000 A 
ATOM     21  C   UNL     1       1.645   9.286  17.979  0.00  0.00    +0.000 A 
ATOM     22  N   UNL     1       2.253   8.104  18.214  0.00  0.00    +0.000 NA
ENDBRANCH  16  17
ENDBRANCH  15  16
ENDBRANCH   2  15
TORSDOF 4
ENDMDL
MODEL 7
REMARK VINA RESULT:      -7.1      1.179      1.860
REMARK  Name = 
REMARK  5 active torsions:
REMARK  status: ('A' for Active; 'I' for Inactive)
REMARK    1  A    between atoms: C_1  and  N_2
REMARK    2  A    between atoms: N_2  and  C_3
REMARK    3  A    between atoms: C_3  and  C_4
REMARK    4  A    between atoms: C_4  and  C_5
REMARK    5  A    between atoms: C_11  and  C_13
REMARK                            x       y       z     vdW  Elec       q    Type
REMARK                         _______ _______ _______ _____ _____    ______ ____
ROOT
ATOM      1  C   UNL     1       7.752   6.906  17.832  0.00  0.00    +0.000 C 
ATOM      2  N   UNL     1       6.518   6.143  17.740  0.00  0.00    +0.000 N 
ATOM      3  C   UNL     1       6.159   5.429  18.901  0.00  0.00    +0.000 C 
ATOM      4  O   UNL     1       6.861   5.487  19.914  0.00  0.00    +0.000 OA
ENDROOT
BRANCH   3   5
ATOM      5  C   UNL     1       4.924   4.618  18.914  0.00  0.00    +0.000 A 
ATOM      6  C   UNL     1       3.673   5.092  19.279  0.00  0.00    +0.000 A 
ATOM      7  N   UNL     1       2.828   4.039  19.135  0.00  0.00    +0.000 N 
ATOM      8  C   UNL     1       3.553   2.948  18.739  0.00  0.00    +0.000 A 
ATOM      9  N   UNL     1       4.817   3.274  18.580  0.00  0.00    +0.000 NA
ATOM     10  C   UNL     1       2.908   1.619  18.519  0.00  0.00    +0.000 C 
ATOM     11  N   UNL     1       1.598   1.509  19.192  0.00  0.00    +0.000 NA
ATOM     12  C   UNL     1       0.779   2.696  18.894  0.00  0.00    +0.000 C 
ATOM     13  C   UNL     1       1.406   3.999  19.409  0.00  0.00    +0.000 C 
ATOM     14  H   UNL     1       1.772   1.461  20.197  0.00  0.00    +0.000 HD
ENDBRANCH   3   5
BRANCH   2  15
ATOM     15  C   UNL     1       5.698   6.154  16.513  0.00  0.00    +0.000 C 
BRANCH  15  16
ATOM     16  C   UNL     1       5.409   4.810  15.839  0.00  0.00    +0.000 C 
BRANCH  16  17
ATOM     17  C   UNL     1       6.068   4.654  14.492  0.00  0.00    +0.000 A 
ATOM     18  C   UNL     1       7.242   5.332  14.175  0.00  0.00    +0.000 A 
ATOM     19  C   UNL     1       7.847   5.094  12.943  0.00  0.00    +0.000 A 
ATOM     20  C   UNL     1       7.271   4.182  12.066  0.00  0.00    +0.000 A 
ATOM     21  C   UNL     1       6.105   3.551  12.457  0.00  0.00    +0.000 A 
ATOM     22  N   UNL     1       5.495   3.765  13.642  0.00  0.00    +0.000 NA
ENDBRANCH  16  17
ENDBRANCH  15  16
ENDBRANCH   2  15
TORSDOF 4
ENDMDL
MODEL 8
REMARK VINA RESULT:      -7.1      2.711      6.448
REMARK  Name = 
REMARK  5 active torsions:
REMARK  status: ('A' for Active; 'I' for Inactive)
REMARK    1  A    between atoms: C_1  and  N_2
REMARK    2  A    between atoms: N_2  and  C_3
REMARK    3  A    between atoms: C_3  and  C_4
REMARK    4  A    between atoms: C_4  and  C_5
REMARK    5  A    between atoms: C_11  and  C_13
REMARK                            x       y       z     vdW  Elec       q    Type
REMARK                         _______ _______ _______ _____ _____    ______ ____
ROOT
ATOM      1  C   UNL     1       1.270   2.962  21.115  0.00  0.00    +0.000 C 
ATOM      2  N   UNL     1       2.287   3.618  20.309  0.00  0.00    +0.000 N 
ATOM      3  C   UNL     1       2.749   2.881  19.200  0.00  0.00    +0.000 C 
ATOM      4  O   UNL     1       2.284   1.765  18.952  0.00  0.00    +0.000 OA
ENDROOT
BRANCH   3   5
ATOM      5  C   UNL     1       3.786   3.452  18.317  0.00  0.00    +0.000 A 
ATOM      6  C   UNL     1       5.081   3.753  18.714  0.00  0.00    +0.000 A 
ATOM      7  N   UNL     1       5.699   4.236  17.605  0.00  0.00    +0.000 N 
ATOM      8  C   UNL     1       4.794   4.269  16.579  0.00  0.00    +0.000 A 
ATOM      9  N   UNL     1       3.638   3.784  16.977  0.00  0.00    +0.000 NA
ATOM     10  C   UNL     1       5.164   4.778  15.225  0.00  0.00    +0.000 C 
ATOM     11  N   UNL     1       6.375   5.623  15.253  0.00  0.00    +0.000 NA
ATOM     12  C   UNL     1       7.440   4.953  16.018  0.00  0.00    +0.000 C 
ATOM     13  C   UNL     1       7.060   4.717  17.487  0.00  0.00    +0.000 C 
ATOM     14  H   UNL     1       6.128   6.501  15.713  0.00  0.00    +0.000 HD
ENDBRANCH   3   5
BRANCH   2  15
ATOM     15  C   UNL     1       2.767   4.975  20.633  0.00  0.00    +0.000 C 
BRANCH  15  16
ATOM     16  C   UNL     1       1.724   6.090  20.742  0.00  0.00    +0.000 C 
BRANCH  16  17
ATOM     17  C   UNL     1       1.926   7.207  19.749  0.00  0.00    +0.000 A 
ATOM     18  C   UNL     1       2.625   7.006  18.562  0.00  0.00    +0.000 A 
ATOM     19  C   UNL     1       2.719   8.053  17.648  0.00  0.00    +0.000 A 
ATOM     20  C   UNL     1       2.105   9.266  17.938  0.00  0.00    +0.000 A 
ATOM     21  C   UNL     1       1.430   9.384  19.137  0.00  0.00    +0.000 A 
ATOM     22  N   UNL     1       1.327   8.389  20.043  0.00  0.00    +0.000 NA
ENDBRANCH  16  17
ENDBRANCH  15  16
ENDBRANCH   2  15
TORSDOF 4
ENDMDL
MODEL 9
REMARK VINA RESULT:      -7.1      2.426      6.341
REMARK  Name = 
REMARK  5 active torsions:
REMARK  status: ('A' for Active; 'I' for Inactive)
REMARK    1  A    between atoms: C_1  and  N_2
REMARK    2  A    between atoms: N_2  and  C_3
REMARK    3  A    between atoms: C_3  and  C_4
REMARK    4  A    between atoms: C_4  and  C_5
REMARK    5  A    between atoms: C_11  and  C_13
REMARK                            x       y       z     vdW  Elec       q    Type
REMARK                         _______ _______ _______ _____ _____    ______ ____
ROOT
ATOM      1  C   UNL     1       1.836   2.580  21.575  0.00  0.00    +0.000 C 
ATOM      2  N   UNL     1       2.443   3.391  20.532  0.00  0.00    +0.000 N 
ATOM      3  C   UNL     1       3.715   2.968  20.098  0.00  0.00    +0.000 C 
ATOM      4  O   UNL     1       4.238   1.960  20.581  0.00  0.00    +0.000 OA
ENDROOT
BRANCH   3   5
ATOM      5  C   UNL     1       4.422   3.724  19.044  0.00  0.00    +0.000 A 
ATOM      6  C   UNL     1       5.326   4.749  19.283  0.00  0.00    +0.000 A 
ATOM      7  N   UNL     1       5.750   5.154  18.058  0.00  0.00    +0.000 N 
ATOM      8  C   UNL     1       5.088   4.427  17.105  0.00  0.00    +0.000 A 
ATOM      9  N   UNL     1       4.296   3.545  17.673  0.00  0.00    +0.000 NA
ATOM     10  C   UNL     1       5.317   4.658  15.647  0.00  0.00    +0.000 C 
ATOM     11  N   UNL     1       5.921   5.977  15.373  0.00  0.00    +0.000 NA
ATOM     12  C   UNL     1       7.073   6.198  16.263  0.00  0.00    +0.000 C 
ATOM     13  C   UNL     1       6.684   6.217  17.749  0.00  0.00    +0.000 C 
ATOM     14  H   UNL     1       5.210   6.686  15.557  0.00  0.00    +0.000 HD
ENDBRANCH   3   5
BRANCH   2  15
ATOM     15  C   UNL     1       1.742   4.559  19.963  0.00  0.00    +0.000 C 
BRANCH  15  16
ATOM     16  C   UNL     1       1.949   5.914  20.646  0.00  0.00    +0.000 C 
BRANCH  16  17
ATOM     17  C   UNL     1       1.966   7.078  19.688  0.00  0.00    +0.000 A 
ATOM     18  C   UNL     1       1.401   8.304  20.025  0.00  0.00    +0.000 A 
ATOM     19  C   UNL     1       1.510   9.367  19.131  0.00  0.00    +0.000 A 
ATOM     20  C   UNL     1       2.187   9.180  17.931  0.00  0.00    +0.000 A 
ATOM     21  C   UNL     1       2.719   7.931  17.672  0.00  0.00    +0.000 A 
ATOM     22  N   UNL     1       2.624   6.884  18.517  0.00  0.00    +0.000 NA
ENDBRANCH  16  17
ENDBRANCH  15  16
ENDBRANCH   2  15
TORSDOF 4
ENDMDL
