MODEL 1
REMARK VINA RESULT:      -9.6      0.000      0.000
REMARK  Name = 
REMARK  4 active torsions:
REMARK  status: ('A' for Active; 'I' for Inactive)
REMARK    1  A    between atoms: C_2  and  O_3
REMARK    2  A    between atoms: C_2  and  C_4
REMARK    3  A    between atoms: C_8  and  C_9
REMARK    4  A    between atoms: N_11  and  C_12
REMARK                            x       y       z     vdW  Elec       q    Type
REMARK                         _______ _______ _______ _____ _____    ______ ____
ROOT
ATOM      1  C   UNL     1       6.400   5.299  15.765  0.00  0.00    +0.000 A 
ATOM      2  C   UNL     1       5.252   4.985  16.461  0.00  0.00    +0.000 A 
ATOM      3  N   UNL     1       5.410   5.558  17.691  0.00  0.00    +0.000 N 
ATOM      4  C   UNL     1       6.619   6.200  17.695  0.00  0.00    +0.000 A 
ATOM      5  N   UNL     1       7.252   6.045  16.554  0.00  0.00    +0.000 NA
ENDROOT
BRANCH   3   6
ATOM      6  C   UNL     1       4.450   5.515  18.779  0.00  0.00    +0.000 C 
ATOM      7  C   UNL     1       3.379   6.628  18.702  0.00  0.00    +0.000 C 
ATOM      8  C   UNL     1       2.000   5.975  18.519  0.00  0.00    +0.000 C 
ATOM      9  C   UNL     1       2.284   4.510  18.581  0.00  0.00    +0.000 A 
ATOM     10  C   UNL     1       1.367   3.474  18.461  0.00  0.00    +0.000 A 
ATOM     11  C   UNL     1       1.838   2.160  18.505  0.00  0.00    +0.000 A 
ATOM     12  C   UNL     1       3.202   1.908  18.676  0.00  0.00    +0.000 A 
ATOM     13  F   UNL     1       3.637   0.641  18.703  0.00  0.00    +0.000 F 
ATOM     14  C   UNL     1       4.120   2.944  18.802  0.00  0.00    +0.000 A 
ATOM     15  C   UNL     1       3.645   4.249  18.741  0.00  0.00    +0.000 A 
ENDBRANCH   3   6
BRANCH   1  20
ATOM     16  C   UNL     1       6.229   3.607  12.454  0.00  0.00    +0.000 A 
ATOM     17  C   UNL     1       7.315   4.210  11.820  0.00  0.00    +0.000 A 
ATOM     18  C   UNL     1       8.037   5.152  12.525  0.00  0.00    +0.000 A 
ATOM     19  N   UNL     1       7.747   5.520  13.790  0.00  0.00    +0.000 NA
ATOM     20  C   UNL     1       6.702   4.904  14.398  0.00  0.00    +0.000 A 
ATOM     21  C   UNL     1       5.924   3.939  13.773  0.00  0.00    +0.000 A 
BRANCH  16  23
ATOM     22  O   UNL     1       4.329   2.811  11.289  0.00  0.00    +0.000 OA
ATOM     23  C   UNL     1       5.455   2.596  11.703  0.00  0.00    +0.000 C 
BRANCH  23  24
ATOM     24  O   UNL     1       6.075   1.407  11.576  0.00  0.00    +0.000 OA
ATOM     25  H   UNL     1       6.477   1.049  12.389  0.00  0.00    +0.000 HD
ENDBRANCH  23  24
ENDBRANCH  16  23
ENDBRANCH   1  20
TORSDOF 4
ENDMDL
MODEL 2
REMARK VINA RESULT:      -8.3      5.529      8.501
REMARK  Name = 
REMARK  4 active torsions:
REMARK  status: ('A' for Active; 'I' for Inactive)
REMARK    1  A    between atoms: C_2  and  O_3
REMARK    2  A    between atoms: C_2  and  C_4
REMARK    3  A    between atoms: C_8  and  C_9
REMARK    4  A    between atoms: N_11  and  C_12
REMARK                            x       y       z     vdW  Elec       q    Type
REMARK                         _______ _______ _______ _____ _____    ______ ____
ROOT
ATOM      1  C   UNL     1       2.234   6.501  20.087  0.00  0.00    +0.000 A 
ATOM      2  C   UNL     1       3.206   6.130  19.181  0.00  0.00    +0.000 A 
ATOM      3  N   UNL     1       3.457   4.813  19.442  0.00  0.00    +0.000 N 
ATOM      4  C   UNL     1       2.635   4.432  20.468  0.00  0.00    +0.000 A 
ATOM      5  N   UNL     1       1.899   5.433  20.895  0.00  0.00    +0.000 NA
ENDROOT
BRANCH   3   6
ATOM      6  C   UNL     1       4.402   3.971  18.731  0.00  0.00    +0.000 C 
ATOM      7  C   UNL     1       3.822   3.339  17.445  0.00  0.00    +0.000 C 
ATOM      8  C   UNL     1       4.608   3.871  16.236  0.00  0.00    +0.000 C 
ATOM      9  C   UNL     1       5.673   4.722  16.845  0.00  0.00    +0.000 A 
ATOM     10  C   UNL     1       6.653   5.444  16.176  0.00  0.00    +0.000 A 
ATOM     11  C   UNL     1       7.539   6.219  16.927  0.00  0.00    +0.000 A 
ATOM     12  C   UNL     1       7.437   6.251  18.321  0.00  0.00    +0.000 A 
ATOM     13  F   UNL     1       8.288   7.011  19.024  0.00  0.00    +0.000 F 
ATOM     14  C   UNL     1       6.460   5.525  18.992  0.00  0.00    +0.000 A 
ATOM     15  C   UNL     1       5.572   4.769  18.236  0.00  0.00    +0.000 A 
ENDBRANCH   3   6
BRANCH   1  20
ATOM     16  C   UNL     1       0.547   9.505  21.494  0.00  0.00    +0.000 A 
ATOM     17  C   UNL     1       0.543  10.328  20.368  0.00  0.00    +0.000 A 
ATOM     18  C   UNL     1       1.109   9.842  19.207  0.00  0.00    +0.000 A 
ATOM     19  N   UNL     1       1.667   8.617  19.106  0.00  0.00    +0.000 NA
ATOM     20  C   UNL     1       1.639   7.822  20.205  0.00  0.00    +0.000 A 
ATOM     21  C   UNL     1       1.083   8.221  21.413  0.00  0.00    +0.000 A 
BRANCH  16  23
ATOM     22  O   UNL     1       0.323   9.680  23.844  0.00  0.00    +0.000 OA
ATOM     23  C   UNL     1      -0.062  10.021  22.739  0.00  0.00    +0.000 C 
BRANCH  23  24
ATOM     24  O   UNL     1      -1.110  10.843  22.542  0.00  0.00    +0.000 OA
ATOM     25  H   UNL     1      -1.778  10.534  21.902  0.00  0.00    +0.000 HD
ENDBRANCH  23  24
ENDBRANCH  16  23
ENDBRANCH   1  20
TORSDOF 4
ENDMDL
MODEL 3
REMARK VINA RESULT:      -8.3      5.341      7.985
REMARK  Name = 
REMARK  4 active torsions:
REMARK  status: ('A' for Active; 'I' for Inactive)
REMARK    1  A    between atoms: C_2  and  O_3
REMARK    2  A    between atoms: C_2  and  C_4
REMARK    3  A    between atoms: C_8  and  C_9
REMARK    4  A    between atoms: N_11  and  C_12
REMARK                            x       y       z     vdW  Elec       q    Type
REMARK                         _______ _______ _______ _____ _____    ______ ____
ROOT
ATOM      1  C   UNL     1       1.476   8.812  19.001  0.00  0.00    +0.000 A 
ATOM      2  C   UNL     1       2.068   8.160  17.939  0.00  0.00    +0.000 A 
ATOM      3  N   UNL     1       2.635   7.039  18.477  0.00  0.00    +0.000 N 
ATOM      4  C   UNL     1       2.362   7.042  19.818  0.00  0.00    +0.000 A 
ATOM      5  N   UNL     1       1.683   8.109  20.171  0.00  0.00    +0.000 NA
ENDROOT
BRANCH   3   6
ATOM      6  C   UNL     1       3.364   6.020  17.744  0.00  0.00    +0.000 C 
ATOM      7  C   UNL     1       4.882   6.014  18.040  0.00  0.00    +0.000 C 
ATOM      8  C   UNL     1       5.252   4.673  18.695  0.00  0.00    +0.000 C 
ATOM      9  C   UNL     1       3.972   3.904  18.687  0.00  0.00    +0.000 A 
ATOM     10  C   UNL     1       3.763   2.621  19.178  0.00  0.00    +0.000 A 
ATOM     11  C   UNL     1       2.474   2.086  19.116  0.00  0.00    +0.000 A 
ATOM     12  C   UNL     1       1.431   2.831  18.560  0.00  0.00    +0.000 A 
ATOM     13  F   UNL     1       0.198   2.306  18.521  0.00  0.00    +0.000 F 
ATOM     14  C   UNL     1       1.639   4.112  18.064  0.00  0.00    +0.000 A 
ATOM     15  C   UNL     1       2.921   4.644  18.144  0.00  0.00    +0.000 A 
ENDBRANCH   3   6
BRANCH   1  20
ATOM     16  C   UNL     1      -1.135  11.341  18.203  0.00  0.00    +0.000 A 
ATOM     17  C   UNL     1      -0.591  12.457  18.840  0.00  0.00    +0.000 A 
ATOM     18  C   UNL     1       0.608  12.303  19.507  0.00  0.00    +0.000 A 
ATOM     19  N   UNL     1       1.277  11.134  19.576  0.00  0.00    +0.000 NA
ATOM     20  C   UNL     1       0.745  10.066  18.929  0.00  0.00    +0.000 A 
ATOM     21  C   UNL     1      -0.450  10.127  18.225  0.00  0.00    +0.000 A 
BRANCH  16  23
ATOM     22  O   UNL     1      -3.492  11.497  18.060  0.00  0.00    +0.000 OA
ATOM     23  C   UNL     1      -2.417  11.503  17.485  0.00  0.00    +0.000 C 
BRANCH  23  24
ATOM     24  O   UNL     1      -2.295  11.592  16.147  0.00  0.00    +0.000 OA
ATOM     25  H   UNL     1      -2.705  12.374  15.734  0.00  0.00    +0.000 HD
ENDBRANCH  23  24
ENDBRANCH  16  23
ENDBRANCH   1  20
TORSDOF 4
ENDMDL
MODEL 4
REMARK VINA RESULT:      -8.1      5.741      8.701
REMARK  Name = 
REMARK  4 active torsions:
REMARK  status: ('A' for Active; 'I' for Inactive)
REMARK    1  A    between atoms: C_2  and  O_3
REMARK    2  A    between atoms: C_2  and  C_4
REMARK    3  A    between atoms: C_8  and  C_9
REMARK    4  A    between atoms: N_11  and  C_12
REMARK                            x       y       z     vdW  Elec       q    Type
REMARK                         _______ _______ _______ _____ _____    ______ ____
ROOT
ATOM      1  C   UNL     1       1.946   8.323  19.061  0.00  0.00    +0.000 A 
ATOM      2  C   UNL     1       2.130   7.042  19.538  0.00  0.00    +0.000 A 
ATOM      3  N   UNL     1       3.015   6.461  18.674  0.00  0.00    +0.000 N 
ATOM      4  C   UNL     1       3.343   7.395  17.729  0.00  0.00    +0.000 A 
ATOM      5  N   UNL     1       2.698   8.523  17.920  0.00  0.00    +0.000 NA
ENDROOT
BRANCH   3   6
ATOM      6  C   UNL     1       3.533   5.108  18.770  0.00  0.00    +0.000 C 
ATOM      7  C   UNL     1       2.883   4.125  17.770  0.00  0.00    +0.000 C 
ATOM      8  C   UNL     1       3.965   3.617  16.803  0.00  0.00    +0.000 C 
ATOM      9  C   UNL     1       5.224   4.241  17.311  0.00  0.00    +0.000 A 
ATOM     10  C   UNL     1       6.500   4.104  16.780  0.00  0.00    +0.000 A 
ATOM     11  C   UNL     1       7.549   4.806  17.378  0.00  0.00    +0.000 A 
ATOM     12  C   UNL     1       7.307   5.616  18.491  0.00  0.00    +0.000 A 
ATOM     13  F   UNL     1       8.324   6.292  19.043  0.00  0.00    +0.000 F 
ATOM     14  C   UNL     1       6.032   5.750  19.027  0.00  0.00    +0.000 A 
ATOM     15  C   UNL     1       4.990   5.060  18.416  0.00  0.00    +0.000 A 
ENDBRANCH   3   6
BRANCH   1  20
ATOM     16  C   UNL     1      -0.071  10.254  21.520  0.00  0.00    +0.000 A 
ATOM     17  C   UNL     1      -0.544  11.275  20.695  0.00  0.00    +0.000 A 
ATOM     18  C   UNL     1      -0.159  11.268  19.369  0.00  0.00    +0.000 A 
ATOM     19  N   UNL     1       0.651  10.331  18.833  0.00  0.00    +0.000 NA
ATOM     20  C   UNL     1       1.081   9.334  19.646  0.00  0.00    +0.000 A 
ATOM     21  C   UNL     1       0.738   9.251  20.990  0.00  0.00    +0.000 A 
BRANCH  16  23
ATOM     22  O   UNL     1      -1.504  10.805  23.322  0.00  0.00    +0.000 OA
ATOM     23  C   UNL     1      -0.485  10.256  22.940  0.00  0.00    +0.000 C 
BRANCH  23  24
ATOM     24  O   UNL     1       0.389   9.659  23.772  0.00  0.00    +0.000 OA
ATOM     25  H   UNL     1       0.260   9.836  24.722  0.00  0.00    +0.000 HD
ENDBRANCH  23  24
ENDBRANCH  16  23
ENDBRANCH   1  20
TORSDOF 4
ENDMDL
MODEL 5
REMARK VINA RESULT:      -7.9      5.549      8.431
REMARK  Name = 
REMARK  4 active torsions:
REMARK  status: ('A' for Active; 'I' for Inactive)
REMARK    1  A    between atoms: C_2  and  O_3
REMARK    2  A    between atoms: C_2  and  C_4
REMARK    3  A    between atoms: C_8  and  C_9
REMARK    4  A    between atoms: N_11  and  C_12
REMARK                            x       y       z     vdW  Elec       q    Type
REMARK                         _______ _______ _______ _____ _____    ______ ____
ROOT
ATOM      1  C   UNL     1       1.435   8.694  19.788  0.00  0.00    +0.000 A 
ATOM      2  C   UNL     1       1.952   8.310  18.568  0.00  0.00    +0.000 A 
ATOM      3  N   UNL     1       2.438   7.048  18.766  0.00  0.00    +0.000 N 
ATOM      4  C   UNL     1       2.193   6.711  20.069  0.00  0.00    +0.000 A 
ATOM      5  N   UNL     1       1.608   7.691  20.720  0.00  0.00    +0.000 NA
ENDROOT
BRANCH   3   6
ATOM      6  C   UNL     1       3.070   6.214  17.759  0.00  0.00    +0.000 C 
ATOM      7  C   UNL     1       4.614   6.286  17.777  0.00  0.00    +0.000 C 
ATOM      8  C   UNL     1       5.169   4.896  18.130  0.00  0.00    +0.000 C 
ATOM      9  C   UNL     1       3.952   4.035  18.223  0.00  0.00    +0.000 A 
ATOM     10  C   UNL     1       3.906   2.681  18.529  0.00  0.00    +0.000 A 
ATOM     11  C   UNL     1       2.658   2.059  18.609  0.00  0.00    +0.000 A 
ATOM     12  C   UNL     1       1.491   2.792  18.375  0.00  0.00    +0.000 A 
ATOM     13  F   UNL     1       0.303   2.181  18.470  0.00  0.00    +0.000 F 
ATOM     14  C   UNL     1       1.536   4.146  18.065  0.00  0.00    +0.000 A 
ATOM     15  C   UNL     1       2.781   4.762  18.003  0.00  0.00    +0.000 A 
ENDBRANCH   3   6
BRANCH   1  20
ATOM     16  C   UNL     1      -0.148  12.036  19.363  0.00  0.00    +0.000 A 
ATOM     17  C   UNL     1      -0.389  12.359  20.699  0.00  0.00    +0.000 A 
ATOM     18  C   UNL     1      -0.020  11.444  21.664  0.00  0.00    +0.000 A 
ATOM     19  N   UNL     1       0.557  10.257  21.384  0.00  0.00    +0.000 NA
ATOM     20  C   UNL     1       0.806   9.971  20.081  0.00  0.00    +0.000 A 
ATOM     21  C   UNL     1       0.480  10.833  19.042  0.00  0.00    +0.000 A 
BRANCH  16  23
ATOM     22  O   UNL     1      -0.229  14.192  18.391  0.00  0.00    +0.000 OA
ATOM     23  C   UNL     1      -0.538  13.015  18.326  0.00  0.00    +0.000 C 
BRANCH  23  24
ATOM     24  O   UNL     1      -1.312  12.506  17.349  0.00  0.00    +0.000 OA
ATOM     25  H   UNL     1      -1.684  13.153  16.722  0.00  0.00    +0.000 HD
ENDBRANCH  23  24
ENDBRANCH  16  23
ENDBRANCH   1  20
TORSDOF 4
ENDMDL
MODEL 6
REMARK VINA RESULT:      -7.9      5.486      8.535
REMARK  Name = 
REMARK  4 active torsions:
REMARK  status: ('A' for Active; 'I' for Inactive)
REMARK    1  A    between atoms: C_2  and  O_3
REMARK    2  A    between atoms: C_2  and  C_4
REMARK    3  A    between atoms: C_8  and  C_9
REMARK    4  A    between atoms: N_11  and  C_12
REMARK                            x       y       z     vdW  Elec       q    Type
REMARK                         _______ _______ _______ _____ _____    ______ ____
ROOT
ATOM      1  C   UNL     1       1.734   8.636  18.862  0.00  0.00    +0.000 A 
ATOM      2  C   UNL     1       2.144   7.464  19.463  0.00  0.00    +0.000 A 
ATOM      3  N   UNL     1       2.967   6.863  18.553  0.00  0.00    +0.000 N 
ATOM      4  C   UNL     1       3.039   7.681  17.458  0.00  0.00    +0.000 A 
ATOM      5  N   UNL     1       2.289   8.749  17.603  0.00  0.00    +0.000 NA
ENDROOT
BRANCH   3   6
ATOM      6  C   UNL     1       3.661   5.602  18.739  0.00  0.00    +0.000 C 
ATOM      7  C   UNL     1       2.826   4.370  18.321  0.00  0.00    +0.000 C 
ATOM      8  C   UNL     1       3.532   3.670  17.147  0.00  0.00    +0.000 C 
ATOM      9  C   UNL     1       4.792   4.451  16.968  0.00  0.00    +0.000 A 
ATOM     10  C   UNL     1       5.787   4.230  16.024  0.00  0.00    +0.000 A 
ATOM     11  C   UNL     1       6.878   5.101  15.989  0.00  0.00    +0.000 A 
ATOM     12  C   UNL     1       6.958   6.161  16.897  0.00  0.00    +0.000 A 
ATOM     13  F   UNL     1       8.006   6.995  16.839  0.00  0.00    +0.000 F 
ATOM     14  C   UNL     1       5.966   6.381  17.845  0.00  0.00    +0.000 A 
ATOM     15  C   UNL     1       4.876   5.519  17.863  0.00  0.00    +0.000 A 
ENDBRANCH   3   6
BRANCH   1  20
ATOM     16  C   UNL     1      -0.953  11.185  19.234  0.00  0.00    +0.000 A 
ATOM     17  C   UNL     1      -0.833  11.462  20.596  0.00  0.00    +0.000 A 
ATOM     18  C   UNL     1       0.127  10.781  21.315  0.00  0.00    +0.000 A 
ATOM     19  N   UNL     1       0.952   9.861  20.773  0.00  0.00    +0.000 NA
ATOM     20  C   UNL     1       0.837   9.622  19.442  0.00  0.00    +0.000 A 
ATOM     21  C   UNL     1      -0.092  10.266  18.635  0.00  0.00    +0.000 A 
BRANCH  16  23
ATOM     22  O   UNL     1      -3.142  11.982  18.816  0.00  0.00    +0.000 OA
ATOM     23  C   UNL     1      -1.978  11.916  18.459  0.00  0.00    +0.000 C 
BRANCH  23  24
ATOM     24  O   UNL     1      -1.528  12.441  17.304  0.00  0.00    +0.000 OA
ATOM     25  H   UNL     1      -1.271  11.799  16.617  0.00  0.00    +0.000 HD
ENDBRANCH  23  24
ENDBRANCH  16  23
ENDBRANCH   1  20
TORSDOF 4
ENDMDL
MODEL 7
REMARK VINA RESULT:      -7.9      4.574      7.861
REMARK  Name = 
REMARK  4 active torsions:
REMARK  status: ('A' for Active; 'I' for Inactive)
REMARK    1  A    between atoms: C_2  and  O_3
REMARK    2  A    between atoms: C_2  and  C_4
REMARK    3  A    between atoms: C_8  and  C_9
REMARK    4  A    between atoms: N_11  and  C_12
REMARK                            x       y       z     vdW  Elec       q    Type
REMARK                         _______ _______ _______ _____ _____    ______ ____
ROOT
ATOM      1  C   UNL     1       2.261   6.297  20.163  0.00  0.00    +0.000 A 
ATOM      2  C   UNL     1       3.238   5.983  19.242  0.00  0.00    +0.000 A 
ATOM      3  N   UNL     1       3.516   4.661  19.449  0.00  0.00    +0.000 N 
ATOM      4  C   UNL     1       2.704   4.223  20.461  0.00  0.00    +0.000 A 
ATOM      5  N   UNL     1       1.950   5.191  20.929  0.00  0.00    +0.000 NA
ENDROOT
BRANCH   3   6
ATOM      6  C   UNL     1       4.476   3.867  18.705  0.00  0.00    +0.000 C 
ATOM      7  C   UNL     1       3.901   3.261  17.404  0.00  0.00    +0.000 C 
ATOM      8  C   UNL     1       4.661   3.851  16.205  0.00  0.00    +0.000 C 
ATOM      9  C   UNL     1       5.709   4.712  16.832  0.00  0.00    +0.000 A 
ATOM     10  C   UNL     1       6.663   5.480  16.177  0.00  0.00    +0.000 A 
ATOM     11  C   UNL     1       7.535   6.255  16.945  0.00  0.00    +0.000 A 
ATOM     12  C   UNL     1       7.446   6.240  18.340  0.00  0.00    +0.000 A 
ATOM     13  F   UNL     1       8.283   7.000  19.059  0.00  0.00    +0.000 F 
ATOM     14  C   UNL     1       6.495   5.468  18.996  0.00  0.00    +0.000 A 
ATOM     15  C   UNL     1       5.620   4.712  18.225  0.00  0.00    +0.000 A 
ENDBRANCH   3   6
BRANCH   1  20
ATOM     16  C   UNL     1       1.112   9.778  19.519  0.00  0.00    +0.000 A 
ATOM     17  C   UNL     1       0.437  10.033  20.713  0.00  0.00    +0.000 A 
ATOM     18  C   UNL     1       0.395   9.030  21.661  0.00  0.00    +0.000 A 
ATOM     19  N   UNL     1       0.967   7.820  21.492  0.00  0.00    +0.000 NA
ATOM     20  C   UNL     1       1.639   7.600  20.335  0.00  0.00    +0.000 A 
ATOM     21  C   UNL     1       1.744   8.550  19.328  0.00  0.00    +0.000 A 
BRANCH  16  23
ATOM     22  O   UNL     1       0.511  11.876  18.603  0.00  0.00    +0.000 OA
ATOM     23  C   UNL     1       1.162  10.850  18.502  0.00  0.00    +0.000 C 
BRANCH  23  24
ATOM     24  O   UNL     1       1.934  10.566  17.436  0.00  0.00    +0.000 OA
ATOM     25  H   UNL     1       2.820  10.211  17.636  0.00  0.00    +0.000 HD
ENDBRANCH  23  24
ENDBRANCH  16  23
ENDBRANCH   1  20
TORSDOF 4
ENDMDL
MODEL 8
REMARK VINA RESULT:      -7.8      2.345      3.357
REMARK  Name = 
REMARK  4 active torsions:
REMARK  status: ('A' for Active; 'I' for Inactive)
REMARK    1  A    between atoms: C_2  and  O_3
REMARK    2  A    between atoms: C_2  and  C_4
REMARK    3  A    between atoms: C_8  and  C_9
REMARK    4  A    between atoms: N_11  and  C_12
REMARK                            x       y       z     vdW  Elec       q    Type
REMARK                         _______ _______ _______ _____ _____    ______ ____
ROOT
ATOM      1  C   UNL     1       5.487   4.735  16.111  0.00  0.00    +0.000 A 
ATOM      2  C   UNL     1       4.127   4.636  16.320  0.00  0.00    +0.000 A 
ATOM      3  N   UNL     1       3.953   4.853  17.657  0.00  0.00    +0.000 N 
ATOM      4  C   UNL     1       5.187   5.086  18.202  0.00  0.00    +0.000 A 
ATOM      5  N   UNL     1       6.137   5.000  17.299  0.00  0.00    +0.000 NA
ENDROOT
BRANCH   3   6
ATOM      6  C   UNL     1       2.681   4.866  18.358  0.00  0.00    +0.000 C 
ATOM      7  C   UNL     1       2.725   4.156  19.730  0.00  0.00    +0.000 C 
ATOM      8  C   UNL     1       2.433   5.189  20.831  0.00  0.00    +0.000 C 
ATOM      9  C   UNL     1       2.143   6.445  20.077  0.00  0.00    +0.000 A 
ATOM     10  C   UNL     1       1.824   7.687  20.610  0.00  0.00    +0.000 A 
ATOM     11  C   UNL     1       1.627   8.758  19.735  0.00  0.00    +0.000 A 
ATOM     12  C   UNL     1       1.740   8.566  18.355  0.00  0.00    +0.000 A 
ATOM     13  F   UNL     1       1.560   9.608  17.531  0.00  0.00    +0.000 F 
ATOM     14  C   UNL     1       2.054   7.323  17.819  0.00  0.00    +0.000 A 
ATOM     15  C   UNL     1       2.265   6.266  18.698  0.00  0.00    +0.000 A 
ENDBRANCH   3   6
BRANCH   1  20
ATOM     16  C   UNL     1       6.371   3.523  12.705  0.00  0.00    +0.000 A 
ATOM     17  C   UNL     1       7.482   4.326  12.445  0.00  0.00    +0.000 A 
ATOM     18  C   UNL     1       7.869   5.231  13.413  0.00  0.00    +0.000 A 
ATOM     19  N   UNL     1       7.229   5.381  14.591  0.00  0.00    +0.000 NA
ATOM     20  C   UNL     1       6.166   4.574  14.836  0.00  0.00    +0.000 A 
ATOM     21  C   UNL     1       5.710   3.628  13.927  0.00  0.00    +0.000 A 
BRANCH  16  23
ATOM     22  O   UNL     1       4.819   2.511  11.232  0.00  0.00    +0.000 OA
ATOM     23  C   UNL     1       5.955   2.550  11.671  0.00  0.00    +0.000 C 
BRANCH  23  24
ATOM     24  O   UNL     1       6.918   1.680  11.312  0.00  0.00    +0.000 OA
ATOM     25  H   UNL     1       6.624   0.918  10.781  0.00  0.00    +0.000 HD
ENDBRANCH  23  24
ENDBRANCH  16  23
ENDBRANCH   1  20
TORSDOF 4
ENDMDL
MODEL 9
REMARK VINA RESULT:      -7.7      5.472      8.048
REMARK  Name = 
REMARK  4 active torsions:
REMARK  status: ('A' for Active; 'I' for Inactive)
REMARK    1  A    between atoms: C_2  and  O_3
REMARK    2  A    between atoms: C_2  and  C_4
REMARK    3  A    between atoms: C_8  and  C_9
REMARK    4  A    between atoms: N_11  and  C_12
REMARK                            x       y       z     vdW  Elec       q    Type
REMARK                         _______ _______ _______ _____ _____    ______ ____
ROOT
ATOM      1  C   UNL     1       1.653   8.834  18.897  0.00  0.00    +0.000 A 
ATOM      2  C   UNL     1       2.272   8.174  17.856  0.00  0.00    +0.000 A 
ATOM      3  N   UNL     1       2.735   7.007  18.396  0.00  0.00    +0.000 N 
ATOM      4  C   UNL     1       2.376   6.993  19.717  0.00  0.00    +0.000 A 
ATOM      5  N   UNL     1       1.741   8.091  20.057  0.00  0.00    +0.000 NA
ENDROOT
BRANCH   3   6
ATOM      6  C   UNL     1       3.447   5.964  17.681  0.00  0.00    +0.000 C 
ATOM      7  C   UNL     1       4.962   5.930  17.985  0.00  0.00    +0.000 C 
ATOM      8  C   UNL     1       5.301   4.591  18.661  0.00  0.00    +0.000 C 
ATOM      9  C   UNL     1       4.005   3.848  18.655  0.00  0.00    +0.000 A 
ATOM     10  C   UNL     1       3.767   2.577  19.162  0.00  0.00    +0.000 A 
ATOM     11  C   UNL     1       2.468   2.067  19.099  0.00  0.00    +0.000 A 
ATOM     12  C   UNL     1       1.443   2.826  18.527  0.00  0.00    +0.000 A 
ATOM     13  F   UNL     1       0.201   2.326  18.488  0.00  0.00    +0.000 F 
ATOM     14  C   UNL     1       1.681   4.096  18.016  0.00  0.00    +0.000 A 
ATOM     15  C   UNL     1       2.973   4.602  18.096  0.00  0.00    +0.000 A 
ENDBRANCH   3   6
BRANCH   1  20
ATOM     16  C   UNL     1       1.116  12.501  18.557  0.00  0.00    +0.000 A 
ATOM     17  C   UNL     1      -0.275  12.551  18.659  0.00  0.00    +0.000 A 
ATOM     18  C   UNL     1      -0.956  11.362  18.827  0.00  0.00    +0.000 A 
ATOM     19  N   UNL     1      -0.349  10.159  18.894  0.00  0.00    +0.000 NA
ATOM     20  C   UNL     1       1.005  10.133  18.816  0.00  0.00    +0.000 A 
ATOM     21  C   UNL     1       1.776  11.278  18.657  0.00  0.00    +0.000 A 
BRANCH  16  23
ATOM     22  O   UNL     1       1.408  14.840  18.772  0.00  0.00    +0.000 OA
ATOM     23  C   UNL     1       1.849  13.773  18.380  0.00  0.00    +0.000 C 
BRANCH  23  24
ATOM     24  O   UNL     1       3.004  13.656  17.700  0.00  0.00    +0.000 OA
ATOM     25  H   UNL     1       3.742  13.242  18.184  0.00  0.00    +0.000 HD
ENDBRANCH  23  24
ENDBRANCH  16  23
ENDBRANCH   1  20
TORSDOF 4
ENDMDL
