MODEL 1
REMARK VINA RESULT:      -7.4      0.000      0.000
REMARK  Name = 
REMARK  5 active torsions:
REMARK  status: ('A' for Active; 'I' for Inactive)
REMARK    1  A    between atoms: N_1  and  C_2
REMARK    2  A    between atoms: C_2  and  C_3
REMARK    3  A    between atoms: C_3  and  N_4
REMARK    4  A    between atoms: N_4  and  C_5
REMARK    5  A    between atoms: C_7  and  C_8
REMARK                            x       y       z     vdW  Elec       q    Type
REMARK                         _______ _______ _______ _____ _____    ______ ____
ROOT
ATOM      1  C   UNL     1       3.408   4.421  17.524  0.00  0.00    +0.000 A 
ATOM      2  C   UNL     1       2.655   5.467  18.090  0.00  0.00    +0.000 A 
ATOM      3  C   UNL     1       3.054   6.813  18.074  0.00  0.00    +0.000 A 
ATOM      4  C   UNL     1       4.271   7.105  17.452  0.00  0.00    +0.000 A 
ATOM      5  C   UNL     1       5.059   6.095  16.865  0.00  0.00    +0.000 A 
ATOM      6  C   UNL     1       6.271   6.400  16.242  0.00  0.00    +0.000 A 
ATOM      7  N   UNL     1       7.093   5.495  15.665  0.00  0.00    +0.000 NA
ATOM      8  C   UNL     1       6.690   4.212  15.720  0.00  0.00    +0.000 A 
ATOM      9  C   UNL     1       5.508   3.795  16.316  0.00  0.00    +0.000 A 
ATOM     10  C   UNL     1       4.646   4.745  16.902  0.00  0.00    +0.000 A 
ENDROOT
BRANCH   3  11
ATOM     11  C   UNL     1       2.197   7.856  18.685  0.00  0.00    +0.000 A 
ATOM     12  C   UNL     1       1.705   8.932  17.928  0.00  0.00    +0.000 A 
ATOM     13  C   UNL     1       0.944   9.915  18.543  0.00  0.00    +0.000 A 
ATOM     14  N   UNL     1       0.618   9.899  19.848  0.00  0.00    +0.000 NA
ATOM     15  C   UNL     1       1.081   8.856  20.568  0.00  0.00    +0.000 A 
ATOM     16  C   UNL     1       1.861   7.835  20.044  0.00  0.00    +0.000 A 
ENDBRANCH   3  11
BRANCH   1  17
ATOM     17  N   UNL     1       2.975   3.072  17.607  0.00  0.00    +0.000 N 
ATOM     18  H   UNL     1       2.218   2.927  16.940  0.00  0.00    +0.000 HD
BRANCH  17  19
ATOM     19  C   UNL     1       2.609   2.545  18.933  0.00  0.00    +0.000 C 
BRANCH  19  20
ATOM     20  C   UNL     1       3.763   2.664  19.941  0.00  0.00    +0.000 C 
BRANCH  20  21
ATOM     21  N   UNL     1       4.896   1.797  19.606  0.00  0.00    +0.000 NA
ATOM     22  H   UNL     1       5.755   2.345  19.664  0.00  0.00    +0.000 HD
ATOM     23  H   UNL     1       4.818   1.516  18.631  0.00  0.00    +0.000 HD
ENDBRANCH  20  21
ENDBRANCH  19  20
ENDBRANCH  17  19
ENDBRANCH   1  17
TORSDOF 5
ENDMDL
MODEL 2
REMARK VINA RESULT:      -7.4      0.872      1.622
REMARK  Name = 
REMARK  5 active torsions:
REMARK  status: ('A' for Active; 'I' for Inactive)
REMARK    1  A    between atoms: N_1  and  C_2
REMARK    2  A    between atoms: C_2  and  C_3
REMARK    3  A    between atoms: C_3  and  N_4
REMARK    4  A    between atoms: N_4  and  C_5
REMARK    5  A    between atoms: C_7  and  C_8
REMARK                            x       y       z     vdW  Elec       q    Type
REMARK                         _______ _______ _______ _____ _____    ______ ____
ROOT
ATOM      1  C   UNL     1       3.360   4.406  17.384  0.00  0.00    +0.000 A 
ATOM      2  C   UNL     1       2.637   5.447  17.997  0.00  0.00    +0.000 A 
ATOM      3  C   UNL     1       3.087   6.775  18.067  0.00  0.00    +0.000 A 
ATOM      4  C   UNL     1       4.326   7.053  17.484  0.00  0.00    +0.000 A 
ATOM      5  C   UNL     1       5.086   6.049  16.852  0.00  0.00    +0.000 A 
ATOM      6  C   UNL     1       6.321   6.341  16.268  0.00  0.00    +0.000 A 
ATOM      7  N   UNL     1       7.119   5.438  15.654  0.00  0.00    +0.000 NA
ATOM      8  C   UNL     1       6.665   4.171  15.627  0.00  0.00    +0.000 A 
ATOM      9  C   UNL     1       5.457   3.768  16.176  0.00  0.00    +0.000 A 
ATOM     10  C   UNL     1       4.621   4.716  16.803  0.00  0.00    +0.000 A 
ENDROOT
BRANCH   3  11
ATOM     11  C   UNL     1       2.260   7.814  18.723  0.00  0.00    +0.000 A 
ATOM     12  C   UNL     1       1.923   7.728  20.083  0.00  0.00    +0.000 A 
ATOM     13  C   UNL     1       1.107   8.695  20.653  0.00  0.00    +0.000 A 
ATOM     14  N   UNL     1       0.619   9.751  19.978  0.00  0.00    +0.000 NA
ATOM     15  C   UNL     1       0.956   9.836  18.674  0.00  0.00    +0.000 A 
ATOM     16  C   UNL     1       1.752   8.910  18.015  0.00  0.00    +0.000 A 
ENDBRANCH   3  11
BRANCH   1  17
ATOM     17  N   UNL     1       2.872   3.074  17.380  0.00  0.00    +0.000 N 
ATOM     18  H   UNL     1       2.109   3.003  16.709  0.00  0.00    +0.000 HD
BRANCH  17  19
ATOM     19  C   UNL     1       2.490   2.474  18.670  0.00  0.00    +0.000 C 
BRANCH  19  20
ATOM     20  C   UNL     1       0.965   2.388  18.838  0.00  0.00    +0.000 C 
BRANCH  20  21
ATOM     21  N   UNL     1       0.491   3.076  20.043  0.00  0.00    +0.000 NA
ATOM     22  H   UNL     1      -0.512   3.238  19.953  0.00  0.00    +0.000 HD
ATOM     23  H   UNL     1       0.915   4.000  20.081  0.00  0.00    +0.000 HD
ENDBRANCH  20  21
ENDBRANCH  19  20
ENDBRANCH  17  19
ENDBRANCH   1  17
TORSDOF 5
ENDMDL
MODEL 3
REMARK VINA RESULT:      -7.4      0.888      1.220
REMARK  Name = 
REMARK  5 active torsions:
REMARK  status: ('A' for Active; 'I' for Inactive)
REMARK    1  A    between atoms: N_1  and  C_2
REMARK    2  A    between atoms: C_2  and  C_3
REMARK    3  A    between atoms: C_3  and  N_4
REMARK    4  A    between atoms: N_4  and  C_5
REMARK    5  A    between atoms: C_7  and  C_8
REMARK                            x       y       z     vdW  Elec       q    Type
REMARK                         _______ _______ _______ _____ _____    ______ ____
ROOT
ATOM      1  C   UNL     1       3.270   4.454  17.367  0.00  0.00    +0.000 A 
ATOM      2  C   UNL     1       2.541   5.492  17.976  0.00  0.00    +0.000 A 
ATOM      3  C   UNL     1       3.016   6.807  18.107  0.00  0.00    +0.000 A 
ATOM      4  C   UNL     1       4.286   7.075  17.590  0.00  0.00    +0.000 A 
ATOM      5  C   UNL     1       5.054   6.072  16.966  0.00  0.00    +0.000 A 
ATOM      6  C   UNL     1       6.321   6.353  16.449  0.00  0.00    +0.000 A 
ATOM      7  N   UNL     1       7.127   5.451  15.845  0.00  0.00    +0.000 NA
ATOM      8  C   UNL     1       6.649   4.195  15.760  0.00  0.00    +0.000 A 
ATOM      9  C   UNL     1       5.408   3.804  16.240  0.00  0.00    +0.000 A 
ATOM     10  C   UNL     1       4.563   4.751  16.855  0.00  0.00    +0.000 A 
ENDROOT
BRANCH   3  11
ATOM     11  C   UNL     1       2.180   7.846  18.754  0.00  0.00    +0.000 A 
ATOM     12  C   UNL     1       1.694   8.947  18.030  0.00  0.00    +0.000 A 
ATOM     13  C   UNL     1       0.954   9.924  18.679  0.00  0.00    +0.000 A 
ATOM     14  N   UNL     1       0.642   9.879  19.987  0.00  0.00    +0.000 NA
ATOM     15  C   UNL     1       1.100   8.811  20.675  0.00  0.00    +0.000 A 
ATOM     16  C   UNL     1       1.860   7.794  20.116  0.00  0.00    +0.000 A 
ENDBRANCH   3  11
BRANCH   1  17
ATOM     17  N   UNL     1       2.756   3.133  17.301  0.00  0.00    +0.000 N 
ATOM     18  H   UNL     1       1.911   3.135  16.730  0.00  0.00    +0.000 HD
BRANCH  17  19
ATOM     19  C   UNL     1       2.527   2.417  18.567  0.00  0.00    +0.000 C 
BRANCH  19  20
ATOM     20  C   UNL     1       1.030   2.258  18.879  0.00  0.00    +0.000 C 
BRANCH  20  21
ATOM     21  N   UNL     1       0.590   3.115  19.983  0.00  0.00    +0.000 NA
ATOM     22  H   UNL     1      -0.404   2.952  20.147  0.00  0.00    +0.000 HD
ATOM     23  H   UNL     1       0.662   4.088  19.692  0.00  0.00    +0.000 HD
ENDBRANCH  20  21
ENDBRANCH  19  20
ENDBRANCH  17  19
ENDBRANCH   1  17
TORSDOF 5
ENDMDL
MODEL 4
REMARK VINA RESULT:      -7.4      0.111      1.052
REMARK  Name = 
REMARK  5 active torsions:
REMARK  status: ('A' for Active; 'I' for Inactive)
REMARK    1  A    between atoms: N_1  and  C_2
REMARK    2  A    between atoms: C_2  and  C_3
REMARK    3  A    between atoms: C_3  and  N_4
REMARK    4  A    between atoms: N_4  and  C_5
REMARK    5  A    between atoms: C_7  and  C_8
REMARK                            x       y       z     vdW  Elec       q    Type
REMARK                         _______ _______ _______ _____ _____    ______ ____
ROOT
ATOM      1  C   UNL     1       3.376   4.441  17.495  0.00  0.00    +0.000 A 
ATOM      2  C   UNL     1       2.640   5.495  18.066  0.00  0.00    +0.000 A 
ATOM      3  C   UNL     1       3.066   6.833  18.071  0.00  0.00    +0.000 A 
ATOM      4  C   UNL     1       4.295   7.107  17.465  0.00  0.00    +0.000 A 
ATOM      5  C   UNL     1       5.069   6.088  16.874  0.00  0.00    +0.000 A 
ATOM      6  C   UNL     1       6.294   6.375  16.268  0.00  0.00    +0.000 A 
ATOM      7  N   UNL     1       7.103   5.459  15.688  0.00  0.00    +0.000 NA
ATOM      8  C   UNL     1       6.672   4.184  15.724  0.00  0.00    +0.000 A 
ATOM      9  C   UNL     1       5.476   3.785  16.301  0.00  0.00    +0.000 A 
ATOM     10  C   UNL     1       4.627   4.746  16.890  0.00  0.00    +0.000 A 
ENDROOT
BRANCH   3  11
ATOM     11  C   UNL     1       2.225   7.887  18.685  0.00  0.00    +0.000 A 
ATOM     12  C   UNL     1       1.876   7.843  20.045  0.00  0.00    +0.000 A 
ATOM     13  C   UNL     1       1.048   8.821  20.575  0.00  0.00    +0.000 A 
ATOM     14  N   UNL     1       0.557   9.850  19.861  0.00  0.00    +0.000 NA
ATOM     15  C   UNL     1       0.905   9.895  18.558  0.00  0.00    +0.000 A 
ATOM     16  C   UNL     1       1.715   8.955  17.937  0.00  0.00    +0.000 A 
ENDBRANCH   3  11
BRANCH   1  17
ATOM     17  N   UNL     1       2.914   3.101  17.557  0.00  0.00    +0.000 N 
ATOM     18  H   UNL     1       2.032   3.032  17.051  0.00  0.00    +0.000 HD
BRANCH  17  19
ATOM     19  C   UNL     1       2.805   2.468  18.883  0.00  0.00    +0.000 C 
BRANCH  19  20
ATOM     20  C   UNL     1       4.006   2.799  19.782  0.00  0.00    +0.000 C 
BRANCH  20  21
ATOM     21  N   UNL     1       4.991   1.714  19.828  0.00  0.00    +0.000 NA
ATOM     22  H   UNL     1       4.569   0.909  20.290  0.00  0.00    +0.000 HD
ATOM     23  H   UNL     1       5.764   1.998  20.426  0.00  0.00    +0.000 HD
ENDBRANCH  20  21
ENDBRANCH  19  20
ENDBRANCH  17  19
ENDBRANCH   1  17
TORSDOF 5
ENDMDL
MODEL 5
REMARK VINA RESULT:      -7.2      1.011      1.697
REMARK  Name = 
REMARK  5 active torsions:
REMARK  status: ('A' for Active; 'I' for Inactive)
REMARK    1  A    between atoms: N_1  and  C_2
REMARK    2  A    between atoms: C_2  and  C_3
REMARK    3  A    between atoms: C_3  and  N_4
REMARK    4  A    between atoms: N_4  and  C_5
REMARK    5  A    between atoms: C_7  and  C_8
REMARK                            x       y       z     vdW  Elec       q    Type
REMARK                         _______ _______ _______ _____ _____    ______ ____
ROOT
ATOM      1  C   UNL     1       4.659   4.543  18.579  0.00  0.00    +0.000 A 
ATOM      2  C   UNL     1       3.761   5.466  19.145  0.00  0.00    +0.000 A 
ATOM      3  C   UNL     1       3.370   6.660  18.519  0.00  0.00    +0.000 A 
ATOM      4  C   UNL     1       3.916   6.922  17.260  0.00  0.00    +0.000 A 
ATOM      5  C   UNL     1       4.816   6.027  16.647  0.00  0.00    +0.000 A 
ATOM      6  C   UNL     1       5.351   6.298  15.385  0.00  0.00    +0.000 A 
ATOM      7  N   UNL     1       6.227   5.502  14.730  0.00  0.00    +0.000 NA
ATOM      8  C   UNL     1       6.596   4.378  15.371  0.00  0.00    +0.000 A 
ATOM      9  C   UNL     1       6.131   4.011  16.626  0.00  0.00    +0.000 A 
ATOM     10  C   UNL     1       5.205   4.836  17.299  0.00  0.00    +0.000 A 
ENDROOT
BRANCH   3  11
ATOM     11  C   UNL     1       2.410   7.575  19.181  0.00  0.00    +0.000 A 
ATOM     12  C   UNL     1       1.943   7.326  20.482  0.00  0.00    +0.000 A 
ATOM     13  C   UNL     1       1.009   8.178  21.052  0.00  0.00    +0.000 A 
ATOM     14  N   UNL     1       0.520   9.270  20.436  0.00  0.00    +0.000 NA
ATOM     15  C   UNL     1       0.981   9.511  19.191  0.00  0.00    +0.000 A 
ATOM     16  C   UNL     1       1.902   8.708  18.534  0.00  0.00    +0.000 A 
ENDBRANCH   3  11
BRANCH   1  17
ATOM     17  N   UNL     1       5.050   3.371  19.277  0.00  0.00    +0.000 N 
ATOM     18  H   UNL     1       5.777   2.896  18.744  0.00  0.00    +0.000 HD
BRANCH  17  19
ATOM     19  C   UNL     1       3.997   2.424  19.681  0.00  0.00    +0.000 C 
BRANCH  19  20
ATOM     20  C   UNL     1       3.597   1.481  18.536  0.00  0.00    +0.000 C 
BRANCH  20  21
ATOM     21  N   UNL     1       2.316   1.849  17.924  0.00  0.00    +0.000 NA
ATOM     22  H   UNL     1       1.571   1.332  18.392  0.00  0.00    +0.000 HD
ATOM     23  H   UNL     1       2.309   1.525  16.959  0.00  0.00    +0.000 HD
ENDBRANCH  20  21
ENDBRANCH  19  20
ENDBRANCH  17  19
ENDBRANCH   1  17
TORSDOF 5
ENDMDL
MODEL 6
REMARK VINA RESULT:      -7.2      1.327      3.528
REMARK  Name = 
REMARK  5 active torsions:
REMARK  status: ('A' for Active; 'I' for Inactive)
REMARK    1  A    between atoms: N_1  and  C_2
REMARK    2  A    between atoms: C_2  and  C_3
REMARK    3  A    between atoms: C_3  and  N_4
REMARK    4  A    between atoms: N_4  and  C_5
REMARK    5  A    between atoms: C_7  and  C_8
REMARK                            x       y       z     vdW  Elec       q    Type
REMARK                         _______ _______ _______ _____ _____    ______ ____
ROOT
ATOM      1  C   UNL     1       4.240   5.405  17.307  0.00  0.00    +0.000 A 
ATOM      2  C   UNL     1       3.678   6.642  17.672  0.00  0.00    +0.000 A 
ATOM      3  C   UNL     1       2.565   6.776  18.518  0.00  0.00    +0.000 A 
ATOM      4  C   UNL     1       2.005   5.597  19.016  0.00  0.00    +0.000 A 
ATOM      5  C   UNL     1       2.533   4.333  18.687  0.00  0.00    +0.000 A 
ATOM      6  C   UNL     1       1.967   3.162  19.195  0.00  0.00    +0.000 A 
ATOM      7  N   UNL     1       2.403   1.911  18.922  0.00  0.00    +0.000 NA
ATOM      8  C   UNL     1       3.456   1.821  18.089  0.00  0.00    +0.000 A 
ATOM      9  C   UNL     1       4.094   2.916  17.524  0.00  0.00    +0.000 A 
ATOM     10  C   UNL     1       3.646   4.219  17.824  0.00  0.00    +0.000 A 
ENDROOT
BRANCH   3  11
ATOM     11  C   UNL     1       2.041   8.119  18.861  0.00  0.00    +0.000 A 
ATOM     12  C   UNL     1       1.488   8.386  20.124  0.00  0.00    +0.000 A 
ATOM     13  C   UNL     1       0.964   9.641  20.394  0.00  0.00    +0.000 A 
ATOM     14  N   UNL     1       0.966  10.657  19.512  0.00  0.00    +0.000 NA
ATOM     15  C   UNL     1       1.510  10.399  18.304  0.00  0.00    +0.000 A 
ATOM     16  C   UNL     1       2.044   9.171  17.938  0.00  0.00    +0.000 A 
ENDBRANCH   3  11
BRANCH   1  17
ATOM     17  N   UNL     1       5.340   5.329  16.414  0.00  0.00    +0.000 N 
ATOM     18  H   UNL     1       5.503   4.353  16.173  0.00  0.00    +0.000 HD
BRANCH  17  19
ATOM     19  C   UNL     1       6.597   5.986  16.810  0.00  0.00    +0.000 C 
BRANCH  19  20
ATOM     20  C   UNL     1       7.262   5.289  18.007  0.00  0.00    +0.000 C 
BRANCH  20  21
ATOM     21  N   UNL     1       8.061   4.126  17.610  0.00  0.00    +0.000 NA
ATOM     22  H   UNL     1       8.161   4.130  16.595  0.00  0.00    +0.000 HD
ATOM     23  H   UNL     1       7.540   3.280  17.830  0.00  0.00    +0.000 HD
ENDBRANCH  20  21
ENDBRANCH  19  20
ENDBRANCH  17  19
ENDBRANCH   1  17
TORSDOF 5
ENDMDL
MODEL 7
REMARK VINA RESULT:      -7.1      1.826      5.687
REMARK  Name = 
REMARK  5 active torsions:
REMARK  status: ('A' for Active; 'I' for Inactive)
REMARK    1  A    between atoms: N_1  and  C_2
REMARK    2  A    between atoms: C_2  and  C_3
REMARK    3  A    between atoms: C_3  and  N_4
REMARK    4  A    between atoms: N_4  and  C_5
REMARK    5  A    between atoms: C_7  and  C_8
REMARK                            x       y       z     vdW  Elec       q    Type
REMARK                         _______ _______ _______ _____ _____    ______ ____
ROOT
ATOM      1  C   UNL     1       2.685   6.189  19.734  0.00  0.00    +0.000 A 
ATOM      2  C   UNL     1       3.684   5.657  18.897  0.00  0.00    +0.000 A 
ATOM      3  C   UNL     1       4.195   6.322  17.771  0.00  0.00    +0.000 A 
ATOM      4  C   UNL     1       3.666   7.585  17.488  0.00  0.00    +0.000 A 
ATOM      5  C   UNL     1       2.669   8.164  18.298  0.00  0.00    +0.000 A 
ATOM      6  C   UNL     1       2.152   9.429  18.009  0.00  0.00    +0.000 A 
ATOM      7  N   UNL     1       1.189  10.053  18.724  0.00  0.00    +0.000 NA
ATOM      8  C   UNL     1       0.707   9.375  19.782  0.00  0.00    +0.000 A 
ATOM      9  C   UNL     1       1.144   8.113  20.160  0.00  0.00    +0.000 A 
ATOM     10  C   UNL     1       2.160   7.473  19.421  0.00  0.00    +0.000 A 
ENDROOT
BRANCH   3  11
ATOM     11  C   UNL     1       5.255   5.696  16.946  0.00  0.00    +0.000 A 
ATOM     12  C   UNL     1       6.343   5.034  17.537  0.00  0.00    +0.000 A 
ATOM     13  C   UNL     1       7.341   4.500  16.735  0.00  0.00    +0.000 A 
ATOM     14  N   UNL     1       7.329   4.556  15.391  0.00  0.00    +0.000 NA
ATOM     15  C   UNL     1       6.274   5.182  14.828  0.00  0.00    +0.000 A 
ATOM     16  C   UNL     1       5.238   5.759  15.548  0.00  0.00    +0.000 A 
ENDBRANCH   3  11
BRANCH   1  17
ATOM     17  N   UNL     1       2.177   5.452  20.835  0.00  0.00    +0.000 N 
ATOM     18  H   UNL     1       2.955   5.010  21.324  0.00  0.00    +0.000 HD
BRANCH  17  19
ATOM     19  C   UNL     1       1.103   4.478  20.578  0.00  0.00    +0.000 C 
BRANCH  19  20
ATOM     20  C   UNL     1       1.487   3.061  21.033  0.00  0.00    +0.000 C 
BRANCH  20  21
ATOM     21  N   UNL     1       2.398   3.064  22.181  0.00  0.00    +0.000 NA
ATOM     22  H   UNL     1       2.909   2.181  22.196  0.00  0.00    +0.000 HD
ATOM     23  H   UNL     1       1.847   3.075  23.037  0.00  0.00    +0.000 HD
ENDBRANCH  20  21
ENDBRANCH  19  20
ENDBRANCH  17  19
ENDBRANCH   1  17
TORSDOF 5
ENDMDL
MODEL 8
REMARK VINA RESULT:      -7.1      1.024      1.097
REMARK  Name = 
REMARK  5 active torsions:
REMARK  status: ('A' for Active; 'I' for Inactive)
REMARK    1  A    between atoms: N_1  and  C_2
REMARK    2  A    between atoms: C_2  and  C_3
REMARK    3  A    between atoms: C_3  and  N_4
REMARK    4  A    between atoms: N_4  and  C_5
REMARK    5  A    between atoms: C_7  and  C_8
REMARK                            x       y       z     vdW  Elec       q    Type
REMARK                         _______ _______ _______ _____ _____    ______ ____
ROOT
ATOM      1  C   UNL     1       4.065   4.881  18.814  0.00  0.00    +0.000 A 
ATOM      2  C   UNL     1       3.182   5.888  19.247  0.00  0.00    +0.000 A 
ATOM      3  C   UNL     1       2.971   7.092  18.556  0.00  0.00    +0.000 A 
ATOM      4  C   UNL     1       3.690   7.276  17.372  0.00  0.00    +0.000 A 
ATOM      5  C   UNL     1       4.582   6.296  16.892  0.00  0.00    +0.000 A 
ATOM      6  C   UNL     1       5.290   6.489  15.703  0.00  0.00    +0.000 A 
ATOM      7  N   UNL     1       6.172   5.609  15.177  0.00  0.00    +0.000 NA
ATOM      8  C   UNL     1       6.365   4.477  15.879  0.00  0.00    +0.000 A 
ATOM      9  C   UNL     1       5.719   4.182  17.071  0.00  0.00    +0.000 A 
ATOM     10  C   UNL     1       4.789   5.096  17.608  0.00  0.00    +0.000 A 
ENDROOT
BRANCH   3  11
ATOM     11  C   UNL     1       2.015   8.097  19.076  0.00  0.00    +0.000 A 
ATOM     12  C   UNL     1       1.501   9.112  18.251  0.00  0.00    +0.000 A 
ATOM     13  C   UNL     1       0.644  10.063  18.783  0.00  0.00    +0.000 A 
ATOM     14  N   UNL     1       0.243  10.071  20.067  0.00  0.00    +0.000 NA
ATOM     15  C   UNL     1       0.729   9.087  20.852  0.00  0.00    +0.000 A 
ATOM     16  C   UNL     1       1.602   8.102  20.413  0.00  0.00    +0.000 A 
ENDBRANCH   3  11
BRANCH   1  17
ATOM     17  N   UNL     1       4.269   3.702  19.576  0.00  0.00    +0.000 N 
ATOM     18  H   UNL     1       5.119   3.243  19.252  0.00  0.00    +0.000 HD
BRANCH  17  19
ATOM     19  C   UNL     1       3.159   2.739  19.667  0.00  0.00    +0.000 C 
BRANCH  19  20
ATOM     20  C   UNL     1       3.025   1.888  18.395  0.00  0.00    +0.000 C 
BRANCH  20  21
ATOM     21  N   UNL     1       4.035   0.830  18.314  0.00  0.00    +0.000 NA
ATOM     22  H   UNL     1       4.603   0.983  17.480  0.00  0.00    +0.000 HD
ATOM     23  H   UNL     1       3.566  -0.061  18.166  0.00  0.00    +0.000 HD
ENDBRANCH  20  21
ENDBRANCH  19  20
ENDBRANCH  17  19
ENDBRANCH   1  17
TORSDOF 5
ENDMDL
MODEL 9
REMARK VINA RESULT:      -7.1      1.817      5.600
REMARK  Name = 
REMARK  5 active torsions:
REMARK  status: ('A' for Active; 'I' for Inactive)
REMARK    1  A    between atoms: N_1  and  C_2
REMARK    2  A    between atoms: C_2  and  C_3
REMARK    3  A    between atoms: C_3  and  N_4
REMARK    4  A    between atoms: N_4  and  C_5
REMARK    5  A    between atoms: C_7  and  C_8
REMARK                            x       y       z     vdW  Elec       q    Type
REMARK                         _______ _______ _______ _____ _____    ______ ____
ROOT
ATOM      1  C   UNL     1       2.705   6.246  19.733  0.00  0.00    +0.000 A 
ATOM      2  C   UNL     1       3.713   5.721  18.903  0.00  0.00    +0.000 A 
ATOM      3  C   UNL     1       4.213   6.381  17.769  0.00  0.00    +0.000 A 
ATOM      4  C   UNL     1       3.663   7.631  17.471  0.00  0.00    +0.000 A 
ATOM      5  C   UNL     1       2.656   8.203  18.274  0.00  0.00    +0.000 A 
ATOM      6  C   UNL     1       2.117   9.455  17.969  0.00  0.00    +0.000 A 
ATOM      7  N   UNL     1       1.144  10.071  18.676  0.00  0.00    +0.000 NA
ATOM      8  C   UNL     1       0.673   9.398  19.743  0.00  0.00    +0.000 A 
ATOM      9  C   UNL     1       1.131   8.149  20.136  0.00  0.00    +0.000 A 
ATOM     10  C   UNL     1       2.158   7.517  19.404  0.00  0.00    +0.000 A 
ENDROOT
BRANCH   3  11
ATOM     11  C   UNL     1       5.284   5.763  16.952  0.00  0.00    +0.000 A 
ATOM     12  C   UNL     1       5.243   5.796  15.549  0.00  0.00    +0.000 A 
ATOM     13  C   UNL     1       6.238   5.167  14.817  0.00  0.00    +0.000 A 
ATOM     14  N   UNL     1       7.282   4.525  15.373  0.00  0.00    +0.000 NA
ATOM     15  C   UNL     1       7.323   4.507  16.722  0.00  0.00    +0.000 A 
ATOM     16  C   UNL     1       6.366   5.094  17.537  0.00  0.00    +0.000 A 
ENDBRANCH   3  11
BRANCH   1  17
ATOM     17  N   UNL     1       2.210   5.514  20.843  0.00  0.00    +0.000 N 
ATOM     18  H   UNL     1       2.996   5.102  21.345  0.00  0.00    +0.000 HD
BRANCH  17  19
ATOM     19  C   UNL     1       1.164   4.507  20.596  0.00  0.00    +0.000 C 
BRANCH  19  20
ATOM     20  C   UNL     1       1.651   3.081  20.898  0.00  0.00    +0.000 C 
BRANCH  20  21
ATOM     21  N   UNL     1       2.389   2.993  22.161  0.00  0.00    +0.000 NA
ATOM     22  H   UNL     1       3.364   2.772  21.956  0.00  0.00    +0.000 HD
ATOM     23  H   UNL     1       2.036   2.200  22.692  0.00  0.00    +0.000 HD
ENDBRANCH  20  21
ENDBRANCH  19  20
ENDBRANCH  17  19
ENDBRANCH   1  17
TORSDOF 5
ENDMDL
