MODEL 1
REMARK VINA RESULT:      -8.2      0.000      0.000
REMARK  Name = 
REMARK  12 active torsions:
REMARK  status: ('A' for Active; 'I' for Inactive)
REMARK    1  A    between atoms: C_1  and  C_2
REMARK    2  A    between atoms: C_5  and  N_6
REMARK    3  A    between atoms: C_7  and  C_8
REMARK    4  A    between atoms: C_9  and  C_10
REMARK    5  A    between atoms: C_10  and  N_11
REMARK    6  A    between atoms: N_11  and  C_12
REMARK    7  A    between atoms: C_12  and  C_13
REMARK    8  A    between atoms: C_13  and  C_14
REMARK    9  A    between atoms: C_13  and  C_15
REMARK   10  A    between atoms: C_21  and  C_22
REMARK   11  A    between atoms: C_22  and  O_24
REMARK   12  A    between atoms: C_25  and  C_26
REMARK                            x       y       z     vdW  Elec       q    Type
REMARK                         _______ _______ _______ _____ _____    ______ ____
ROOT
ATOM      1  N   UNL     1       3.970   4.893  18.625  0.00  0.00    +0.000 N 
ATOM      2  C   UNL     1       3.145   5.981  18.940  0.00  0.00    +0.000 A 
ATOM      3  C   UNL     1       3.178   7.310  18.248  0.00  0.00    +0.000 C 
ATOM      4  C   UNL     1       2.320   5.644  20.016  0.00  0.00    +0.000 A 
ATOM      5  C   UNL     1       2.630   4.288  20.356  0.00  0.00    +0.000 A 
ATOM      6  C   UNL     1       3.684   3.872  19.544  0.00  0.00    +0.000 A 
ATOM      7  C   UNL     1       4.289   2.500  19.488  0.00  0.00    +0.000 C 
ENDROOT
BRANCH   1  12
ATOM      8  C   UNL     1       7.465   4.872  14.033  0.00  0.00    +0.000 C 
ATOM      9  C   UNL     1       6.583   4.792  15.244  0.00  0.00    +0.000 A 
ATOM     10  C   UNL     1       5.277   4.306  15.150  0.00  0.00    +0.000 A 
ATOM     11  C   UNL     1       4.450   4.272  16.278  0.00  0.00    +0.000 A 
ATOM     12  C   UNL     1       4.884   4.773  17.514  0.00  0.00    +0.000 A 
ATOM     13  C   UNL     1       6.204   5.231  17.612  0.00  0.00    +0.000 A 
ATOM     14  C   UNL     1       7.049   5.221  16.491  0.00  0.00    +0.000 A 
ENDBRANCH   1  12
BRANCH   5  15
ATOM     15  C   UNL     1       1.949   3.446  21.336  0.00  0.00    +0.000 C 
ATOM     16  O   UNL     1       2.416   3.157  22.433  0.00  0.00    +0.000 OA
BRANCH  15  17
ATOM     17  O   UNL     1       0.709   3.038  20.956  0.00  0.00    +0.000 OA
ATOM     18  H   UNL     1       0.546   3.285  20.027  0.00  0.00    +0.000 HD
ENDBRANCH  15  17
ENDBRANCH   5  15
BRANCH   4  19
ATOM     19  C   UNL     1       1.279   6.544  20.669  0.00  0.00    +0.000 C 
BRANCH  19  20
ATOM     20  N   UNL     1       1.909   7.793  21.079  0.00  0.00    +0.000 NA
ATOM     21  H   UNL     1       2.295   8.265  20.267  0.00  0.00    +0.000 HD
BRANCH  20  22
ATOM     22  C   UNL     1       1.022   8.716  21.809  0.00  0.00    +0.000 C 
BRANCH  22  23
ATOM     23  C   UNL     1       0.144   9.503  20.796  0.00  0.00    +0.000 C 
ATOM     24  C   UNL     1       0.939   9.924  19.551  0.00  0.00    +0.000 C 
BRANCH  23  25
ATOM     25  C   UNL     1      -0.587  10.700  21.387  0.00  0.00    +0.000 A 
ATOM     26  C   UNL     1      -0.949  11.815  20.623  0.00  0.00    +0.000 A 
ATOM     27  C   UNL     1      -1.695  12.861  21.186  0.00  0.00    +0.000 A 
ATOM     28  C   UNL     1      -2.090  12.809  22.520  0.00  0.00    +0.000 A 
ATOM     29  C   UNL     1      -1.741  11.705  23.292  0.00  0.00    +0.000 A 
ATOM     30  C   UNL     1      -0.991  10.666  22.731  0.00  0.00    +0.000 A 
ENDBRANCH  23  25
ENDBRANCH  22  23
ENDBRANCH  20  22
ENDBRANCH  19  20
ENDBRANCH   4  19
TORSDOF 8
ENDMDL
MODEL 2
REMARK VINA RESULT:      -8.2      1.282      2.018
REMARK  Name = 
REMARK  12 active torsions:
REMARK  status: ('A' for Active; 'I' for Inactive)
REMARK    1  A    between atoms: C_1  and  C_2
REMARK    2  A    between atoms: C_5  and  N_6
REMARK    3  A    between atoms: C_7  and  C_8
REMARK    4  A    between atoms: C_9  and  C_10
REMARK    5  A    between atoms: C_10  and  N_11
REMARK    6  A    between atoms: N_11  and  C_12
REMARK    7  A    between atoms: C_12  and  C_13
REMARK    8  A    between atoms: C_13  and  C_14
REMARK    9  A    between atoms: C_13  and  C_15
REMARK   10  A    between atoms: C_21  and  C_22
REMARK   11  A    between atoms: C_22  and  O_24
REMARK   12  A    between atoms: C_25  and  C_26
REMARK                            x       y       z     vdW  Elec       q    Type
REMARK                         _______ _______ _______ _____ _____    ______ ____
ROOT
ATOM      1  N   UNL     1       3.892   5.094  18.606  0.00  0.00    +0.000 N 
ATOM      2  C   UNL     1       3.000   6.142  18.871  0.00  0.00    +0.000 A 
ATOM      3  C   UNL     1       2.962   7.444  18.129  0.00  0.00    +0.000 C 
ATOM      4  C   UNL     1       2.185   5.797  19.951  0.00  0.00    +0.000 A 
ATOM      5  C   UNL     1       2.570   4.476  20.346  0.00  0.00    +0.000 A 
ATOM      6  C   UNL     1       3.656   4.094  19.560  0.00  0.00    +0.000 A 
ATOM      7  C   UNL     1       4.343   2.759  19.562  0.00  0.00    +0.000 C 
ENDROOT
BRANCH   1  12
ATOM      8  C   UNL     1       7.388   5.071  14.014  0.00  0.00    +0.000 C 
ATOM      9  C   UNL     1       6.520   5.000  15.236  0.00  0.00    +0.000 A 
ATOM     10  C   UNL     1       5.315   4.296  15.219  0.00  0.00    +0.000 A 
ATOM     11  C   UNL     1       4.492   4.269  16.351  0.00  0.00    +0.000 A 
ATOM     12  C   UNL     1       4.825   4.988  17.509  0.00  0.00    +0.000 A 
ATOM     13  C   UNL     1       6.049   5.668  17.533  0.00  0.00    +0.000 A 
ATOM     14  C   UNL     1       6.895   5.657  16.412  0.00  0.00    +0.000 A 
ENDBRANCH   1  12
BRANCH   5  15
ATOM     15  C   UNL     1       1.929   3.632  21.351  0.00  0.00    +0.000 C 
ATOM     16  O   UNL     1       2.400   3.413  22.462  0.00  0.00    +0.000 OA
BRANCH  15  17
ATOM     17  O   UNL     1       0.721   3.135  20.974  0.00  0.00    +0.000 OA
ATOM     18  H   UNL     1       0.260   2.756  21.746  0.00  0.00    +0.000 HD
ENDBRANCH  15  17
ENDBRANCH   5  15
BRANCH   4  19
ATOM     19  C   UNL     1       1.084   6.657  20.559  0.00  0.00    +0.000 C 
BRANCH  19  20
ATOM     20  N   UNL     1       1.652   7.922  21.010  0.00  0.00    +0.000 NA
ATOM     21  H   UNL     1       2.345   8.244  20.342  0.00  0.00    +0.000 HD
BRANCH  20  22
ATOM     22  C   UNL     1       0.664   8.988  21.246  0.00  0.00    +0.000 C 
BRANCH  22  23
ATOM     23  C   UNL     1       0.836  10.103  20.177  0.00  0.00    +0.000 C 
ATOM     24  C   UNL     1       1.306  11.427  20.799  0.00  0.00    +0.000 C 
BRANCH  23  25
ATOM     25  C   UNL     1      -0.385  10.335  19.299  0.00  0.00    +0.000 A 
ATOM     26  C   UNL     1      -1.412  11.218  19.653  0.00  0.00    +0.000 A 
ATOM     27  C   UNL     1      -2.479  11.467  18.778  0.00  0.00    +0.000 A 
ATOM     28  C   UNL     1      -2.538  10.838  17.537  0.00  0.00    +0.000 A 
ATOM     29  C   UNL     1      -1.522   9.960  17.168  0.00  0.00    +0.000 A 
ATOM     30  C   UNL     1      -0.462   9.707  18.045  0.00  0.00    +0.000 A 
ENDBRANCH  23  25
ENDBRANCH  22  23
ENDBRANCH  20  22
ENDBRANCH  19  20
ENDBRANCH   4  19
TORSDOF 8
ENDMDL
MODEL 3
REMARK VINA RESULT:      -8.0      1.310      2.184
REMARK  Name = 
REMARK  12 active torsions:
REMARK  status: ('A' for Active; 'I' for Inactive)
REMARK    1  A    between atoms: C_1  and  C_2
REMARK    2  A    between atoms: C_5  and  N_6
REMARK    3  A    between atoms: C_7  and  C_8
REMARK    4  A    between atoms: C_9  and  C_10
REMARK    5  A    between atoms: C_10  and  N_11
REMARK    6  A    between atoms: N_11  and  C_12
REMARK    7  A    between atoms: C_12  and  C_13
REMARK    8  A    between atoms: C_13  and  C_14
REMARK    9  A    between atoms: C_13  and  C_15
REMARK   10  A    between atoms: C_21  and  C_22
REMARK   11  A    between atoms: C_22  and  O_24
REMARK   12  A    between atoms: C_25  and  C_26
REMARK                            x       y       z     vdW  Elec       q    Type
REMARK                         _______ _______ _______ _____ _____    ______ ____
ROOT
ATOM      1  N   UNL     1       3.739   5.271  18.603  0.00  0.00    +0.000 N 
ATOM      2  C   UNL     1       2.865   6.293  18.997  0.00  0.00    +0.000 A 
ATOM      3  C   UNL     1       2.787   7.647  18.359  0.00  0.00    +0.000 C 
ATOM      4  C   UNL     1       2.113   5.865  20.094  0.00  0.00    +0.000 A 
ATOM      5  C   UNL     1       2.518   4.519  20.365  0.00  0.00    +0.000 A 
ATOM      6  C   UNL     1       3.557   4.201  19.491  0.00  0.00    +0.000 A 
ATOM      7  C   UNL     1       4.240   2.871  19.353  0.00  0.00    +0.000 C 
ENDROOT
BRANCH   1  12
ATOM      8  C   UNL     1       7.449   4.798  14.208  0.00  0.00    +0.000 C 
ATOM      9  C   UNL     1       6.451   4.996  15.311  0.00  0.00    +0.000 A 
ATOM     10  C   UNL     1       6.755   5.788  16.419  0.00  0.00    +0.000 A 
ATOM     11  C   UNL     1       5.832   5.935  17.462  0.00  0.00    +0.000 A 
ATOM     12  C   UNL     1       4.607   5.251  17.450  0.00  0.00    +0.000 A 
ATOM     13  C   UNL     1       4.293   4.482  16.322  0.00  0.00    +0.000 A 
ATOM     14  C   UNL     1       5.200   4.373  15.256  0.00  0.00    +0.000 A 
ENDBRANCH   1  12
BRANCH   5  15
ATOM     15  C   UNL     1       1.934   3.601  21.339  0.00  0.00    +0.000 C 
ATOM     16  O   UNL     1       2.423   3.368  22.439  0.00  0.00    +0.000 OA
BRANCH  15  17
ATOM     17  O   UNL     1       0.757   3.047  20.947  0.00  0.00    +0.000 OA
ATOM     18  H   UNL     1       0.369   2.532  21.679  0.00  0.00    +0.000 HD
ENDBRANCH  15  17
ENDBRANCH   5  15
BRANCH   4  19
ATOM     19  C   UNL     1       1.050   6.674  20.827  0.00  0.00    +0.000 C 
BRANCH  19  20
ATOM     20  N   UNL     1       1.539   8.030  21.045  0.00  0.00    +0.000 NA
ATOM     21  H   UNL     1       2.163   8.295  20.289  0.00  0.00    +0.000 HD
BRANCH  20  22
ATOM     22  C   UNL     1       0.483   9.047  21.189  0.00  0.00    +0.000 C 
BRANCH  22  23
ATOM     23  C   UNL     1       0.735  10.205  20.184  0.00  0.00    +0.000 C 
ATOM     24  C   UNL     1       1.130  11.508  20.897  0.00  0.00    +0.000 C 
BRANCH  23  25
ATOM     25  C   UNL     1      -0.406  10.461  19.211  0.00  0.00    +0.000 A 
ATOM     26  C   UNL     1      -0.563   9.735  18.025  0.00  0.00    +0.000 A 
ATOM     27  C   UNL     1      -1.676   9.943  17.196  0.00  0.00    +0.000 A 
ATOM     28  C   UNL     1      -2.647  10.881  17.539  0.00  0.00    +0.000 A 
ATOM     29  C   UNL     1      -2.507  11.609  18.717  0.00  0.00    +0.000 A 
ATOM     30  C   UNL     1      -1.393  11.404  19.539  0.00  0.00    +0.000 A 
ENDBRANCH  23  25
ENDBRANCH  22  23
ENDBRANCH  20  22
ENDBRANCH  19  20
ENDBRANCH   4  19
TORSDOF 8
ENDMDL
MODEL 4
REMARK VINA RESULT:      -7.9      0.565      1.234
REMARK  Name = 
REMARK  12 active torsions:
REMARK  status: ('A' for Active; 'I' for Inactive)
REMARK    1  A    between atoms: C_1  and  C_2
REMARK    2  A    between atoms: C_5  and  N_6
REMARK    3  A    between atoms: C_7  and  C_8
REMARK    4  A    between atoms: C_9  and  C_10
REMARK    5  A    between atoms: C_10  and  N_11
REMARK    6  A    between atoms: N_11  and  C_12
REMARK    7  A    between atoms: C_12  and  C_13
REMARK    8  A    between atoms: C_13  and  C_14
REMARK    9  A    between atoms: C_13  and  C_15
REMARK   10  A    between atoms: C_21  and  C_22
REMARK   11  A    between atoms: C_22  and  O_24
REMARK   12  A    between atoms: C_25  and  C_26
REMARK                            x       y       z     vdW  Elec       q    Type
REMARK                         _______ _______ _______ _____ _____    ______ ____
ROOT
ATOM      1  N   UNL     1       3.917   5.023  18.633  0.00  0.00    +0.000 N 
ATOM      2  C   UNL     1       3.035   6.075  18.911  0.00  0.00    +0.000 A 
ATOM      3  C   UNL     1       3.005   7.384  18.181  0.00  0.00    +0.000 C 
ATOM      4  C   UNL     1       2.219   5.726  19.990  0.00  0.00    +0.000 A 
ATOM      5  C   UNL     1       2.595   4.398  20.371  0.00  0.00    +0.000 A 
ATOM      6  C   UNL     1       3.676   4.015  19.578  0.00  0.00    +0.000 A 
ATOM      7  C   UNL     1       4.352   2.675  19.566  0.00  0.00    +0.000 C 
ENDROOT
BRANCH   1  12
ATOM      8  C   UNL     1       7.402   5.016  14.033  0.00  0.00    +0.000 C 
ATOM      9  C   UNL     1       6.536   4.940  15.256  0.00  0.00    +0.000 A 
ATOM     10  C   UNL     1       5.325   4.246  15.235  0.00  0.00    +0.000 A 
ATOM     11  C   UNL     1       4.506   4.214  16.370  0.00  0.00    +0.000 A 
ATOM     12  C   UNL     1       4.847   4.920  17.533  0.00  0.00    +0.000 A 
ATOM     13  C   UNL     1       6.076   5.590  17.560  0.00  0.00    +0.000 A 
ATOM     14  C   UNL     1       6.919   5.582  16.438  0.00  0.00    +0.000 A 
ENDBRANCH   1  12
BRANCH   5  15
ATOM     15  C   UNL     1       1.950   3.550  21.369  0.00  0.00    +0.000 C 
ATOM     16  O   UNL     1       2.424   3.311  22.475  0.00  0.00    +0.000 OA
BRANCH  15  17
ATOM     17  O   UNL     1       0.733   3.073  20.995  0.00  0.00    +0.000 OA
ATOM     18  H   UNL     1       0.717   2.101  21.072  0.00  0.00    +0.000 HD
ENDBRANCH  15  17
ENDBRANCH   5  15
BRANCH   4  19
ATOM     19  C   UNL     1       1.127   6.589  20.609  0.00  0.00    +0.000 C 
BRANCH  19  20
ATOM     20  N   UNL     1       1.696   7.865  21.025  0.00  0.00    +0.000 NA
ATOM     21  H   UNL     1       2.660   7.929  20.713  0.00  0.00    +0.000 HD
BRANCH  20  22
ATOM     22  C   UNL     1       0.951   9.048  20.564  0.00  0.00    +0.000 C 
BRANCH  22  23
ATOM     23  C   UNL     1       0.668   9.987  21.770  0.00  0.00    +0.000 C 
ATOM     24  C   UNL     1       0.542   9.207  23.088  0.00  0.00    +0.000 C 
BRANCH  23  25
ATOM     25  C   UNL     1      -0.526  10.913  21.587  0.00  0.00    +0.000 A 
ATOM     26  C   UNL     1      -1.202  11.495  22.665  0.00  0.00    +0.000 A 
ATOM     27  C   UNL     1      -2.244  12.409  22.452  0.00  0.00    +0.000 A 
ATOM     28  C   UNL     1      -2.629  12.754  21.159  0.00  0.00    +0.000 A 
ATOM     29  C   UNL     1      -1.965  12.185  20.075  0.00  0.00    +0.000 A 
ATOM     30  C   UNL     1      -0.930  11.269  20.290  0.00  0.00    +0.000 A 
ENDBRANCH  23  25
ENDBRANCH  22  23
ENDBRANCH  20  22
ENDBRANCH  19  20
ENDBRANCH   4  19
TORSDOF 8
ENDMDL
MODEL 5
REMARK VINA RESULT:      -7.9      2.402      9.117
REMARK  Name = 
REMARK  12 active torsions:
REMARK  status: ('A' for Active; 'I' for Inactive)
REMARK    1  A    between atoms: C_1  and  C_2
REMARK    2  A    between atoms: C_5  and  N_6
REMARK    3  A    between atoms: C_7  and  C_8
REMARK    4  A    between atoms: C_9  and  C_10
REMARK    5  A    between atoms: C_10  and  N_11
REMARK    6  A    between atoms: N_11  and  C_12
REMARK    7  A    between atoms: C_12  and  C_13
REMARK    8  A    between atoms: C_13  and  C_14
REMARK    9  A    between atoms: C_13  and  C_15
REMARK   10  A    between atoms: C_21  and  C_22
REMARK   11  A    between atoms: C_22  and  O_24
REMARK   12  A    between atoms: C_25  and  C_26
REMARK                            x       y       z     vdW  Elec       q    Type
REMARK                         _______ _______ _______ _____ _____    ______ ____
ROOT
ATOM      1  N   UNL     1       3.201   6.033  18.418  0.00  0.00    +0.000 N 
ATOM      2  C   UNL     1       4.468   6.039  17.819  0.00  0.00    +0.000 A 
ATOM      3  C   UNL     1       5.159   7.259  17.288  0.00  0.00    +0.000 C 
ATOM      4  C   UNL     1       4.963   4.733  17.763  0.00  0.00    +0.000 A 
ATOM      5  C   UNL     1       3.975   3.898  18.377  0.00  0.00    +0.000 A 
ATOM      6  C   UNL     1       2.882   4.698  18.706  0.00  0.00    +0.000 A 
ATOM      7  C   UNL     1       1.645   4.271  19.441  0.00  0.00    +0.000 C 
ENDROOT
BRANCH   1  12
ATOM      8  C   UNL     1       0.390  10.841  19.928  0.00  0.00    +0.000 C 
ATOM      9  C   UNL     1       1.040   9.549  19.530  0.00  0.00    +0.000 A 
ATOM     10  C   UNL     1       1.400   8.601  20.489  0.00  0.00    +0.000 A 
ATOM     11  C   UNL     1       2.042   7.416  20.111  0.00  0.00    +0.000 A 
ATOM     12  C   UNL     1       2.390   7.173  18.774  0.00  0.00    +0.000 A 
ATOM     13  C   UNL     1       1.999   8.111  17.810  0.00  0.00    +0.000 A 
ATOM     14  C   UNL     1       1.314   9.278  18.185  0.00  0.00    +0.000 A 
ENDBRANCH   1  12
BRANCH   5  15
ATOM     15  C   UNL     1       4.085   2.471  18.669  0.00  0.00    +0.000 C 
ATOM     16  O   UNL     1       3.491   1.598  18.045  0.00  0.00    +0.000 OA
BRANCH  15  17
ATOM     17  O   UNL     1       4.949   2.171  19.674  0.00  0.00    +0.000 OA
ATOM     18  H   UNL     1       4.849   2.811  20.403  0.00  0.00    +0.000 HD
ENDBRANCH  15  17
ENDBRANCH   5  15
BRANCH   4  19
ATOM     19  C   UNL     1       6.305   4.304  17.186  0.00  0.00    +0.000 C 
BRANCH  19  20
ATOM     20  N   UNL     1       6.119   3.850  15.813  0.00  0.00    +0.000 NA
ATOM     21  H   UNL     1       5.198   3.437  15.711  0.00  0.00    +0.000 HD
BRANCH  20  22
ATOM     22  C   UNL     1       6.307   4.894  14.792  0.00  0.00    +0.000 C 
BRANCH  22  23
ATOM     23  C   UNL     1       7.117   4.314  13.598  0.00  0.00    +0.000 C 
ATOM     24  C   UNL     1       7.950   5.394  12.892  0.00  0.00    +0.000 C 
BRANCH  23  25
ATOM     25  C   UNL     1       6.287   3.539  12.585  0.00  0.00    +0.000 A 
ATOM     26  C   UNL     1       6.764   2.395  11.935  0.00  0.00    +0.000 A 
ATOM     27  C   UNL     1       5.938   1.661  11.071  0.00  0.00    +0.000 A 
ATOM     28  C   UNL     1       4.624   2.059  10.843  0.00  0.00    +0.000 A 
ATOM     29  C   UNL     1       4.133   3.193  11.484  0.00  0.00    +0.000 A 
ATOM     30  C   UNL     1       4.960   3.928  12.340  0.00  0.00    +0.000 A 
ENDBRANCH  23  25
ENDBRANCH  22  23
ENDBRANCH  20  22
ENDBRANCH  19  20
ENDBRANCH   4  19
TORSDOF 8
ENDMDL
MODEL 6
REMARK VINA RESULT:      -7.8      0.659      1.328
REMARK  Name = 
REMARK  12 active torsions:
REMARK  status: ('A' for Active; 'I' for Inactive)
REMARK    1  A    between atoms: C_1  and  C_2
REMARK    2  A    between atoms: C_5  and  N_6
REMARK    3  A    between atoms: C_7  and  C_8
REMARK    4  A    between atoms: C_9  and  C_10
REMARK    5  A    between atoms: C_10  and  N_11
REMARK    6  A    between atoms: N_11  and  C_12
REMARK    7  A    between atoms: C_12  and  C_13
REMARK    8  A    between atoms: C_13  and  C_14
REMARK    9  A    between atoms: C_13  and  C_15
REMARK   10  A    between atoms: C_21  and  C_22
REMARK   11  A    between atoms: C_22  and  O_24
REMARK   12  A    between atoms: C_25  and  C_26
REMARK                            x       y       z     vdW  Elec       q    Type
REMARK                         _______ _______ _______ _____ _____    ______ ____
ROOT
ATOM      1  N   UNL     1       3.744   5.272  18.612  0.00  0.00    +0.000 N 
ATOM      2  C   UNL     1       2.844   6.281  18.981  0.00  0.00    +0.000 A 
ATOM      3  C   UNL     1       2.747   7.625  18.325  0.00  0.00    +0.000 C 
ATOM      4  C   UNL     1       2.085   5.851  20.072  0.00  0.00    +0.000 A 
ATOM      5  C   UNL     1       2.514   4.517  20.365  0.00  0.00    +0.000 A 
ATOM      6  C   UNL     1       3.572   4.210  19.510  0.00  0.00    +0.000 A 
ATOM      7  C   UNL     1       4.284   2.893  19.398  0.00  0.00    +0.000 C 
ENDROOT
BRANCH   1  12
ATOM      8  C   UNL     1       7.518   4.817  14.269  0.00  0.00    +0.000 C 
ATOM      9  C   UNL     1       6.504   5.010  15.358  0.00  0.00    +0.000 A 
ATOM     10  C   UNL     1       6.789   5.803  16.471  0.00  0.00    +0.000 A 
ATOM     11  C   UNL     1       5.850   5.945  17.500  0.00  0.00    +0.000 A 
ATOM     12  C   UNL     1       4.629   5.256  17.471  0.00  0.00    +0.000 A 
ATOM     13  C   UNL     1       4.334   4.487  16.338  0.00  0.00    +0.000 A 
ATOM     14  C   UNL     1       5.256   4.382  15.285  0.00  0.00    +0.000 A 
ENDBRANCH   1  12
BRANCH   5  15
ATOM     15  C   UNL     1       1.936   3.598  21.342  0.00  0.00    +0.000 C 
ATOM     16  O   UNL     1       2.452   3.334  22.423  0.00  0.00    +0.000 OA
BRANCH  15  17
ATOM     17  O   UNL     1       0.732   3.083  20.979  0.00  0.00    +0.000 OA
ATOM     18  H   UNL     1       0.759   2.794  20.048  0.00  0.00    +0.000 HD
ENDBRANCH  15  17
ENDBRANCH   5  15
BRANCH   4  19
ATOM     19  C   UNL     1       0.996   6.646  20.781  0.00  0.00    +0.000 C 
BRANCH  19  20
ATOM     20  N   UNL     1       1.554   7.901  21.270  0.00  0.00    +0.000 NA
ATOM     21  H   UNL     1       2.538   7.957  21.027  0.00  0.00    +0.000 HD
BRANCH  20  22
ATOM     22  C   UNL     1       0.860   9.108  20.790  0.00  0.00    +0.000 C 
BRANCH  22  23
ATOM     23  C   UNL     1       0.538  10.036  21.996  0.00  0.00    +0.000 C 
ATOM     24  C   UNL     1       0.233   9.235  23.271  0.00  0.00    +0.000 C 
BRANCH  23  25
ATOM     25  C   UNL     1      -0.562  11.055  21.736  0.00  0.00    +0.000 A 
ATOM     26  C   UNL     1      -0.988  11.394  20.446  0.00  0.00    +0.000 A 
ATOM     27  C   UNL     1      -2.062  12.275  20.251  0.00  0.00    +0.000 A 
ATOM     28  C   UNL     1      -2.726  12.831  21.342  0.00  0.00    +0.000 A 
ATOM     29  C   UNL     1      -2.317  12.501  22.631  0.00  0.00    +0.000 A 
ATOM     30  C   UNL     1      -1.242  11.628  22.823  0.00  0.00    +0.000 A 
ENDBRANCH  23  25
ENDBRANCH  22  23
ENDBRANCH  20  22
ENDBRANCH  19  20
ENDBRANCH   4  19
TORSDOF 8
ENDMDL
MODEL 7
REMARK VINA RESULT:      -7.7      0.934      1.843
REMARK  Name = 
REMARK  12 active torsions:
REMARK  status: ('A' for Active; 'I' for Inactive)
REMARK    1  A    between atoms: C_1  and  C_2
REMARK    2  A    between atoms: C_5  and  N_6
REMARK    3  A    between atoms: C_7  and  C_8
REMARK    4  A    between atoms: C_9  and  C_10
REMARK    5  A    between atoms: C_10  and  N_11
REMARK    6  A    between atoms: N_11  and  C_12
REMARK    7  A    between atoms: C_12  and  C_13
REMARK    8  A    between atoms: C_13  and  C_14
REMARK    9  A    between atoms: C_13  and  C_15
REMARK   10  A    between atoms: C_21  and  C_22
REMARK   11  A    between atoms: C_22  and  O_24
REMARK   12  A    between atoms: C_25  and  C_26
REMARK                            x       y       z     vdW  Elec       q    Type
REMARK                         _______ _______ _______ _____ _____    ______ ____
ROOT
ATOM      1  N   UNL     1       3.743   5.330  18.551  0.00  0.00    +0.000 N 
ATOM      2  C   UNL     1       2.824   6.332  18.888  0.00  0.00    +0.000 A 
ATOM      3  C   UNL     1       2.712   7.659  18.200  0.00  0.00    +0.000 C 
ATOM      4  C   UNL     1       2.062   5.916  19.983  0.00  0.00    +0.000 A 
ATOM      5  C   UNL     1       2.510   4.596  20.311  0.00  0.00    +0.000 A 
ATOM      6  C   UNL     1       3.580   4.286  19.473  0.00  0.00    +0.000 A 
ATOM      7  C   UNL     1       4.314   2.979  19.398  0.00  0.00    +0.000 C 
ENDROOT
BRANCH   1  12
ATOM      8  C   UNL     1       7.554   4.823  14.246  0.00  0.00    +0.000 C 
ATOM      9  C   UNL     1       6.531   5.030  15.324  0.00  0.00    +0.000 A 
ATOM     10  C   UNL     1       6.812   5.825  16.436  0.00  0.00    +0.000 A 
ATOM     11  C   UNL     1       5.865   5.980  17.456  0.00  0.00    +0.000 A 
ATOM     12  C   UNL     1       4.638   5.301  17.418  0.00  0.00    +0.000 A 
ATOM     13  C   UNL     1       4.348   4.529  16.287  0.00  0.00    +0.000 A 
ATOM     14  C   UNL     1       5.279   4.411  15.243  0.00  0.00    +0.000 A 
ENDBRANCH   1  12
BRANCH   5  15
ATOM     15  C   UNL     1       1.937   3.692  21.304  0.00  0.00    +0.000 C 
ATOM     16  O   UNL     1       2.449   3.460  22.395  0.00  0.00    +0.000 OA
BRANCH  15  17
ATOM     17  O   UNL     1       0.744   3.151  20.944  0.00  0.00    +0.000 OA
ATOM     18  H   UNL     1       0.685   2.230  21.261  0.00  0.00    +0.000 HD
ENDBRANCH  15  17
ENDBRANCH   5  15
BRANCH   4  19
ATOM     19  C   UNL     1       0.955   6.710  20.663  0.00  0.00    +0.000 C 
BRANCH  19  20
ATOM     20  N   UNL     1       1.545   7.675  21.582  0.00  0.00    +0.000 NA
ATOM     21  H   UNL     1       2.455   7.345  21.889  0.00  0.00    +0.000 HD
BRANCH  20  22
ATOM     22  C   UNL     1       1.675   9.038  21.040  0.00  0.00    +0.000 C 
BRANCH  22  23
ATOM     23  C   UNL     1       0.609   9.962  21.694  0.00  0.00    +0.000 C 
ATOM     24  C   UNL     1      -0.116   9.267  22.857  0.00  0.00    +0.000 C 
BRANCH  23  25
ATOM     25  C   UNL     1      -0.400  10.555  20.721  0.00  0.00    +0.000 A 
ATOM     26  C   UNL     1      -1.215  11.643  21.049  0.00  0.00    +0.000 A 
ATOM     27  C   UNL     1      -2.072  12.214  20.096  0.00  0.00    +0.000 A 
ATOM     28  C   UNL     1      -2.128  11.704  18.802  0.00  0.00    +0.000 A 
ATOM     29  C   UNL     1      -1.322  10.623  18.458  0.00  0.00    +0.000 A 
ATOM     30  C   UNL     1      -0.473  10.051  19.412  0.00  0.00    +0.000 A 
ENDBRANCH  23  25
ENDBRANCH  22  23
ENDBRANCH  20  22
ENDBRANCH  19  20
ENDBRANCH   4  19
TORSDOF 8
ENDMDL
MODEL 8
REMARK VINA RESULT:      -7.7      1.057      2.014
REMARK  Name = 
REMARK  12 active torsions:
REMARK  status: ('A' for Active; 'I' for Inactive)
REMARK    1  A    between atoms: C_1  and  C_2
REMARK    2  A    between atoms: C_5  and  N_6
REMARK    3  A    between atoms: C_7  and  C_8
REMARK    4  A    between atoms: C_9  and  C_10
REMARK    5  A    between atoms: C_10  and  N_11
REMARK    6  A    between atoms: N_11  and  C_12
REMARK    7  A    between atoms: C_12  and  C_13
REMARK    8  A    between atoms: C_13  and  C_14
REMARK    9  A    between atoms: C_13  and  C_15
REMARK   10  A    between atoms: C_21  and  C_22
REMARK   11  A    between atoms: C_22  and  O_24
REMARK   12  A    between atoms: C_25  and  C_26
REMARK                            x       y       z     vdW  Elec       q    Type
REMARK                         _______ _______ _______ _____ _____    ______ ____
ROOT
ATOM      1  N   UNL     1       3.949   4.994  18.594  0.00  0.00    +0.000 N 
ATOM      2  C   UNL     1       3.075   6.058  18.857  0.00  0.00    +0.000 A 
ATOM      3  C   UNL     1       3.071   7.365  18.123  0.00  0.00    +0.000 C 
ATOM      4  C   UNL     1       2.242   5.722  19.927  0.00  0.00    +0.000 A 
ATOM      5  C   UNL     1       2.598   4.391  20.316  0.00  0.00    +0.000 A 
ATOM      6  C   UNL     1       3.684   3.993  19.539  0.00  0.00    +0.000 A 
ATOM      7  C   UNL     1       4.344   2.644  19.539  0.00  0.00    +0.000 C 
ENDROOT
BRANCH   1  12
ATOM      8  C   UNL     1       7.513   4.951  14.055  0.00  0.00    +0.000 C 
ATOM      9  C   UNL     1       6.621   4.881  15.259  0.00  0.00    +0.000 A 
ATOM     10  C   UNL     1       5.372   4.262  15.192  0.00  0.00    +0.000 A 
ATOM     11  C   UNL     1       4.531   4.237  16.311  0.00  0.00    +0.000 A 
ATOM     12  C   UNL     1       4.891   4.877  17.506  0.00  0.00    +0.000 A 
ATOM     13  C   UNL     1       6.158   5.471  17.579  0.00  0.00    +0.000 A 
ATOM     14  C   UNL     1       7.020   5.455  16.471  0.00  0.00    +0.000 A 
ENDBRANCH   1  12
BRANCH   5  15
ATOM     15  C   UNL     1       1.929   3.554  21.309  0.00  0.00    +0.000 C 
ATOM     16  O   UNL     1       2.388   3.312  22.420  0.00  0.00    +0.000 OA
BRANCH  15  17
ATOM     17  O   UNL     1       0.712   3.091  20.920  0.00  0.00    +0.000 OA
ATOM     18  H   UNL     1       0.683   2.999  19.950  0.00  0.00    +0.000 HD
ENDBRANCH  15  17
ENDBRANCH   5  15
BRANCH   4  19
ATOM     19  C   UNL     1       1.153   6.600  20.529  0.00  0.00    +0.000 C 
BRANCH  19  20
ATOM     20  N   UNL     1       1.722   7.887  20.906  0.00  0.00    +0.000 NA
ATOM     21  H   UNL     1       2.030   8.383  20.075  0.00  0.00    +0.000 HD
BRANCH  20  22
ATOM     22  C   UNL     1       0.821   8.751  21.687  0.00  0.00    +0.000 C 
BRANCH  22  23
ATOM     23  C   UNL     1       0.760  10.162  21.038  0.00  0.00    +0.000 C 
ATOM     24  C   UNL     1       0.282  11.231  22.032  0.00  0.00    +0.000 C 
BRANCH  23  25
ATOM     25  C   UNL     1      -0.053  10.234  19.753  0.00  0.00    +0.000 A 
ATOM     26  C   UNL     1       0.338   9.587  18.576  0.00  0.00    +0.000 A 
ATOM     27  C   UNL     1      -0.481   9.608  17.437  0.00  0.00    +0.000 A 
ATOM     28  C   UNL     1      -1.701  10.278  17.457  0.00  0.00    +0.000 A 
ATOM     29  C   UNL     1      -2.106  10.925  18.621  0.00  0.00    +0.000 A 
ATOM     30  C   UNL     1      -1.285  10.908  19.754  0.00  0.00    +0.000 A 
ENDBRANCH  23  25
ENDBRANCH  22  23
ENDBRANCH  20  22
ENDBRANCH  19  20
ENDBRANCH   4  19
TORSDOF 8
ENDMDL
MODEL 9
REMARK VINA RESULT:      -7.7      0.626      1.094
REMARK  Name = 
REMARK  12 active torsions:
REMARK  status: ('A' for Active; 'I' for Inactive)
REMARK    1  A    between atoms: C_1  and  C_2
REMARK    2  A    between atoms: C_5  and  N_6
REMARK    3  A    between atoms: C_7  and  C_8
REMARK    4  A    between atoms: C_9  and  C_10
REMARK    5  A    between atoms: C_10  and  N_11
REMARK    6  A    between atoms: N_11  and  C_12
REMARK    7  A    between atoms: C_12  and  C_13
REMARK    8  A    between atoms: C_13  and  C_14
REMARK    9  A    between atoms: C_13  and  C_15
REMARK   10  A    between atoms: C_21  and  C_22
REMARK   11  A    between atoms: C_22  and  O_24
REMARK   12  A    between atoms: C_25  and  C_26
REMARK                            x       y       z     vdW  Elec       q    Type
REMARK                         _______ _______ _______ _____ _____    ______ ____
ROOT
ATOM      1  N   UNL     1       3.749   5.250  18.572  0.00  0.00    +0.000 N 
ATOM      2  C   UNL     1       2.887   6.278  18.978  0.00  0.00    +0.000 A 
ATOM      3  C   UNL     1       2.825   7.640  18.355  0.00  0.00    +0.000 C 
ATOM      4  C   UNL     1       2.129   5.846  20.070  0.00  0.00    +0.000 A 
ATOM      5  C   UNL     1       2.519   4.493  20.325  0.00  0.00    +0.000 A 
ATOM      6  C   UNL     1       3.554   4.172  19.448  0.00  0.00    +0.000 A 
ATOM      7  C   UNL     1       4.222   2.837  19.295  0.00  0.00    +0.000 C 
ENDROOT
BRANCH   1  12
ATOM      8  C   UNL     1       7.454   4.785  14.172  0.00  0.00    +0.000 C 
ATOM      9  C   UNL     1       6.458   4.982  15.277  0.00  0.00    +0.000 A 
ATOM     10  C   UNL     1       6.770   5.758  16.394  0.00  0.00    +0.000 A 
ATOM     11  C   UNL     1       5.849   5.903  17.438  0.00  0.00    +0.000 A 
ATOM     12  C   UNL     1       4.617   5.233  17.419  0.00  0.00    +0.000 A 
ATOM     13  C   UNL     1       4.294   4.480  16.282  0.00  0.00    +0.000 A 
ATOM     14  C   UNL     1       5.200   4.373  15.215  0.00  0.00    +0.000 A 
ENDBRANCH   1  12
BRANCH   5  15
ATOM     15  C   UNL     1       1.925   3.570  21.288  0.00  0.00    +0.000 C 
ATOM     16  O   UNL     1       2.440   3.275  22.362  0.00  0.00    +0.000 OA
BRANCH  15  17
ATOM     17  O   UNL     1       0.708   3.088  20.922  0.00  0.00    +0.000 OA
ATOM     18  H   UNL     1       0.087   3.825  20.772  0.00  0.00    +0.000 HD
ENDBRANCH  15  17
ENDBRANCH   5  15
BRANCH   4  19
ATOM     19  C   UNL     1       1.077   6.659  20.812  0.00  0.00    +0.000 C 
BRANCH  19  20
ATOM     20  N   UNL     1       1.627   7.963  21.158  0.00  0.00    +0.000 NA
ATOM     21  H   UNL     1       1.883   8.463  20.313  0.00  0.00    +0.000 HD
BRANCH  20  22
ATOM     22  C   UNL     1       0.740   8.806  21.978  0.00  0.00    +0.000 C 
BRANCH  22  23
ATOM     23  C   UNL     1       0.044   9.862  21.074  0.00  0.00    +0.000 C 
ATOM     24  C   UNL     1       0.871  10.176  19.818  0.00  0.00    +0.000 C 
BRANCH  23  25
ATOM     25  C   UNL     1      -0.345  11.149  21.786  0.00  0.00    +0.000 A 
ATOM     26  C   UNL     1       0.143  12.402  21.401  0.00  0.00    +0.000 A 
ATOM     27  C   UNL     1      -0.306  13.574  22.029  0.00  0.00    +0.000 A 
ATOM     28  C   UNL     1      -1.248  13.510  23.053  0.00  0.00    +0.000 A 
ATOM     29  C   UNL     1      -1.745  12.270  23.446  0.00  0.00    +0.000 A 
ATOM     30  C   UNL     1      -1.292  11.103  22.823  0.00  0.00    +0.000 A 
ENDBRANCH  23  25
ENDBRANCH  22  23
ENDBRANCH  20  22
ENDBRANCH  19  20
ENDBRANCH   4  19
TORSDOF 8
ENDMDL
