MODEL 1
REMARK VINA RESULT:      -8.2      0.000      0.000
REMARK  Name = 
REMARK  6 active torsions:
REMARK  status: ('A' for Active; 'I' for Inactive)
REMARK    1  A    between atoms: C_1  and  C_2
REMARK    2  A    between atoms: N_4  and  C_5
REMARK    3  A    between atoms: C_5  and  C_6
REMARK    4  A    between atoms: N_18  and  C_19
REMARK    5  A    between atoms: C_19  and  C_20
REMARK    6  A    between atoms: N_25  and  C_26
REMARK                            x       y       z     vdW  Elec       q    Type
REMARK                         _______ _______ _______ _____ _____    ______ ____
ROOT
ATOM      1  C   UNL     1      -0.141   9.139  22.420  0.00  0.00    +0.000 C 
ATOM      2  C   UNL     1       0.895   9.045  21.302  0.00  0.00    +0.000 C 
ATOM      3  C   UNL     1       0.408   9.731  20.019  0.00  0.00    +0.000 C 
ATOM      4  N   UNL     1       1.434   9.631  18.990  0.00  0.00    +0.000 N 
ATOM      5  C   UNL     1       2.110   8.466  18.819  0.00  0.00    +0.000 A 
ATOM      6  N   UNL     1       2.946   8.106  17.866  0.00  0.00    +0.000 NA
ATOM      7  C   UNL     1       3.352   6.847  18.211  0.00  0.00    +0.000 A 
ATOM      8  C   UNL     1       2.799   6.425  19.378  0.00  0.00    +0.000 A 
ATOM      9  C   UNL     1       3.059   5.148  19.952  0.00  0.00    +0.000 A 
ATOM     10  O   UNL     1       2.516   4.750  20.975  0.00  0.00    +0.000 OA
ATOM     11  N   UNL     1       3.994   4.403  19.224  0.00  0.00    +0.000 N 
ATOM     12  C   UNL     1       4.646   4.839  18.054  0.00  0.00    +0.000 A 
ATOM     13  O   UNL     1       5.532   4.157  17.531  0.00  0.00    +0.000 OA
ATOM     14  N   UNL     1       4.240   6.061  17.514  0.00  0.00    +0.000 N 
ATOM     15  C   UNL     1       4.770   6.524  16.244  0.00  0.00    +0.000 C 
ATOM     16  N   UNL     1       2.008   7.466  19.770  0.00  0.00    +0.000 N 
ATOM     17  C   UNL     1       1.234   7.585  20.989  0.00  0.00    +0.000 C 
ENDROOT
BRANCH   4  18
ATOM     18  C   UNL     1       1.791  10.817  18.223  0.00  0.00    +0.000 C 
BRANCH  18  19
ATOM     19  C   UNL     1       1.299  12.116  18.823  0.00  0.00    +0.000 A 
ATOM     20  C   UNL     1       2.071  12.836  19.751  0.00  0.00    +0.000 A 
ATOM     21  C   UNL     1       1.662  14.100  20.182  0.00  0.00    +0.000 A 
ATOM     22  C   UNL     1       0.477  14.658  19.703  0.00  0.00    +0.000 A 
ATOM     23  C   UNL     1      -0.315  13.940  18.812  0.00  0.00    +0.000 A 
ATOM     24  C   UNL     1       0.089  12.671  18.382  0.00  0.00    +0.000 A 
ENDBRANCH  18  19
ENDBRANCH   4  18
BRANCH  11  25
ATOM     25  C   UNL     1       4.197   3.005  19.618  0.00  0.00    +0.000 C 
BRANCH  25  26
ATOM     26  C   UNL     1       3.357   1.911  18.947  0.00  0.00    +0.000 C 
ATOM     27  N   UNL     1       3.988   0.915  18.267  0.00  0.00    +0.000 N 
ATOM     28  O   UNL     1       2.133   1.909  19.018  0.00  0.00    +0.000 OA
ATOM     29  H   UNL     1       4.977   0.738  18.325  0.00  0.00    +0.000 HD
ATOM     30  H   UNL     1       3.390   0.197  17.878  0.00  0.00    +0.000 HD
ENDBRANCH  25  26
ENDBRANCH  11  25
TORSDOF 4
ENDMDL
MODEL 2
REMARK VINA RESULT:      -7.5      5.974      9.761
REMARK  Name = 
REMARK  6 active torsions:
REMARK  status: ('A' for Active; 'I' for Inactive)
REMARK    1  A    between atoms: C_1  and  C_2
REMARK    2  A    between atoms: N_4  and  C_5
REMARK    3  A    between atoms: C_5  and  C_6
REMARK    4  A    between atoms: N_18  and  C_19
REMARK    5  A    between atoms: C_19  and  C_20
REMARK    6  A    between atoms: N_25  and  C_26
REMARK                            x       y       z     vdW  Elec       q    Type
REMARK                         _______ _______ _______ _____ _____    ______ ____
ROOT
ATOM      1  C   UNL     1      -3.089  10.132  15.538  0.00  0.00    +0.000 C 
ATOM      2  C   UNL     1      -2.527  10.851  16.761  0.00  0.00    +0.000 C 
ATOM      3  C   UNL     1      -1.374  10.067  17.400  0.00  0.00    +0.000 C 
ATOM      4  N   UNL     1      -0.859  10.799  18.549  0.00  0.00    +0.000 N 
ATOM      5  C   UNL     1      -1.722  11.393  19.414  0.00  0.00    +0.000 A 
ATOM      6  N   UNL     1      -1.492  11.957  20.582  0.00  0.00    +0.000 NA
ATOM      7  C   UNL     1      -2.711  12.419  20.996  0.00  0.00    +0.000 A 
ATOM      8  C   UNL     1      -3.693  12.172  20.091  0.00  0.00    +0.000 A 
ATOM      9  C   UNL     1      -5.052  12.550  20.287  0.00  0.00    +0.000 A 
ATOM     10  O   UNL     1      -5.945  12.276  19.495  0.00  0.00    +0.000 OA
ATOM     11  N   UNL     1      -5.255  13.261  21.476  0.00  0.00    +0.000 N 
ATOM     12  C   UNL     1      -4.247  13.603  22.399  0.00  0.00    +0.000 A 
ATOM     13  O   UNL     1      -4.497  14.319  23.373  0.00  0.00    +0.000 OA
ATOM     14  N   UNL     1      -2.969  13.092  22.168  0.00  0.00    +0.000 N 
ATOM     15  C   UNL     1      -1.904  13.291  23.135  0.00  0.00    +0.000 C 
ATOM     16  N   UNL     1      -3.057  11.520  19.075  0.00  0.00    +0.000 N 
ATOM     17  C   UNL     1      -3.617  11.079  17.813  0.00  0.00    +0.000 C 
ENDROOT
BRANCH   4  18
ATOM     18  C   UNL     1       0.580  10.968  18.700  0.00  0.00    +0.000 C 
BRANCH  18  19
ATOM     19  C   UNL     1       1.341   9.673  18.876  0.00  0.00    +0.000 A 
ATOM     20  C   UNL     1       1.218   8.900  20.043  0.00  0.00    +0.000 A 
ATOM     21  C   UNL     1       1.817   7.640  20.124  0.00  0.00    +0.000 A 
ATOM     22  C   UNL     1       2.551   7.139  19.050  0.00  0.00    +0.000 A 
ATOM     23  C   UNL     1       2.712   7.911  17.902  0.00  0.00    +0.000 A 
ATOM     24  C   UNL     1       2.118   9.175  17.819  0.00  0.00    +0.000 A 
ENDBRANCH  18  19
ENDBRANCH   4  18
BRANCH  11  25
ATOM     25  C   UNL     1      -6.640  13.536  21.870  0.00  0.00    +0.000 C 
BRANCH  25  26
ATOM     26  C   UNL     1      -7.419  12.473  22.654  0.00  0.00    +0.000 C 
ATOM     27  N   UNL     1      -7.552  11.226  22.126  0.00  0.00    +0.000 N 
ATOM     28  O   UNL     1      -7.917  12.719  23.747  0.00  0.00    +0.000 OA
ATOM     29  H   UNL     1      -7.018  10.891  21.341  0.00  0.00    +0.000 HD
ATOM     30  H   UNL     1      -8.041  10.551  22.702  0.00  0.00    +0.000 HD
ENDBRANCH  25  26
ENDBRANCH  11  25
TORSDOF 4
ENDMDL
MODEL 3
REMARK VINA RESULT:      -7.4      5.814      9.784
REMARK  Name = 
REMARK  6 active torsions:
REMARK  status: ('A' for Active; 'I' for Inactive)
REMARK    1  A    between atoms: C_1  and  C_2
REMARK    2  A    between atoms: N_4  and  C_5
REMARK    3  A    between atoms: C_5  and  C_6
REMARK    4  A    between atoms: N_18  and  C_19
REMARK    5  A    between atoms: C_19  and  C_20
REMARK    6  A    between atoms: N_25  and  C_26
REMARK                            x       y       z     vdW  Elec       q    Type
REMARK                         _______ _______ _______ _____ _____    ______ ____
ROOT
ATOM      1  C   UNL     1      -3.131  10.304  15.567  0.00  0.00    +0.000 C 
ATOM      2  C   UNL     1      -2.431  10.960  16.753  0.00  0.00    +0.000 C 
ATOM      3  C   UNL     1      -1.364  10.041  17.362  0.00  0.00    +0.000 C 
ATOM      4  N   UNL     1      -0.713  10.716  18.476  0.00  0.00    +0.000 N 
ATOM      5  C   UNL     1      -1.455  11.430  19.362  0.00  0.00    +0.000 A 
ATOM      6  N   UNL     1      -1.106  11.976  20.510  0.00  0.00    +0.000 NA
ATOM      7  C   UNL     1      -2.237  12.598  20.962  0.00  0.00    +0.000 A 
ATOM      8  C   UNL     1      -3.279  12.469  20.100  0.00  0.00    +0.000 A 
ATOM      9  C   UNL     1      -4.568  13.024  20.341  0.00  0.00    +0.000 A 
ATOM     10  O   UNL     1      -5.520  12.858  19.589  0.00  0.00    +0.000 OA
ATOM     11  N   UNL     1      -4.629  13.772  21.523  0.00  0.00    +0.000 N 
ATOM     12  C   UNL     1      -3.548  13.992  22.399  0.00  0.00    +0.000 A 
ATOM     13  O   UNL     1      -3.663  14.748  23.368  0.00  0.00    +0.000 OA
ATOM     14  N   UNL     1      -2.357  13.316  22.129  0.00  0.00    +0.000 N 
ATOM     15  C   UNL     1      -1.237  13.388  23.050  0.00  0.00    +0.000 C 
ATOM     16  N   UNL     1      -2.775  11.725  19.072  0.00  0.00    +0.000 N 
ATOM     17  C   UNL     1      -3.438  11.344  17.842  0.00  0.00    +0.000 C 
ENDROOT
BRANCH   4  18
ATOM     18  C   UNL     1       0.741  10.698  18.569  0.00  0.00    +0.000 C 
BRANCH  18  19
ATOM     19  C   UNL     1       1.331   9.325  18.804  0.00  0.00    +0.000 A 
ATOM     20  C   UNL     1       2.113   8.684  17.830  0.00  0.00    +0.000 A 
ATOM     21  C   UNL     1       2.764   7.483  18.122  0.00  0.00    +0.000 A 
ATOM     22  C   UNL     1       2.638   6.903  19.384  0.00  0.00    +0.000 A 
ATOM     23  C   UNL     1       1.835   7.509  20.346  0.00  0.00    +0.000 A 
ATOM     24  C   UNL     1       1.178   8.709  20.055  0.00  0.00    +0.000 A 
ENDBRANCH  18  19
ENDBRANCH   4  18
BRANCH  11  25
ATOM     25  C   UNL     1      -5.948  14.231  21.964  0.00  0.00    +0.000 C 
BRANCH  25  26
ATOM     26  C   UNL     1      -6.791  13.324  22.870  0.00  0.00    +0.000 C 
ATOM     27  N   UNL     1      -7.072  12.057  22.462  0.00  0.00    +0.000 N 
ATOM     28  O   UNL     1      -7.208  13.712  23.956  0.00  0.00    +0.000 OA
ATOM     29  H   UNL     1      -6.613  11.604  21.690  0.00  0.00    +0.000 HD
ATOM     30  H   UNL     1      -7.597  11.487  23.115  0.00  0.00    +0.000 HD
ENDBRANCH  25  26
ENDBRANCH  11  25
TORSDOF 4
ENDMDL
MODEL 4
REMARK VINA RESULT:      -7.4      3.047      7.260
REMARK  Name = 
REMARK  6 active torsions:
REMARK  status: ('A' for Active; 'I' for Inactive)
REMARK    1  A    between atoms: C_1  and  C_2
REMARK    2  A    between atoms: N_4  and  C_5
REMARK    3  A    between atoms: C_5  and  C_6
REMARK    4  A    between atoms: N_18  and  C_19
REMARK    5  A    between atoms: C_19  and  C_20
REMARK    6  A    between atoms: N_25  and  C_26
REMARK                            x       y       z     vdW  Elec       q    Type
REMARK                         _______ _______ _______ _____ _____    ______ ____
ROOT
ATOM      1  C   UNL     1       1.524   3.268  21.273  0.00  0.00    +0.000 C 
ATOM      2  C   UNL     1       1.756   4.405  20.282  0.00  0.00    +0.000 C 
ATOM      3  C   UNL     1       3.240   4.554  19.926  0.00  0.00    +0.000 C 
ATOM      4  N   UNL     1       3.409   5.637  18.966  0.00  0.00    +0.000 N 
ATOM      5  C   UNL     1       2.719   6.795  19.126  0.00  0.00    +0.000 A 
ATOM      6  N   UNL     1       2.834   7.942  18.487  0.00  0.00    +0.000 NA
ATOM      7  C   UNL     1       1.871   8.747  19.030  0.00  0.00    +0.000 A 
ATOM      8  C   UNL     1       1.141   8.110  19.982  0.00  0.00    +0.000 A 
ATOM      9  C   UNL     1       0.080   8.730  20.701  0.00  0.00    +0.000 A 
ATOM     10  O   UNL     1      -0.539   8.171  21.598  0.00  0.00    +0.000 OA
ATOM     11  N   UNL     1      -0.175  10.040  20.276  0.00  0.00    +0.000 N 
ATOM     12  C   UNL     1       0.509  10.704  19.239  0.00  0.00    +0.000 A 
ATOM     13  O   UNL     1       0.153  11.824  18.861  0.00  0.00    +0.000 OA
ATOM     14  N   UNL     1       1.603  10.047  18.672  0.00  0.00    +0.000 N 
ATOM     15  C   UNL     1       2.438  10.711  17.687  0.00  0.00    +0.000 C 
ATOM     16  N   UNL     1       1.681   6.858  20.039  0.00  0.00    +0.000 N 
ATOM     17  C   UNL     1       1.242   5.735  20.841  0.00  0.00    +0.000 C 
ENDROOT
BRANCH   4  18
ATOM     18  C   UNL     1       4.243   5.423  17.790  0.00  0.00    +0.000 C 
BRANCH  18  19
ATOM     19  C   UNL     1       5.659   5.935  17.933  0.00  0.00    +0.000 A 
ATOM     20  C   UNL     1       6.131   7.015  17.169  0.00  0.00    +0.000 A 
ATOM     21  C   UNL     1       7.393   7.562  17.419  0.00  0.00    +0.000 A 
ATOM     22  C   UNL     1       8.201   7.035  18.425  0.00  0.00    +0.000 A 
ATOM     23  C   UNL     1       7.760   5.941  19.165  0.00  0.00    +0.000 A 
ATOM     24  C   UNL     1       6.499   5.388  18.914  0.00  0.00    +0.000 A 
ENDBRANCH  18  19
ENDBRANCH   4  18
BRANCH  11  25
ATOM     25  C   UNL     1      -1.117  10.836  21.069  0.00  0.00    +0.000 C 
BRANCH  25  26
ATOM     26  C   UNL     1      -0.750  11.211  22.510  0.00  0.00    +0.000 C 
ATOM     27  N   UNL     1      -1.092  10.368  23.522  0.00  0.00    +0.000 N 
ATOM     28  O   UNL     1      -0.148  12.248  22.768  0.00  0.00    +0.000 OA
ATOM     29  H   UNL     1      -1.407   9.423  23.380  0.00  0.00    +0.000 HD
ATOM     30  H   UNL     1      -0.791  10.644  24.449  0.00  0.00    +0.000 HD
ENDBRANCH  25  26
ENDBRANCH  11  25
TORSDOF 4
ENDMDL
MODEL 5
REMARK VINA RESULT:      -7.3      2.057      3.743
REMARK  Name = 
REMARK  6 active torsions:
REMARK  status: ('A' for Active; 'I' for Inactive)
REMARK    1  A    between atoms: C_1  and  C_2
REMARK    2  A    between atoms: N_4  and  C_5
REMARK    3  A    between atoms: C_5  and  C_6
REMARK    4  A    between atoms: N_18  and  C_19
REMARK    5  A    between atoms: C_19  and  C_20
REMARK    6  A    between atoms: N_25  and  C_26
REMARK                            x       y       z     vdW  Elec       q    Type
REMARK                         _______ _______ _______ _____ _____    ______ ____
ROOT
ATOM      1  C   UNL     1       2.010  11.271  17.680  0.00  0.00    +0.000 C 
ATOM      2  C   UNL     1       1.723   9.899  18.285  0.00  0.00    +0.000 C 
ATOM      3  C   UNL     1       1.593   9.969  19.811  0.00  0.00    +0.000 C 
ATOM      4  N   UNL     1       1.302   8.643  20.340  0.00  0.00    +0.000 N 
ATOM      5  C   UNL     1       1.960   7.560  19.851  0.00  0.00    +0.000 A 
ATOM      6  N   UNL     1       1.975   6.315  20.281  0.00  0.00    +0.000 NA
ATOM      7  C   UNL     1       2.773   5.646  19.395  0.00  0.00    +0.000 A 
ATOM      8  C   UNL     1       3.235   6.451  18.404  0.00  0.00    +0.000 A 
ATOM      9  C   UNL     1       4.089   5.996  17.359  0.00  0.00    +0.000 A 
ATOM     10  O   UNL     1       4.549   6.736  16.499  0.00  0.00    +0.000 OA
ATOM     11  N   UNL     1       4.343   4.620  17.421  0.00  0.00    +0.000 N 
ATOM     12  C   UNL     1       3.816   3.741  18.388  0.00  0.00    +0.000 A 
ATOM     13  O   UNL     1       4.012   2.525  18.312  0.00  0.00    +0.000 OA
ATOM     14  N   UNL     1       3.080   4.305  19.432  0.00  0.00    +0.000 N 
ATOM     15  C   UNL     1       2.610   3.487  20.536  0.00  0.00    +0.000 C 
ATOM     16  N   UNL     1       2.709   7.676  18.693  0.00  0.00    +0.000 N 
ATOM     17  C   UNL     1       2.824   8.898  17.923  0.00  0.00    +0.000 C 
ENDROOT
BRANCH   4  18
ATOM     18  C   UNL     1       0.236   8.485  21.320  0.00  0.00    +0.000 C 
BRANCH  18  19
ATOM     19  C   UNL     1      -0.523   9.758  21.622  0.00  0.00    +0.000 A 
ATOM     20  C   UNL     1      -0.700  10.215  22.938  0.00  0.00    +0.000 A 
ATOM     21  C   UNL     1      -1.278  11.463  23.184  0.00  0.00    +0.000 A 
ATOM     22  C   UNL     1      -1.693  12.267  22.123  0.00  0.00    +0.000 A 
ATOM     23  C   UNL     1      -1.557  11.811  20.815  0.00  0.00    +0.000 A 
ATOM     24  C   UNL     1      -0.984  10.559  20.566  0.00  0.00    +0.000 A 
ENDBRANCH  18  19
ENDBRANCH   4  18
BRANCH  11  25
ATOM     25  C   UNL     1       5.354   4.078  16.509  0.00  0.00    +0.000 C 
BRANCH  25  26
ATOM     26  C   UNL     1       6.832   4.414  16.748  0.00  0.00    +0.000 C 
ATOM     27  N   UNL     1       7.341   4.308  18.005  0.00  0.00    +0.000 N 
ATOM     28  O   UNL     1       7.565   4.767  15.829  0.00  0.00    +0.000 OA
ATOM     29  H   UNL     1       6.868   3.846  18.763  0.00  0.00    +0.000 HD
ATOM     30  H   UNL     1       8.331   4.502  18.100  0.00  0.00    +0.000 HD
ENDBRANCH  25  26
ENDBRANCH  11  25
TORSDOF 4
ENDMDL
MODEL 6
REMARK VINA RESULT:      -7.2      1.022      1.049
REMARK  Name = 
REMARK  6 active torsions:
REMARK  status: ('A' for Active; 'I' for Inactive)
REMARK    1  A    between atoms: C_1  and  C_2
REMARK    2  A    between atoms: N_4  and  C_5
REMARK    3  A    between atoms: C_5  and  C_6
REMARK    4  A    between atoms: N_18  and  C_19
REMARK    5  A    between atoms: C_19  and  C_20
REMARK    6  A    between atoms: N_25  and  C_26
REMARK                            x       y       z     vdW  Elec       q    Type
REMARK                         _______ _______ _______ _____ _____    ______ ____
ROOT
ATOM      1  C   UNL     1      -0.475   9.632  22.472  0.00  0.00    +0.000 C 
ATOM      2  C   UNL     1       0.619   9.445  21.425  0.00  0.00    +0.000 C 
ATOM      3  C   UNL     1       0.374  10.314  20.186  0.00  0.00    +0.000 C 
ATOM      4  N   UNL     1       1.451  10.116  19.226  0.00  0.00    +0.000 N 
ATOM      5  C   UNL     1       1.922   8.865  18.987  0.00  0.00    +0.000 A 
ATOM      6  N   UNL     1       2.761   8.439  18.064  0.00  0.00    +0.000 NA
ATOM      7  C   UNL     1       2.906   7.102  18.309  0.00  0.00    +0.000 A 
ATOM      8  C   UNL     1       2.189   6.692  19.388  0.00  0.00    +0.000 A 
ATOM      9  C   UNL     1       2.169   5.345  19.849  0.00  0.00    +0.000 A 
ATOM     10  O   UNL     1       1.478   4.968  20.788  0.00  0.00    +0.000 OA
ATOM     11  N   UNL     1       3.017   4.504  19.118  0.00  0.00    +0.000 N 
ATOM     12  C   UNL     1       3.834   4.911  18.045  0.00  0.00    +0.000 A 
ATOM     13  O   UNL     1       4.627   4.125  17.519  0.00  0.00    +0.000 OA
ATOM     14  N   UNL     1       3.698   6.228  17.602  0.00  0.00    +0.000 N 
ATOM     15  C   UNL     1       4.409   6.692  16.423  0.00  0.00    +0.000 C 
ATOM     16  N   UNL     1       1.564   7.823  19.825  0.00  0.00    +0.000 N 
ATOM     17  C   UNL     1       0.721   7.979  20.994  0.00  0.00    +0.000 C 
ENDROOT
BRANCH   4  18
ATOM     18  C   UNL     1       2.077  11.276  18.606  0.00  0.00    +0.000 C 
BRANCH  18  19
ATOM     19  C   UNL     1       1.603  12.603  19.157  0.00  0.00    +0.000 A 
ATOM     20  C   UNL     1       2.177  13.169  20.308  0.00  0.00    +0.000 A 
ATOM     21  C   UNL     1       1.824  14.458  20.715  0.00  0.00    +0.000 A 
ATOM     22  C   UNL     1       0.892  15.196  19.986  0.00  0.00    +0.000 A 
ATOM     23  C   UNL     1       0.289  14.633  18.865  0.00  0.00    +0.000 A 
ATOM     24  C   UNL     1       0.636  13.341  18.458  0.00  0.00    +0.000 A 
ENDBRANCH  18  19
ENDBRANCH   4  18
BRANCH  11  25
ATOM     25  C   UNL     1       2.935   3.065  19.384  0.00  0.00    +0.000 C 
BRANCH  25  26
ATOM     26  C   UNL     1       3.886   2.440  20.413  0.00  0.00    +0.000 C 
ATOM     27  N   UNL     1       5.144   2.094  20.027  0.00  0.00    +0.000 N 
ATOM     28  O   UNL     1       3.541   2.255  21.575  0.00  0.00    +0.000 OA
ATOM     29  H   UNL     1       5.564   2.387  19.161  0.00  0.00    +0.000 HD
ATOM     30  H   UNL     1       5.744   1.723  20.755  0.00  0.00    +0.000 HD
ENDBRANCH  25  26
ENDBRANCH  11  25
TORSDOF 4
ENDMDL
MODEL 7
REMARK VINA RESULT:      -7.1      3.346      8.630
REMARK  Name = 
REMARK  6 active torsions:
REMARK  status: ('A' for Active; 'I' for Inactive)
REMARK    1  A    between atoms: C_1  and  C_2
REMARK    2  A    between atoms: N_4  and  C_5
REMARK    3  A    between atoms: C_5  and  C_6
REMARK    4  A    between atoms: N_18  and  C_19
REMARK    5  A    between atoms: C_19  and  C_20
REMARK    6  A    between atoms: N_25  and  C_26
REMARK                            x       y       z     vdW  Elec       q    Type
REMARK                         _______ _______ _______ _____ _____    ______ ____
ROOT
ATOM      1  C   UNL     1       3.974   7.313  16.548  0.00  0.00    +0.000 C 
ATOM      2  C   UNL     1       3.431   7.456  17.967  0.00  0.00    +0.000 C 
ATOM      3  C   UNL     1       2.612   6.229  18.387  0.00  0.00    +0.000 C 
ATOM      4  N   UNL     1       2.131   6.403  19.751  0.00  0.00    +0.000 N 
ATOM      5  C   UNL     1       1.641   7.606  20.147  0.00  0.00    +0.000 A 
ATOM      6  N   UNL     1       1.017   7.940  21.258  0.00  0.00    +0.000 NA
ATOM      7  C   UNL     1       0.781   9.282  21.141  0.00  0.00    +0.000 A 
ATOM      8  C   UNL     1       1.271   9.794  19.982  0.00  0.00    +0.000 A 
ATOM      9  C   UNL     1       1.152  11.166  19.620  0.00  0.00    +0.000 A 
ATOM     10  O   UNL     1       1.546  11.614  18.550  0.00  0.00    +0.000 OA
ATOM     11  N   UNL     1       0.540  11.942  20.612  0.00  0.00    +0.000 N 
ATOM     12  C   UNL     1       0.090  11.459  21.857  0.00  0.00    +0.000 A 
ATOM     13  O   UNL     1      -0.349  12.231  22.715  0.00  0.00    +0.000 OA
ATOM     14  N   UNL     1       0.155  10.081  22.069  0.00  0.00    +0.000 N 
ATOM     15  C   UNL     1      -0.403   9.488  23.272  0.00  0.00    +0.000 C 
ATOM     16  N   UNL     1       1.827   8.721  19.349  0.00  0.00    +0.000 N 
ATOM     17  C   UNL     1       2.557   8.707  18.097  0.00  0.00    +0.000 C 
ENDROOT
BRANCH   4  18
ATOM     18  C   UNL     1       2.276   5.310  20.703  0.00  0.00    +0.000 C 
BRANCH  18  19
ATOM     19  C   UNL     1       2.188   3.933  20.083  0.00  0.00    +0.000 A 
ATOM     20  C   UNL     1       0.961   3.391  19.665  0.00  0.00    +0.000 A 
ATOM     21  C   UNL     1       0.921   2.182  18.967  0.00  0.00    +0.000 A 
ATOM     22  C   UNL     1       2.101   1.494  18.684  0.00  0.00    +0.000 A 
ATOM     23  C   UNL     1       3.320   2.001  19.125  0.00  0.00    +0.000 A 
ATOM     24  C   UNL     1       3.362   3.209  19.828  0.00  0.00    +0.000 A 
ENDBRANCH  18  19
ENDBRANCH   4  18
BRANCH  11  25
ATOM     25  C   UNL     1       0.197  13.326  20.272  0.00  0.00    +0.000 C 
BRANCH  25  26
ATOM     26  C   UNL     1      -1.118  13.612  19.536  0.00  0.00    +0.000 C 
ATOM     27  N   UNL     1      -1.198  13.361  18.202  0.00  0.00    +0.000 N 
ATOM     28  O   UNL     1      -2.099  14.051  20.126  0.00  0.00    +0.000 OA
ATOM     29  H   UNL     1      -0.516  12.826  17.691  0.00  0.00    +0.000 HD
ATOM     30  H   UNL     1      -2.101  13.529  17.773  0.00  0.00    +0.000 HD
ENDBRANCH  25  26
ENDBRANCH  11  25
TORSDOF 4
ENDMDL
MODEL 8
REMARK VINA RESULT:      -7.0      6.051     10.202
REMARK  Name = 
REMARK  6 active torsions:
REMARK  status: ('A' for Active; 'I' for Inactive)
REMARK    1  A    between atoms: C_1  and  C_2
REMARK    2  A    between atoms: N_4  and  C_5
REMARK    3  A    between atoms: C_5  and  C_6
REMARK    4  A    between atoms: N_18  and  C_19
REMARK    5  A    between atoms: C_19  and  C_20
REMARK    6  A    between atoms: N_25  and  C_26
REMARK                            x       y       z     vdW  Elec       q    Type
REMARK                         _______ _______ _______ _____ _____    ______ ____
ROOT
ATOM      1  C   UNL     1      -3.167  10.412  15.534  0.00  0.00    +0.000 C 
ATOM      2  C   UNL     1      -2.491  11.055  16.743  0.00  0.00    +0.000 C 
ATOM      3  C   UNL     1      -1.448  10.123  17.371  0.00  0.00    +0.000 C 
ATOM      4  N   UNL     1      -0.819  10.784  18.506  0.00  0.00    +0.000 N 
ATOM      5  C   UNL     1      -1.577  11.498  19.378  0.00  0.00    +0.000 A 
ATOM      6  N   UNL     1      -1.254  12.033  20.538  0.00  0.00    +0.000 NA
ATOM      7  C   UNL     1      -2.390  12.661  20.966  0.00  0.00    +0.000 A 
ATOM      8  C   UNL     1      -3.411  12.547  20.078  0.00  0.00    +0.000 A 
ATOM      9  C   UNL     1      -4.701  13.111  20.290  0.00  0.00    +0.000 A 
ATOM     10  O   UNL     1      -5.636  12.958  19.513  0.00  0.00    +0.000 OA
ATOM     11  N   UNL     1      -4.786  13.851  21.475  0.00  0.00    +0.000 N 
ATOM     12  C   UNL     1      -3.726  14.057  22.380  0.00  0.00    +0.000 A 
ATOM     13  O   UNL     1      -3.859  14.806  23.352  0.00  0.00    +0.000 OA
ATOM     14  N   UNL     1      -2.534  13.372  22.135  0.00  0.00    +0.000 N 
ATOM     15  C   UNL     1      -1.437  13.428  23.085  0.00  0.00    +0.000 C 
ATOM     16  N   UNL     1      -2.888  11.807  19.057  0.00  0.00    +0.000 N 
ATOM     17  C   UNL     1      -3.522  11.439  17.808  0.00  0.00    +0.000 C 
ENDROOT
BRANCH   4  18
ATOM     18  C   UNL     1       0.632  10.754  18.635  0.00  0.00    +0.000 C 
BRANCH  18  19
ATOM     19  C   UNL     1       1.202   9.377  18.897  0.00  0.00    +0.000 A 
ATOM     20  C   UNL     1       1.892   8.666  17.902  0.00  0.00    +0.000 A 
ATOM     21  C   UNL     1       2.533   7.462  18.207  0.00  0.00    +0.000 A 
ATOM     22  C   UNL     1       2.486   6.949  19.503  0.00  0.00    +0.000 A 
ATOM     23  C   UNL     1       1.774   7.625  20.489  0.00  0.00    +0.000 A 
ATOM     24  C   UNL     1       1.128   8.828  20.186  0.00  0.00    +0.000 A 
ENDBRANCH  18  19
ENDBRANCH   4  18
BRANCH  11  25
ATOM     25  C   UNL     1      -6.113  14.318  21.887  0.00  0.00    +0.000 C 
BRANCH  25  26
ATOM     26  C   UNL     1      -6.542  15.750  21.539  0.00  0.00    +0.000 C 
ATOM     27  N   UNL     1      -6.253  16.757  22.407  0.00  0.00    +0.000 N 
ATOM     28  O   UNL     1      -7.130  16.006  20.494  0.00  0.00    +0.000 OA
ATOM     29  H   UNL     1      -5.614  16.665  23.178  0.00  0.00    +0.000 HD
ATOM     30  H   UNL     1      -6.523  17.688  22.110  0.00  0.00    +0.000 HD
ENDBRANCH  25  26
ENDBRANCH  11  25
TORSDOF 4
ENDMDL
MODEL 9
REMARK VINA RESULT:      -7.0      5.353      8.251
REMARK  Name = 
REMARK  6 active torsions:
REMARK  status: ('A' for Active; 'I' for Inactive)
REMARK    1  A    between atoms: C_1  and  C_2
REMARK    2  A    between atoms: N_4  and  C_5
REMARK    3  A    between atoms: C_5  and  C_6
REMARK    4  A    between atoms: N_18  and  C_19
REMARK    5  A    between atoms: C_19  and  C_20
REMARK    6  A    between atoms: N_25  and  C_26
REMARK                            x       y       z     vdW  Elec       q    Type
REMARK                         _______ _______ _______ _____ _____    ______ ____
ROOT
ATOM      1  C   UNL     1      -3.440   9.953  14.572  0.00  0.00    +0.000 C 
ATOM      2  C   UNL     1      -3.728  10.371  16.011  0.00  0.00    +0.000 C 
ATOM      3  C   UNL     1      -4.548  11.666  16.072  0.00  0.00    +0.000 C 
ATOM      4  N   UNL     1      -4.813  12.014  17.462  0.00  0.00    +0.000 N 
ATOM      5  C   UNL     1      -3.828  11.892  18.389  0.00  0.00    +0.000 A 
ATOM      6  N   UNL     1      -3.795  12.293  19.644  0.00  0.00    +0.000 NA
ATOM      7  C   UNL     1      -2.579  11.880  20.113  0.00  0.00    +0.000 A 
ATOM      8  C   UNL     1      -1.864  11.206  19.176  0.00  0.00    +0.000 A 
ATOM      9  C   UNL     1      -0.564  10.675  19.415  0.00  0.00    +0.000 A 
ATOM     10  O   UNL     1       0.101  10.117  18.552  0.00  0.00    +0.000 OA
ATOM     11  N   UNL     1      -0.132  10.861  20.734  0.00  0.00    +0.000 N 
ATOM     12  C   UNL     1      -0.879  11.485  21.752  0.00  0.00    +0.000 A 
ATOM     13  O   UNL     1      -0.463  11.519  22.913  0.00  0.00    +0.000 OA
ATOM     14  N   UNL     1      -2.094  12.067  21.387  0.00  0.00    +0.000 N 
ATOM     15  C   UNL     1      -2.866  12.838  22.346  0.00  0.00    +0.000 C 
ATOM     16  N   UNL     1      -2.667  11.209  18.073  0.00  0.00    +0.000 N 
ATOM     17  C   UNL     1      -2.428  10.567  16.797  0.00  0.00    +0.000 C 
ENDROOT
BRANCH   4  18
ATOM     18  C   UNL     1      -6.163  12.395  17.856  0.00  0.00    +0.000 C 
BRANCH  18  19
ATOM     19  C   UNL     1      -6.809  11.451  18.847  0.00  0.00    +0.000 A 
ATOM     20  C   UNL     1      -6.754  10.057  18.678  0.00  0.00    +0.000 A 
ATOM     21  C   UNL     1      -7.230   9.204  19.676  0.00  0.00    +0.000 A 
ATOM     22  C   UNL     1      -7.774   9.727  20.849  0.00  0.00    +0.000 A 
ATOM     23  C   UNL     1      -7.869  11.106  21.013  0.00  0.00    +0.000 A 
ATOM     24  C   UNL     1      -7.396  11.964  20.013  0.00  0.00    +0.000 A 
ENDBRANCH  18  19
ENDBRANCH   4  18
BRANCH  11  25
ATOM     25  C   UNL     1       1.261  10.522  21.042  0.00  0.00    +0.000 C 
BRANCH  25  26
ATOM     26  C   UNL     1       1.580   9.146  21.640  0.00  0.00    +0.000 C 
ATOM     27  N   UNL     1       1.793   9.039  22.979  0.00  0.00    +0.000 N 
ATOM     28  O   UNL     1       1.638   8.141  20.939  0.00  0.00    +0.000 OA
ATOM     29  H   UNL     1       1.574   9.765  23.640  0.00  0.00    +0.000 HD
ATOM     30  H   UNL     1       1.960   8.102  23.328  0.00  0.00    +0.000 HD
ENDBRANCH  25  26
ENDBRANCH  11  25
TORSDOF 4
ENDMDL
