MODEL 1
REMARK VINA RESULT:      -8.6      0.000      0.000
REMARK  Name = 
REMARK  6 active torsions:
REMARK  status: ('A' for Active; 'I' for Inactive)
REMARK    1  A    between atoms: C_1  and  O_2
REMARK    2  A    between atoms: O_2  and  C_3
REMARK    3  A    between atoms: C_12  and  C_13
REMARK    4  A    between atoms: C_13  and  N_14
REMARK    5  A    between atoms: C_26  and  N_27
REMARK    6  A    between atoms: N_27  and  C_28
REMARK                            x       y       z     vdW  Elec       q    Type
REMARK                         _______ _______ _______ _____ _____    ______ ____
ROOT
ATOM      1  N   UNL     1       2.113   8.007  19.415  0.00  0.00    +0.000 N 
ATOM      2  C   UNL     1       2.248   8.467  18.117  0.00  0.00    +0.000 A 
ATOM      3  N   UNL     1       1.792   9.590  17.659  0.00  0.00    +0.000 NA
ATOM      4  C   UNL     1       1.127  10.328  18.581  0.00  0.00    +0.000 A 
ATOM      5  S   UNL     1       0.541  11.892  18.222  0.00  0.00    +0.000 S 
ATOM      6  C   UNL     1      -0.145  12.046  19.770  0.00  0.00    +0.000 A 
ATOM      7  C   UNL     1       0.056  10.933  20.564  0.00  0.00    +0.000 A 
ATOM      8  C   UNL     1       0.842   9.960  19.881  0.00  0.00    +0.000 A 
ATOM      9  C   UNL     1       1.348   8.687  20.357  0.00  0.00    +0.000 A 
ATOM     10  O   UNL     1       1.152   8.289  21.503  0.00  0.00    +0.000 OA
ATOM     11  C   UNL     1      -0.572  10.792  21.924  0.00  0.00    +0.000 C 
ATOM     12  C   UNL     1      -1.317  12.065  22.371  0.00  0.00    +0.000 C 
ATOM     13  C   UNL     1      -2.029  12.797  21.201  0.00  0.00    +0.000 C 
ATOM     14  C   UNL     1      -0.930  13.244  20.197  0.00  0.00    +0.000 C 
ENDROOT
BRANCH  13  15
ATOM     15  N   UNL     1      -3.054  11.890  20.651  0.00  0.00    +0.000 NA
ATOM     16  H   UNL     1      -3.722  11.634  21.377  0.00  0.00    +0.000 HD
BRANCH  15  17
ATOM     17  C   UNL     1      -3.762  12.328  19.443  0.00  0.00    +0.000 C 
ATOM     18  C   UNL     1      -5.270  12.465  19.660  0.00  0.00    +0.000 C 
ATOM     19  C   UNL     1      -5.987  12.708  18.337  0.00  0.00    +0.000 C 
ATOM     20  O   UNL     1      -5.691  11.676  17.401  0.00  0.00    +0.000 OA
ATOM     21  C   UNL     1      -4.300  11.630  17.084  0.00  0.00    +0.000 C 
ATOM     22  C   UNL     1      -3.478  11.312  18.324  0.00  0.00    +0.000 C 
ENDBRANCH  15  17
ENDBRANCH  13  15
BRANCH   1  23
ATOM     23  C   UNL     1       2.845   6.834  19.837  0.00  0.00    +0.000 C 
BRANCH  23  33
ATOM     24  C   UNL     1       4.145   5.861  17.818  0.00  0.00    +0.000 A 
ATOM     25  C   UNL     1       4.291   4.851  16.865  0.00  0.00    +0.000 A 
ATOM     26  C   UNL     1       3.493   3.711  16.908  0.00  0.00    +0.000 A 
ATOM     27  C   UNL     1       2.553   3.532  17.922  0.00  0.00    +0.000 A 
ATOM     28  C   UNL     1       1.807   2.342  17.974  0.00  0.00    +0.000 A 
ATOM     29  C   UNL     1       0.883   2.118  18.993  0.00  0.00    +0.000 A 
ATOM     30  C   UNL     1       0.682   3.091  19.960  0.00  0.00    +0.000 A 
ATOM     31  C   UNL     1       1.404   4.284  19.906  0.00  0.00    +0.000 A 
ATOM     32  C   UNL     1       2.368   4.542  18.899  0.00  0.00    +0.000 A 
ATOM     33  C   UNL     1       3.160   5.740  18.823  0.00  0.00    +0.000 A 
BRANCH  24  35
ATOM     34  C   UNL     1       6.213   6.867  17.166  0.00  0.00    +0.000 C 
ATOM     35  O   UNL     1       4.974   6.950  17.861  0.00  0.00    +0.000 OA
ENDBRANCH  24  35
ENDBRANCH  23  33
ENDBRANCH   1  23
TORSDOF 5
ENDMDL
MODEL 2
REMARK VINA RESULT:      -8.6      1.056      2.680
REMARK  Name = 
REMARK  6 active torsions:
REMARK  status: ('A' for Active; 'I' for Inactive)
REMARK    1  A    between atoms: C_1  and  O_2
REMARK    2  A    between atoms: O_2  and  C_3
REMARK    3  A    between atoms: C_12  and  C_13
REMARK    4  A    between atoms: C_13  and  N_14
REMARK    5  A    between atoms: C_26  and  N_27
REMARK    6  A    between atoms: N_27  and  C_28
REMARK                            x       y       z     vdW  Elec       q    Type
REMARK                         _______ _______ _______ _____ _____    ______ ____
ROOT
ATOM      1  N   UNL     1       2.144   7.770  19.348  0.00  0.00    +0.000 N 
ATOM      2  C   UNL     1       2.241   8.251  18.054  0.00  0.00    +0.000 A 
ATOM      3  N   UNL     1       1.816   9.401  17.639  0.00  0.00    +0.000 NA
ATOM      4  C   UNL     1       1.225  10.148  18.604  0.00  0.00    +0.000 A 
ATOM      5  S   UNL     1       0.695  11.743  18.303  0.00  0.00    +0.000 S 
ATOM      6  C   UNL     1       0.087  11.895  19.883  0.00  0.00    +0.000 A 
ATOM      7  C   UNL     1       0.272  10.758  20.646  0.00  0.00    +0.000 A 
ATOM      8  C   UNL     1       0.984   9.766  19.909  0.00  0.00    +0.000 A 
ATOM      9  C   UNL     1       1.454   8.463  20.337  0.00  0.00    +0.000 A 
ATOM     10  O   UNL     1       1.291   8.049  21.483  0.00  0.00    +0.000 OA
ATOM     11  C   UNL     1      -0.299  10.615  22.030  0.00  0.00    +0.000 C 
ATOM     12  C   UNL     1      -0.966  11.911  22.535  0.00  0.00    +0.000 C 
ATOM     13  C   UNL     1      -1.697  12.697  21.412  0.00  0.00    +0.000 C 
ATOM     14  C   UNL     1      -0.625  13.117  20.368  0.00  0.00    +0.000 C 
ENDROOT
BRANCH  13  15
ATOM     15  N   UNL     1      -2.784  11.847  20.893  0.00  0.00    +0.000 NA
ATOM     16  H   UNL     1      -3.449  11.634  21.636  0.00  0.00    +0.000 HD
BRANCH  15  17
ATOM     17  C   UNL     1      -3.493  12.318  19.698  0.00  0.00    +0.000 C 
ATOM     18  C   UNL     1      -4.994  12.502  19.936  0.00  0.00    +0.000 C 
ATOM     19  C   UNL     1      -5.720  12.779  18.625  0.00  0.00    +0.000 C 
ATOM     20  O   UNL     1      -5.469  11.745  17.677  0.00  0.00    +0.000 OA
ATOM     21  C   UNL     1      -4.085  11.657  17.341  0.00  0.00    +0.000 C 
ATOM     22  C   UNL     1      -3.258  11.302  18.567  0.00  0.00    +0.000 C 
ENDBRANCH  15  17
ENDBRANCH  13  15
BRANCH   1  23
ATOM     23  C   UNL     1       2.842   6.557  19.714  0.00  0.00    +0.000 C 
BRANCH  23  33
ATOM     24  C   UNL     1       2.004   4.286  18.791  0.00  0.00    +0.000 A 
ATOM     25  C   UNL     1       2.185   3.210  17.918  0.00  0.00    +0.000 A 
ATOM     26  C   UNL     1       3.207   3.224  16.973  0.00  0.00    +0.000 A 
ATOM     27  C   UNL     1       4.054   4.324  16.850  0.00  0.00    +0.000 A 
ATOM     28  C   UNL     1       5.036   4.333  15.845  0.00  0.00    +0.000 A 
ATOM     29  C   UNL     1       5.878   5.431  15.675  0.00  0.00    +0.000 A 
ATOM     30  C   UNL     1       5.758   6.524  16.521  0.00  0.00    +0.000 A 
ATOM     31  C   UNL     1       4.798   6.516  17.533  0.00  0.00    +0.000 A 
ATOM     32  C   UNL     1       3.909   5.428  17.727  0.00  0.00    +0.000 A 
ATOM     33  C   UNL     1       2.884   5.390  18.734  0.00  0.00    +0.000 A 
BRANCH  24  35
ATOM     34  C   UNL     1       0.886   3.359  20.690  0.00  0.00    +0.000 C 
ATOM     35  O   UNL     1       0.954   4.347  19.668  0.00  0.00    +0.000 OA
ENDBRANCH  24  35
ENDBRANCH  23  33
ENDBRANCH   1  23
TORSDOF 5
ENDMDL
MODEL 3
REMARK VINA RESULT:      -8.5      3.061      5.101
REMARK  Name = 
REMARK  6 active torsions:
REMARK  status: ('A' for Active; 'I' for Inactive)
REMARK    1  A    between atoms: C_1  and  O_2
REMARK    2  A    between atoms: O_2  and  C_3
REMARK    3  A    between atoms: C_12  and  C_13
REMARK    4  A    between atoms: C_13  and  N_14
REMARK    5  A    between atoms: C_26  and  N_27
REMARK    6  A    between atoms: N_27  and  C_28
REMARK                            x       y       z     vdW  Elec       q    Type
REMARK                         _______ _______ _______ _____ _____    ______ ____
ROOT
ATOM      1  N   UNL     1       2.004   7.842  18.943  0.00  0.00    +0.000 N 
ATOM      2  C   UNL     1       1.991   7.441  20.267  0.00  0.00    +0.000 A 
ATOM      3  N   UNL     1       1.458   8.093  21.252  0.00  0.00    +0.000 NA
ATOM      4  C   UNL     1       0.887   9.267  20.886  0.00  0.00    +0.000 A 
ATOM      5  S   UNL     1       0.028  10.232  22.004  0.00  0.00    +0.000 S 
ATOM      6  C   UNL     1      -0.266  11.424  20.828  0.00  0.00    +0.000 A 
ATOM      7  C   UNL     1       0.275  11.113  19.595  0.00  0.00    +0.000 A 
ATOM      8  C   UNL     1       0.898   9.831  19.626  0.00  0.00    +0.000 A 
ATOM      9  C   UNL     1       1.522   9.086  18.549  0.00  0.00    +0.000 A 
ATOM     10  O   UNL     1       1.565   9.508  17.396  0.00  0.00    +0.000 OA
ATOM     11  C   UNL     1       0.252  12.077  18.441  0.00  0.00    +0.000 C 
ATOM     12  C   UNL     1      -0.557  13.353  18.747  0.00  0.00    +0.000 C 
ATOM     13  C   UNL     1      -0.416  13.826  20.219  0.00  0.00    +0.000 C 
ATOM     14  C   UNL     1      -0.988  12.699  21.124  0.00  0.00    +0.000 C 
ENDROOT
BRANCH  13  15
ATOM     15  N   UNL     1       1.000  14.166  20.456  0.00  0.00    +0.000 NA
ATOM     16  H   UNL     1       1.549  13.317  20.581  0.00  0.00    +0.000 HD
BRANCH  15  17
ATOM     17  C   UNL     1       1.650  15.050  19.482  0.00  0.00    +0.000 C 
ATOM     18  C   UNL     1       3.175  15.052  19.613  0.00  0.00    +0.000 C 
ATOM     19  C   UNL     1       3.791  16.138  18.739  0.00  0.00    +0.000 C 
ATOM     20  O   UNL     1       3.244  17.415  19.053  0.00  0.00    +0.000 OA
ATOM     21  C   UNL     1       1.840  17.467  18.801  0.00  0.00    +0.000 C 
ATOM     22  C   UNL     1       1.101  16.473  19.683  0.00  0.00    +0.000 C 
ENDBRANCH  15  17
ENDBRANCH  13  15
BRANCH   1  23
ATOM     23  C   UNL     1       2.454   6.921  17.923  0.00  0.00    +0.000 C 
BRANCH  23  33
ATOM     24  C   UNL     1       2.856   4.544  18.871  0.00  0.00    +0.000 A 
ATOM     25  C   UNL     1       3.754   3.563  19.297  0.00  0.00    +0.000 A 
ATOM     26  C   UNL     1       5.126   3.743  19.152  0.00  0.00    +0.000 A 
ATOM     27  C   UNL     1       5.638   4.890  18.547  0.00  0.00    +0.000 A 
ATOM     28  C   UNL     1       7.026   5.014  18.360  0.00  0.00    +0.000 A 
ATOM     29  C   UNL     1       7.567   6.133  17.730  0.00  0.00    +0.000 A 
ATOM     30  C   UNL     1       6.727   7.150  17.299  0.00  0.00    +0.000 A 
ATOM     31  C   UNL     1       5.351   7.044  17.499  0.00  0.00    +0.000 A 
ATOM     32  C   UNL     1       4.758   5.913  18.116  0.00  0.00    +0.000 A 
ATOM     33  C   UNL     1       3.344   5.746  18.311  0.00  0.00    +0.000 A 
BRANCH  24  35
ATOM     34  C   UNL     1       0.949   3.741  20.069  0.00  0.00    +0.000 C 
ATOM     35  O   UNL     1       1.499   4.361  18.912  0.00  0.00    +0.000 OA
ENDBRANCH  24  35
ENDBRANCH  23  33
ENDBRANCH   1  23
TORSDOF 5
ENDMDL
MODEL 4
REMARK VINA RESULT:      -8.4      3.321      5.409
REMARK  Name = 
REMARK  6 active torsions:
REMARK  status: ('A' for Active; 'I' for Inactive)
REMARK    1  A    between atoms: C_1  and  O_2
REMARK    2  A    between atoms: O_2  and  C_3
REMARK    3  A    between atoms: C_12  and  C_13
REMARK    4  A    between atoms: C_13  and  N_14
REMARK    5  A    between atoms: C_26  and  N_27
REMARK    6  A    between atoms: N_27  and  C_28
REMARK                            x       y       z     vdW  Elec       q    Type
REMARK                         _______ _______ _______ _____ _____    ______ ____
ROOT
ATOM      1  N   UNL     1       1.959   7.565  19.013  0.00  0.00    +0.000 N 
ATOM      2  C   UNL     1       1.693   7.167  20.311  0.00  0.00    +0.000 A 
ATOM      3  N   UNL     1       1.223   7.920  21.254  0.00  0.00    +0.000 NA
ATOM      4  C   UNL     1       1.001   9.202  20.873  0.00  0.00    +0.000 A 
ATOM      5  S   UNL     1       0.278  10.336  21.925  0.00  0.00    +0.000 S 
ATOM      6  C   UNL     1       0.422  11.576  20.770  0.00  0.00    +0.000 A 
ATOM      7  C   UNL     1       1.012  11.154  19.594  0.00  0.00    +0.000 A 
ATOM      8  C   UNL     1       1.297   9.757  19.644  0.00  0.00    +0.000 A 
ATOM      9  C   UNL     1       1.843   8.893  18.616  0.00  0.00    +0.000 A 
ATOM     10  O   UNL     1       2.122   9.303  17.492  0.00  0.00    +0.000 OA
ATOM     11  C   UNL     1       1.359  12.105  18.482  0.00  0.00    +0.000 C 
ATOM     12  C   UNL     1       0.854  13.538  18.744  0.00  0.00    +0.000 C 
ATOM     13  C   UNL     1       0.932  13.947  20.241  0.00  0.00    +0.000 C 
ATOM     14  C   UNL     1       0.002  12.986  21.033  0.00  0.00    +0.000 C 
ENDROOT
BRANCH  13  15
ATOM     15  N   UNL     1       2.350  13.927  20.646  0.00  0.00    +0.000 NA
ATOM     16  H   UNL     1       2.872  13.271  20.065  0.00  0.00    +0.000 HD
BRANCH  15  17
ATOM     17  C   UNL     1       3.049  15.215  20.710  0.00  0.00    +0.000 C 
ATOM     18  C   UNL     1       2.090  16.406  20.759  0.00  0.00    +0.000 C 
ATOM     19  C   UNL     1       2.848  17.719  20.604  0.00  0.00    +0.000 C 
ATOM     20  O   UNL     1       3.617  17.723  19.405  0.00  0.00    +0.000 OA
ATOM     21  C   UNL     1       4.612  16.700  19.409  0.00  0.00    +0.000 C 
ATOM     22  C   UNL     1       3.966  15.325  19.480  0.00  0.00    +0.000 C 
ENDBRANCH  15  17
ENDBRANCH  13  15
BRANCH   1  23
ATOM     23  C   UNL     1       2.289   6.572  18.014  0.00  0.00    +0.000 C 
BRANCH  23  33
ATOM     24  C   UNL     1       2.901   4.219  18.911  0.00  0.00    +0.000 A 
ATOM     25  C   UNL     1       3.884   3.304  19.292  0.00  0.00    +0.000 A 
ATOM     26  C   UNL     1       5.234   3.592  19.107  0.00  0.00    +0.000 A 
ATOM     27  C   UNL     1       5.637   4.783  18.506  0.00  0.00    +0.000 A 
ATOM     28  C   UNL     1       7.004   5.015  18.277  0.00  0.00    +0.000 A 
ATOM     29  C   UNL     1       7.438   6.182  17.650  0.00  0.00    +0.000 A 
ATOM     30  C   UNL     1       6.509   7.137  17.262  0.00  0.00    +0.000 A 
ATOM     31  C   UNL     1       5.152   6.923  17.503  0.00  0.00    +0.000 A 
ATOM     32  C   UNL     1       4.667   5.741  18.119  0.00  0.00    +0.000 A 
ATOM     33  C   UNL     1       3.277   5.463  18.356  0.00  0.00    +0.000 A 
BRANCH  24  35
ATOM     34  C   UNL     1       1.071   3.416  20.222  0.00  0.00    +0.000 C 
ATOM     35  O   UNL     1       1.564   3.932  18.991  0.00  0.00    +0.000 OA
ENDBRANCH  24  35
ENDBRANCH  23  33
ENDBRANCH   1  23
TORSDOF 5
ENDMDL
MODEL 5
REMARK VINA RESULT:      -8.4      2.376      8.932
REMARK  Name = 
REMARK  6 active torsions:
REMARK  status: ('A' for Active; 'I' for Inactive)
REMARK    1  A    between atoms: C_1  and  O_2
REMARK    2  A    between atoms: O_2  and  C_3
REMARK    3  A    between atoms: C_12  and  C_13
REMARK    4  A    between atoms: C_13  and  N_14
REMARK    5  A    between atoms: C_26  and  N_27
REMARK    6  A    between atoms: N_27  and  C_28
REMARK                            x       y       z     vdW  Elec       q    Type
REMARK                         _______ _______ _______ _____ _____    ______ ____
ROOT
ATOM      1  N   UNL     1       0.551  10.102  19.341  0.00  0.00    +0.000 N 
ATOM      2  C   UNL     1       0.014   9.446  20.434  0.00  0.00    +0.000 A 
ATOM      3  N   UNL     1       0.418   8.311  20.911  0.00  0.00    +0.000 NA
ATOM      4  C   UNL     1       1.456   7.768  20.229  0.00  0.00    +0.000 A 
ATOM      5  S   UNL     1       2.219   6.332  20.753  0.00  0.00    +0.000 S 
ATOM      6  C   UNL     1       3.267   6.339  19.414  0.00  0.00    +0.000 A 
ATOM      7  C   UNL     1       3.054   7.410  18.566  0.00  0.00    +0.000 A 
ATOM      8  C   UNL     1       2.034   8.265  19.077  0.00  0.00    +0.000 A 
ATOM      9  C   UNL     1       1.545   9.526  18.556  0.00  0.00    +0.000 A 
ATOM     10  O   UNL     1       2.011  10.044  17.544  0.00  0.00    +0.000 OA
ATOM     11  C   UNL     1       3.774   7.551  17.253  0.00  0.00    +0.000 C 
ATOM     12  C   UNL     1       4.854   6.470  17.047  0.00  0.00    +0.000 C 
ATOM     13  C   UNL     1       4.449   5.086  17.627  0.00  0.00    +0.000 C 
ATOM     14  C   UNL     1       4.272   5.262  19.161  0.00  0.00    +0.000 C 
ENDROOT
BRANCH  13  15
ATOM     15  N   UNL     1       3.252   4.620  16.903  0.00  0.00    +0.000 NA
ATOM     16  H   UNL     1       3.434   4.599  15.900  0.00  0.00    +0.000 HD
BRANCH  15  17
ATOM     17  C   UNL     1       2.657   3.350  17.336  0.00  0.00    +0.000 C 
ATOM     18  C   UNL     1       1.393   3.547  18.175  0.00  0.00    +0.000 C 
ATOM     19  C   UNL     1       0.935   2.226  18.781  0.00  0.00    +0.000 C 
ATOM     20  O   UNL     1       1.977   1.630  19.548  0.00  0.00    +0.000 OA
ATOM     21  C   UNL     1       3.114   1.314  18.744  0.00  0.00    +0.000 C 
ATOM     22  C   UNL     1       3.712   2.576  18.143  0.00  0.00    +0.000 C 
ENDBRANCH  15  17
ENDBRANCH  13  15
BRANCH   1  23
ATOM     23  C   UNL     1       0.135  11.455  19.044  0.00  0.00    +0.000 C 
BRANCH  23  33
ATOM     24  C   UNL     1      -1.768  12.519  20.444  0.00  0.00    +0.000 A 
ATOM     25  C   UNL     1      -3.133  12.758  20.620  0.00  0.00    +0.000 A 
ATOM     26  C   UNL     1      -4.053  12.379  19.646  0.00  0.00    +0.000 A 
ATOM     27  C   UNL     1      -3.634  11.784  18.457  0.00  0.00    +0.000 A 
ATOM     28  C   UNL     1      -4.581  11.471  17.468  0.00  0.00    +0.000 A 
ATOM     29  C   UNL     1      -4.192  10.905  16.255  0.00  0.00    +0.000 A 
ATOM     30  C   UNL     1      -2.851  10.630  16.027  0.00  0.00    +0.000 A 
ATOM     31  C   UNL     1      -1.906  10.920  17.011  0.00  0.00    +0.000 A 
ATOM     32  C   UNL     1      -2.258  11.514  18.250  0.00  0.00    +0.000 A 
ATOM     33  C   UNL     1      -1.316  11.862  19.278  0.00  0.00    +0.000 A 
BRANCH  24  35
ATOM     34  C   UNL     1      -1.050  12.698  22.717  0.00  0.00    +0.000 C 
ATOM     35  O   UNL     1      -0.828  12.961  21.336  0.00  0.00    +0.000 OA
ENDBRANCH  24  35
ENDBRANCH  23  33
ENDBRANCH   1  23
TORSDOF 5
ENDMDL
MODEL 6
REMARK VINA RESULT:      -8.3      2.911      4.307
REMARK  Name = 
REMARK  6 active torsions:
REMARK  status: ('A' for Active; 'I' for Inactive)
REMARK    1  A    between atoms: C_1  and  O_2
REMARK    2  A    between atoms: O_2  and  C_3
REMARK    3  A    between atoms: C_12  and  C_13
REMARK    4  A    between atoms: C_13  and  N_14
REMARK    5  A    between atoms: C_26  and  N_27
REMARK    6  A    between atoms: N_27  and  C_28
REMARK                            x       y       z     vdW  Elec       q    Type
REMARK                         _______ _______ _______ _____ _____    ______ ____
ROOT
ATOM      1  N   UNL     1       2.131   7.790  18.805  0.00  0.00    +0.000 N 
ATOM      2  C   UNL     1       2.136   7.376  20.125  0.00  0.00    +0.000 A 
ATOM      3  N   UNL     1       1.598   8.007  21.120  0.00  0.00    +0.000 NA
ATOM      4  C   UNL     1       1.000   9.173  20.770  0.00  0.00    +0.000 A 
ATOM      5  S   UNL     1       0.130  10.108  21.904  0.00  0.00    +0.000 S 
ATOM      6  C   UNL     1      -0.199  11.305  20.742  0.00  0.00    +0.000 A 
ATOM      7  C   UNL     1       0.339  11.018  19.502  0.00  0.00    +0.000 A 
ATOM      8  C   UNL     1       0.990   9.748  19.515  0.00  0.00    +0.000 A 
ATOM      9  C   UNL     1       1.620   9.027  18.427  0.00  0.00    +0.000 A 
ATOM     10  O   UNL     1       1.645   9.462  17.278  0.00  0.00    +0.000 OA
ATOM     11  C   UNL     1       0.288  11.992  18.357  0.00  0.00    +0.000 C 
ATOM     12  C   UNL     1      -0.546  13.248  18.682  0.00  0.00    +0.000 C 
ATOM     13  C   UNL     1      -0.403  13.709  20.159  0.00  0.00    +0.000 C 
ATOM     14  C   UNL     1      -0.944  12.562  21.057  0.00  0.00    +0.000 C 
ENDROOT
BRANCH  13  15
ATOM     15  N   UNL     1       1.007  14.077  20.388  0.00  0.00    +0.000 NA
ATOM     16  H   UNL     1       1.608  13.265  20.252  0.00  0.00    +0.000 HD
BRANCH  15  17
ATOM     17  C   UNL     1       1.532  15.226  19.641  0.00  0.00    +0.000 C 
ATOM     18  C   UNL     1       2.838  14.908  18.910  0.00  0.00    +0.000 C 
ATOM     19  C   UNL     1       3.457  16.176  18.333  0.00  0.00    +0.000 C 
ATOM     20  O   UNL     1       3.659  17.152  19.351  0.00  0.00    +0.000 OA
ATOM     21  C   UNL     1       2.428  17.560  19.947  0.00  0.00    +0.000 C 
ATOM     22  C   UNL     1       1.749  16.384  20.631  0.00  0.00    +0.000 C 
ENDBRANCH  15  17
ENDBRANCH  13  15
BRANCH   1  23
ATOM     23  C   UNL     1       2.592   6.889  17.772  0.00  0.00    +0.000 C 
BRANCH  23  33
ATOM     24  C   UNL     1       4.918   5.817  18.165  0.00  0.00    +0.000 A 
ATOM     25  C   UNL     1       5.681   4.673  18.411  0.00  0.00    +0.000 A 
ATOM     26  C   UNL     1       5.068   3.449  18.661  0.00  0.00    +0.000 A 
ATOM     27  C   UNL     1       3.679   3.339  18.706  0.00  0.00    +0.000 A 
ATOM     28  C   UNL     1       3.092   2.102  19.023  0.00  0.00    +0.000 A 
ATOM     29  C   UNL     1       1.707   1.966  19.108  0.00  0.00    +0.000 A 
ATOM     30  C   UNL     1       0.895   3.063  18.858  0.00  0.00    +0.000 A 
ATOM     31  C   UNL     1       1.468   4.290  18.525  0.00  0.00    +0.000 A 
ATOM     32  C   UNL     1       2.873   4.475  18.448  0.00  0.00    +0.000 A 
ATOM     33  C   UNL     1       3.508   5.728  18.142  0.00  0.00    +0.000 A 
BRANCH  24  35
ATOM     34  C   UNL     1       6.717   7.133  17.302  0.00  0.00    +0.000 C 
ATOM     35  O   UNL     1       5.484   7.054  18.009  0.00  0.00    +0.000 OA
ENDBRANCH  24  35
ENDBRANCH  23  33
ENDBRANCH   1  23
TORSDOF 5
ENDMDL
MODEL 7
REMARK VINA RESULT:      -8.2      1.355      1.709
REMARK  Name = 
REMARK  6 active torsions:
REMARK  status: ('A' for Active; 'I' for Inactive)
REMARK    1  A    between atoms: C_1  and  O_2
REMARK    2  A    between atoms: O_2  and  C_3
REMARK    3  A    between atoms: C_12  and  C_13
REMARK    4  A    between atoms: C_13  and  N_14
REMARK    5  A    between atoms: C_26  and  N_27
REMARK    6  A    between atoms: N_27  and  C_28
REMARK                            x       y       z     vdW  Elec       q    Type
REMARK                         _______ _______ _______ _____ _____    ______ ____
ROOT
ATOM      1  N   UNL     1       1.930   8.115  19.581  0.00  0.00    +0.000 N 
ATOM      2  C   UNL     1       1.937   8.498  18.252  0.00  0.00    +0.000 A 
ATOM      3  N   UNL     1       1.494   9.622  17.784  0.00  0.00    +0.000 NA
ATOM      4  C   UNL     1       0.985  10.447  18.732  0.00  0.00    +0.000 A 
ATOM      5  S   UNL     1       0.450  12.024  18.352  0.00  0.00    +0.000 S 
ATOM      6  C   UNL     1      -0.038  12.301  19.958  0.00  0.00    +0.000 A 
ATOM      7  C   UNL     1       0.191  11.219  20.787  0.00  0.00    +0.000 A 
ATOM      8  C   UNL     1       0.836  10.165  20.075  0.00  0.00    +0.000 A 
ATOM      9  C   UNL     1       1.322   8.889  20.564  0.00  0.00    +0.000 A 
ATOM     10  O   UNL     1       1.240   8.563  21.746  0.00  0.00    +0.000 OA
ATOM     11  C   UNL     1      -0.278  11.187  22.216  0.00  0.00    +0.000 C 
ATOM     12  C   UNL     1      -0.892  12.527  22.670  0.00  0.00    +0.000 C 
ATOM     13  C   UNL     1      -1.695  13.241  21.549  0.00  0.00    +0.000 C 
ATOM     14  C   UNL     1      -0.699  13.566  20.401  0.00  0.00    +0.000 C 
ENDROOT
BRANCH  13  15
ATOM     15  N   UNL     1      -2.827  12.373  21.174  0.00  0.00    +0.000 NA
ATOM     16  H   UNL     1      -2.693  11.437  21.556  0.00  0.00    +0.000 HD
BRANCH  15  17
ATOM     17  C   UNL     1      -4.177  12.858  21.482  0.00  0.00    +0.000 C 
ATOM     18  C   UNL     1      -4.541  12.691  22.959  0.00  0.00    +0.000 C 
ATOM     19  C   UNL     1      -6.015  13.001  23.191  0.00  0.00    +0.000 C 
ATOM     20  O   UNL     1      -6.842  12.192  22.359  0.00  0.00    +0.000 OA
ATOM     21  C   UNL     1      -6.608  12.442  20.973  0.00  0.00    +0.000 C 
ATOM     22  C   UNL     1      -5.176  12.090  20.600  0.00  0.00    +0.000 C 
ENDBRANCH  15  17
ENDBRANCH  13  15
BRANCH   1  23
ATOM     23  C   UNL     1       2.640   6.921  19.984  0.00  0.00    +0.000 C 
BRANCH  23  33
ATOM     24  C   UNL     1       3.956   6.043  17.933  0.00  0.00    +0.000 A 
ATOM     25  C   UNL     1       4.128   5.062  16.953  0.00  0.00    +0.000 A 
ATOM     26  C   UNL     1       3.370   3.895  16.974  0.00  0.00    +0.000 A 
ATOM     27  C   UNL     1       2.445   3.659  17.990  0.00  0.00    +0.000 A 
ATOM     28  C   UNL     1       1.741   2.443  18.017  0.00  0.00    +0.000 A 
ATOM     29  C   UNL     1       0.833   2.163  19.036  0.00  0.00    +0.000 A 
ATOM     30  C   UNL     1       0.606   3.104  20.029  0.00  0.00    +0.000 A 
ATOM     31  C   UNL     1       1.287   4.322  20.000  0.00  0.00    +0.000 A 
ATOM     32  C   UNL     1       2.234   4.638  18.993  0.00  0.00    +0.000 A 
ATOM     33  C   UNL     1       2.983   5.863  18.941  0.00  0.00    +0.000 A 
BRANCH  24  35
ATOM     34  C   UNL     1       5.994   7.127  17.311  0.00  0.00    +0.000 C 
ATOM     35  O   UNL     1       4.747   7.158  17.997  0.00  0.00    +0.000 OA
ENDBRANCH  24  35
ENDBRANCH  23  33
ENDBRANCH   1  23
TORSDOF 5
ENDMDL
MODEL 8
REMARK VINA RESULT:      -8.2      2.798      4.426
REMARK  Name = 
REMARK  6 active torsions:
REMARK  status: ('A' for Active; 'I' for Inactive)
REMARK    1  A    between atoms: C_1  and  O_2
REMARK    2  A    between atoms: O_2  and  C_3
REMARK    3  A    between atoms: C_12  and  C_13
REMARK    4  A    between atoms: C_13  and  N_14
REMARK    5  A    between atoms: C_26  and  N_27
REMARK    6  A    between atoms: N_27  and  C_28
REMARK                            x       y       z     vdW  Elec       q    Type
REMARK                         _______ _______ _______ _____ _____    ______ ____
ROOT
ATOM      1  N   UNL     1       2.318   7.799  18.654  0.00  0.00    +0.000 N 
ATOM      2  C   UNL     1       2.257   7.071  19.829  0.00  0.00    +0.000 A 
ATOM      3  N   UNL     1       1.662   7.439  20.919  0.00  0.00    +0.000 NA
ATOM      4  C   UNL     1       1.074   8.658  20.838  0.00  0.00    +0.000 A 
ATOM      5  S   UNL     1       0.139   9.288  22.121  0.00  0.00    +0.000 S 
ATOM      6  C   UNL     1      -0.137  10.738  21.275  0.00  0.00    +0.000 A 
ATOM      7  C   UNL     1       0.468  10.763  20.033  0.00  0.00    +0.000 A 
ATOM      8  C   UNL     1       1.126   9.527  19.766  0.00  0.00    +0.000 A 
ATOM      9  C   UNL     1       1.818   9.094  18.568  0.00  0.00    +0.000 A 
ATOM     10  O   UNL     1       1.901   9.799  17.565  0.00  0.00    +0.000 OA
ATOM     11  C   UNL     1       0.469  11.991  19.164  0.00  0.00    +0.000 C 
ATOM     12  C   UNL     1      -0.390  13.132  19.745  0.00  0.00    +0.000 C 
ATOM     13  C   UNL     1      -0.328  13.213  21.295  0.00  0.00    +0.000 C 
ATOM     14  C   UNL     1      -0.907  11.882  21.851  0.00  0.00    +0.000 C 
ENDROOT
BRANCH  13  15
ATOM     15  N   UNL     1       1.065  13.504  21.682  0.00  0.00    +0.000 NA
ATOM     16  H   UNL     1       1.635  12.663  21.603  0.00  0.00    +0.000 HD
BRANCH  15  17
ATOM     17  C   UNL     1       1.727  14.629  21.013  0.00  0.00    +0.000 C 
ATOM     18  C   UNL     1       3.136  14.280  20.526  0.00  0.00    +0.000 C 
ATOM     19  C   UNL     1       3.864  15.527  20.037  0.00  0.00    +0.000 C 
ATOM     20  O   UNL     1       3.900  16.526  21.052  0.00  0.00    +0.000 OA
ATOM     21  C   UNL     1       2.590  16.960  21.416  0.00  0.00    +0.000 C 
ATOM     22  C   UNL     1       1.786  15.809  21.998  0.00  0.00    +0.000 C 
ENDBRANCH  15  17
ENDBRANCH  13  15
BRANCH   1  23
ATOM     23  C   UNL     1       2.840   7.179  17.456  0.00  0.00    +0.000 C 
BRANCH  23  33
ATOM     24  C   UNL     1       5.199   6.109  17.488  0.00  0.00    +0.000 A 
ATOM     25  C   UNL     1       5.990   4.958  17.502  0.00  0.00    +0.000 A 
ATOM     26  C   UNL     1       5.411   3.699  17.630  0.00  0.00    +0.000 A 
ATOM     27  C   UNL     1       4.032   3.556  17.782  0.00  0.00    +0.000 A 
ATOM     28  C   UNL     1       3.486   2.275  17.971  0.00  0.00    +0.000 A 
ATOM     29  C   UNL     1       2.115   2.101  18.158  0.00  0.00    +0.000 A 
ATOM     30  C   UNL     1       1.276   3.205  18.138  0.00  0.00    +0.000 A 
ATOM     31  C   UNL     1       1.808   4.478  17.932  0.00  0.00    +0.000 A 
ATOM     32  C   UNL     1       3.198   4.701  17.758  0.00  0.00    +0.000 A 
ATOM     33  C   UNL     1       3.794   5.996  17.577  0.00  0.00    +0.000 A 
BRANCH  24  35
ATOM     34  C   UNL     1       7.159   7.478  17.456  0.00  0.00    +0.000 C 
ATOM     35  O   UNL     1       5.740   7.367  17.458  0.00  0.00    +0.000 OA
ENDBRANCH  24  35
ENDBRANCH  23  33
ENDBRANCH   1  23
TORSDOF 5
ENDMDL
MODEL 9
REMARK VINA RESULT:      -8.2      1.449      3.036
REMARK  Name = 
REMARK  6 active torsions:
REMARK  status: ('A' for Active; 'I' for Inactive)
REMARK    1  A    between atoms: C_1  and  O_2
REMARK    2  A    between atoms: O_2  and  C_3
REMARK    3  A    between atoms: C_12  and  C_13
REMARK    4  A    between atoms: C_13  and  N_14
REMARK    5  A    between atoms: C_26  and  N_27
REMARK    6  A    between atoms: N_27  and  C_28
REMARK                            x       y       z     vdW  Elec       q    Type
REMARK                         _______ _______ _______ _____ _____    ______ ____
ROOT
ATOM      1  N   UNL     1       2.110   7.758  19.390  0.00  0.00    +0.000 N 
ATOM      2  C   UNL     1       2.200   8.242  18.097  0.00  0.00    +0.000 A 
ATOM      3  N   UNL     1       1.796   9.404  17.693  0.00  0.00    +0.000 NA
ATOM      4  C   UNL     1       1.236  10.160  18.670  0.00  0.00    +0.000 A 
ATOM      5  S   UNL     1       0.739  11.769  18.382  0.00  0.00    +0.000 S 
ATOM      6  C   UNL     1       0.156  11.927  19.972  0.00  0.00    +0.000 A 
ATOM      7  C   UNL     1       0.327  10.782  20.727  0.00  0.00    +0.000 A 
ATOM      8  C   UNL     1       1.005   9.777  19.975  0.00  0.00    +0.000 A 
ATOM      9  C   UNL     1       1.450   8.462  20.392  0.00  0.00    +0.000 A 
ATOM     10  O   UNL     1       1.294   8.047  21.538  0.00  0.00    +0.000 OA
ATOM     11  C   UNL     1      -0.229  10.646  22.118  0.00  0.00    +0.000 C 
ATOM     12  C   UNL     1      -0.858  11.954  22.638  0.00  0.00    +0.000 C 
ATOM     13  C   UNL     1      -1.586  12.762  21.530  0.00  0.00    +0.000 C 
ATOM     14  C   UNL     1      -0.520  13.162  20.472  0.00  0.00    +0.000 C 
ENDROOT
BRANCH  13  15
ATOM     15  N   UNL     1      -2.700  11.940  21.022  0.00  0.00    +0.000 NA
ATOM     16  H   UNL     1      -2.713  11.036  21.494  0.00  0.00    +0.000 HD
BRANCH  15  17
ATOM     17  C   UNL     1      -4.039  12.538  21.038  0.00  0.00    +0.000 C 
ATOM     18  C   UNL     1      -4.687  12.574  19.652  0.00  0.00    +0.000 C 
ATOM     19  C   UNL     1      -5.971  13.393  19.675  0.00  0.00    +0.000 C 
ATOM     20  O   UNL     1      -5.727  14.708  20.165  0.00  0.00    +0.000 OA
ATOM     21  C   UNL     1      -5.253  14.693  21.511  0.00  0.00    +0.000 C 
ATOM     22  C   UNL     1      -3.922  13.964  21.603  0.00  0.00    +0.000 C 
ENDBRANCH  15  17
ENDBRANCH  13  15
BRANCH   1  23
ATOM     23  C   UNL     1       2.785   6.527  19.740  0.00  0.00    +0.000 C 
BRANCH  23  33
ATOM     24  C   UNL     1       1.934   4.288  18.753  0.00  0.00    +0.000 A 
ATOM     25  C   UNL     1       2.115   3.230  17.860  0.00  0.00    +0.000 A 
ATOM     26  C   UNL     1       3.153   3.252  16.932  0.00  0.00    +0.000 A 
ATOM     27  C   UNL     1       4.015   4.344  16.847  0.00  0.00    +0.000 A 
ATOM     28  C   UNL     1       5.014   4.362  15.858  0.00  0.00    +0.000 A 
ATOM     29  C   UNL     1       5.872   5.453  15.725  0.00  0.00    +0.000 A 
ATOM     30  C   UNL     1       5.752   6.528  16.594  0.00  0.00    +0.000 A 
ATOM     31  C   UNL     1       4.776   6.509  17.591  0.00  0.00    +0.000 A 
ATOM     32  C   UNL     1       3.870   5.429  17.746  0.00  0.00    +0.000 A 
ATOM     33  C   UNL     1       2.828   5.382  18.735  0.00  0.00    +0.000 A 
BRANCH  24  35
ATOM     34  C   UNL     1       0.860   3.438  20.712  0.00  0.00    +0.000 C 
ATOM     35  O   UNL     1       0.871   4.344  19.615  0.00  0.00    +0.000 OA
ENDBRANCH  24  35
ENDBRANCH  23  33
ENDBRANCH   1  23
TORSDOF 5
ENDMDL
