MODEL 1
REMARK VINA RESULT:      -7.0      0.000      0.000
REMARK  Name = 
REMARK  3 active torsions:
REMARK  status: ('A' for Active; 'I' for Inactive)
REMARK    1  A    between atoms: C_2  and  C_3
REMARK    2  A    between atoms: C_12  and  C_13
REMARK    3  A    between atoms: C_15  and  N_16
REMARK                            x       y       z     vdW  Elec       q    Type
REMARK                         _______ _______ _______ _____ _____    ______ ____
ROOT
ATOM      1  O   UNL     1       0.784   8.852  21.706  0.00  0.00    +0.000 OA
ATOM      2  C   UNL     1       1.079   8.883  20.508  0.00  0.00    +0.000 C 
ATOM      3  N   UNL     1       1.719   7.809  19.880  0.00  0.00    +0.000 N 
ATOM      4  C   UNL     1       2.278   7.850  18.531  0.00  0.00    +0.000 C 
ATOM      5  C   UNL     1       2.007   6.552  17.778  0.00  0.00    +0.000 C 
ATOM      6  C   UNL     1       2.466   5.310  18.553  0.00  0.00    +0.000 C 
ATOM      7  C   UNL     1       1.945   5.349  19.999  0.00  0.00    +0.000 C 
ATOM      8  C   UNL     1       2.166   6.688  20.702  0.00  0.00    +0.000 C 
ENDROOT
BRANCH   2   9
ATOM      9  C   UNL     1       0.755  10.117  19.643  0.00  0.00    +0.000 C 
ATOM     10  C   UNL     1       1.060  11.427  20.399  0.00  0.00    +0.000 C 
ATOM     11  N   UNL     1       0.765  12.622  19.570  0.00  0.00    +0.000 NA
ATOM     12  C   UNL     1      -0.640  12.535  19.129  0.00  0.00    +0.000 C 
ATOM     13  C   UNL     1      -0.950  11.208  18.419  0.00  0.00    +0.000 C 
ATOM     14  O   UNL     1      -0.622  10.077  19.233  0.00  0.00    +0.000 OA
ATOM     15  H   UNL     1       1.368  12.602  18.748  0.00  0.00    +0.000 HD
ENDBRANCH   2   9
BRANCH   6  16
ATOM     16  C   UNL     1       3.969   5.098  18.446  0.00  0.00    +0.000 A 
ATOM     17  C   UNL     1       4.518   4.665  17.251  0.00  0.00    +0.000 A 
ATOM     18  C   UNL     1       5.894   4.496  17.174  0.00  0.00    +0.000 A 
ATOM     19  N   UNL     1       6.661   4.719  18.254  0.00  0.00    +0.000 NA
ATOM     20  C   UNL     1       6.048   5.143  19.368  0.00  0.00    +0.000 A 
ATOM     21  N   UNL     1       4.735   5.366  19.517  0.00  0.00    +0.000 NA
BRANCH  18  22
ATOM     22  N   UNL     1       6.483   4.073  15.984  0.00  0.00    +0.000 N 
ATOM     23  C   UNL     1       7.522   4.912  15.377  0.00  0.00    +0.000 C 
ATOM     24  C   UNL     1       7.040   5.144  13.948  0.00  0.00    +0.000 C 
ATOM     25  C   UNL     1       6.276   3.870  13.633  0.00  0.00    +0.000 C 
ATOM     26  C   UNL     1       5.580   3.553  14.952  0.00  0.00    +0.000 C 
ENDBRANCH  18  22
ENDBRANCH   6  16
TORSDOF 3
ENDMDL
MODEL 2
REMARK VINA RESULT:      -6.6      3.938      5.937
REMARK  Name = 
REMARK  3 active torsions:
REMARK  status: ('A' for Active; 'I' for Inactive)
REMARK    1  A    between atoms: C_2  and  C_3
REMARK    2  A    between atoms: C_12  and  C_13
REMARK    3  A    between atoms: C_15  and  N_16
REMARK                            x       y       z     vdW  Elec       q    Type
REMARK                         _______ _______ _______ _____ _____    ______ ____
ROOT
ATOM      1  O   UNL     1       2.514   6.515  18.436  0.00  0.00    +0.000 OA
ATOM      2  C   UNL     1       3.119   5.445  18.327  0.00  0.00    +0.000 C 
ATOM      3  N   UNL     1       4.281   5.332  17.555  0.00  0.00    +0.000 N 
ATOM      4  C   UNL     1       4.932   4.068  17.217  0.00  0.00    +0.000 C 
ATOM      5  C   UNL     1       6.450   4.189  17.290  0.00  0.00    +0.000 C 
ATOM      6  C   UNL     1       6.993   5.358  16.456  0.00  0.00    +0.000 C 
ATOM      7  C   UNL     1       6.218   6.650  16.764  0.00  0.00    +0.000 C 
ATOM      8  C   UNL     1       4.700   6.479  16.755  0.00  0.00    +0.000 C 
ENDROOT
BRANCH   2   9
ATOM      9  C   UNL     1       2.618   4.174  19.041  0.00  0.00    +0.000 C 
ATOM     10  C   UNL     1       1.090   4.218  19.255  0.00  0.00    +0.000 C 
ATOM     11  N   UNL     1       0.595   2.992  19.929  0.00  0.00    +0.000 NA
ATOM     12  C   UNL     1       1.341   2.833  21.192  0.00  0.00    +0.000 C 
ATOM     13  C   UNL     1       2.863   2.838  20.978  0.00  0.00    +0.000 C 
ATOM     14  O   UNL     1       3.302   4.018  20.296  0.00  0.00    +0.000 OA
ATOM     15  H   UNL     1       0.791   2.191  19.330  0.00  0.00    +0.000 HD
ENDBRANCH   2   9
BRANCH   6  16
ATOM     16  C   UNL     1       7.058   5.017  14.976  0.00  0.00    +0.000 A 
ATOM     17  C   UNL     1       6.125   4.153  14.427  0.00  0.00    +0.000 A 
ATOM     18  C   UNL     1       6.196   3.872  13.069  0.00  0.00    +0.000 A 
ATOM     19  N   UNL     1       7.175   4.407  12.321  0.00  0.00    +0.000 NA
ATOM     20  C   UNL     1       8.032   5.238  12.932  0.00  0.00    +0.000 A 
ATOM     21  N   UNL     1       8.013   5.591  14.224  0.00  0.00    +0.000 NA
BRANCH  18  22
ATOM     22  N   UNL     1       5.266   3.016  12.482  0.00  0.00    +0.000 N 
ATOM     23  C   UNL     1       5.754   1.922  11.635  0.00  0.00    +0.000 C 
ATOM     24  C   UNL     1       5.009   2.097  10.315  0.00  0.00    +0.000 C 
ATOM     25  C   UNL     1       3.684   2.698  10.749  0.00  0.00    +0.000 C 
ATOM     26  C   UNL     1       4.087   3.643  11.875  0.00  0.00    +0.000 C 
ENDBRANCH  18  22
ENDBRANCH   6  16
TORSDOF 3
ENDMDL
MODEL 3
REMARK VINA RESULT:      -6.5      2.861      9.313
REMARK  Name = 
REMARK  3 active torsions:
REMARK  status: ('A' for Active; 'I' for Inactive)
REMARK    1  A    between atoms: C_2  and  C_3
REMARK    2  A    between atoms: C_12  and  C_13
REMARK    3  A    between atoms: C_15  and  N_16
REMARK                            x       y       z     vdW  Elec       q    Type
REMARK                         _______ _______ _______ _____ _____    ______ ____
ROOT
ATOM      1  O   UNL     1       2.770   5.956  20.162  0.00  0.00    +0.000 OA
ATOM      2  C   UNL     1       2.703   6.604  19.114  0.00  0.00    +0.000 C 
ATOM      3  N   UNL     1       2.009   7.817  19.042  0.00  0.00    +0.000 N 
ATOM      4  C   UNL     1       1.715   8.533  17.802  0.00  0.00    +0.000 C 
ATOM      5  C   UNL     1       1.888  10.038  17.976  0.00  0.00    +0.000 C 
ATOM      6  C   UNL     1       1.091  10.593  19.165  0.00  0.00    +0.000 C 
ATOM      7  C   UNL     1       1.347   9.756  20.429  0.00  0.00    +0.000 C 
ATOM      8  C   UNL     1       1.237   8.248  20.205  0.00  0.00    +0.000 C 
ENDROOT
BRANCH   2   9
ATOM      9  C   UNL     1       3.382   6.102  17.824  0.00  0.00    +0.000 C 
ATOM     10  C   UNL     1       3.556   4.568  17.844  0.00  0.00    +0.000 C 
ATOM     11  N   UNL     1       4.197   4.072  16.601  0.00  0.00    +0.000 NA
ATOM     12  C   UNL     1       5.477   4.785  16.433  0.00  0.00    +0.000 C 
ATOM     13  C   UNL     1       5.305   6.312  16.462  0.00  0.00    +0.000 C 
ATOM     14  O   UNL     1       4.653   6.753  17.658  0.00  0.00    +0.000 OA
ATOM     15  H   UNL     1       3.590   4.295  15.812  0.00  0.00    +0.000 HD
ENDBRANCH   2   9
BRANCH   6  16
ATOM     16  C   UNL     1      -0.382  10.768  18.828  0.00  0.00    +0.000 A 
ATOM     17  C   UNL     1      -1.157  11.643  19.570  0.00  0.00    +0.000 A 
ATOM     18  C   UNL     1      -2.495  11.796  19.231  0.00  0.00    +0.000 A 
ATOM     19  N   UNL     1      -3.022  11.081  18.224  0.00  0.00    +0.000 NA
ATOM     20  C   UNL     1      -2.197  10.263  17.553  0.00  0.00    +0.000 A 
ATOM     21  N   UNL     1      -0.890  10.083  17.791  0.00  0.00    +0.000 NA
BRANCH  18  22
ATOM     22  N   UNL     1      -3.303  12.677  19.949  0.00  0.00    +0.000 N 
ATOM     23  C   UNL     1      -2.896  13.055  21.307  0.00  0.00    +0.000 C 
ATOM     24  C   UNL     1      -4.111  12.734  22.174  0.00  0.00    +0.000 C 
ATOM     25  C   UNL     1      -5.276  12.963  21.227  0.00  0.00    +0.000 C 
ATOM     26  C   UNL     1      -4.748  12.434  19.898  0.00  0.00    +0.000 C 
ENDBRANCH  18  22
ENDBRANCH   6  16
TORSDOF 3
ENDMDL
MODEL 4
REMARK VINA RESULT:      -6.5      0.814      1.109
REMARK  Name = 
REMARK  3 active torsions:
REMARK  status: ('A' for Active; 'I' for Inactive)
REMARK    1  A    between atoms: C_2  and  C_3
REMARK    2  A    between atoms: C_12  and  C_13
REMARK    3  A    between atoms: C_15  and  N_16
REMARK                            x       y       z     vdW  Elec       q    Type
REMARK                         _______ _______ _______ _____ _____    ______ ____
ROOT
ATOM      1  O   UNL     1       0.945   9.747  21.296  0.00  0.00    +0.000 OA
ATOM      2  C   UNL     1       1.035   9.510  20.088  0.00  0.00    +0.000 C 
ATOM      3  N   UNL     1       1.606   8.326  19.609  0.00  0.00    +0.000 N 
ATOM      4  C   UNL     1       1.929   8.068  18.207  0.00  0.00    +0.000 C 
ATOM      5  C   UNL     1       1.591   6.634  17.816  0.00  0.00    +0.000 C 
ATOM      6  C   UNL     1       2.226   5.597  18.753  0.00  0.00    +0.000 C 
ATOM      7  C   UNL     1       1.952   5.955  20.223  0.00  0.00    +0.000 C 
ATOM      8  C   UNL     1       2.231   7.418  20.567  0.00  0.00    +0.000 C 
ENDROOT
BRANCH   2   9
ATOM      9  C   UNL     1       0.519  10.519  19.042  0.00  0.00    +0.000 C 
ATOM     10  C   UNL     1       1.228  11.883  19.182  0.00  0.00    +0.000 C 
ATOM     11  N   UNL     1       0.749  12.857  18.171  0.00  0.00    +0.000 NA
ATOM     12  C   UNL     1      -0.716  12.965  18.300  0.00  0.00    +0.000 C 
ATOM     13  C   UNL     1      -1.414  11.598  18.207  0.00  0.00    +0.000 C 
ATOM     14  O   UNL     1      -0.904  10.672  19.173  0.00  0.00    +0.000 OA
ATOM     15  H   UNL     1       0.972  12.498  17.243  0.00  0.00    +0.000 HD
ENDBRANCH   2   9
BRANCH   6  16
ATOM     16  C   UNL     1       3.697   5.373  18.438  0.00  0.00    +0.000 A 
ATOM     17  C   UNL     1       4.141   5.464  17.129  0.00  0.00    +0.000 A 
ATOM     18  C   UNL     1       5.492   5.271  16.871  0.00  0.00    +0.000 A 
ATOM     19  N   UNL     1       6.334   4.971  17.874  0.00  0.00    +0.000 NA
ATOM     20  C   UNL     1       5.820   4.911  19.111  0.00  0.00    +0.000 A 
ATOM     21  N   UNL     1       4.541   5.118  19.452  0.00  0.00    +0.000 NA
BRANCH  18  22
ATOM     22  N   UNL     1       5.977   5.367  15.567  0.00  0.00    +0.000 N 
ATOM     23  C   UNL     1       5.191   4.772  14.480  0.00  0.00    +0.000 C 
ATOM     24  C   UNL     1       6.169   3.846  13.763  0.00  0.00    +0.000 C 
ATOM     25  C   UNL     1       7.503   4.544  13.955  0.00  0.00    +0.000 C 
ATOM     26  C   UNL     1       7.404   5.092  15.374  0.00  0.00    +0.000 C 
ENDBRANCH  18  22
ENDBRANCH   6  16
TORSDOF 3
ENDMDL
MODEL 5
REMARK VINA RESULT:      -6.4      1.849      2.190
REMARK  Name = 
REMARK  3 active torsions:
REMARK  status: ('A' for Active; 'I' for Inactive)
REMARK    1  A    between atoms: C_2  and  C_3
REMARK    2  A    between atoms: C_12  and  C_13
REMARK    3  A    between atoms: C_15  and  N_16
REMARK                            x       y       z     vdW  Elec       q    Type
REMARK                         _______ _______ _______ _____ _____    ______ ____
ROOT
ATOM      1  O   UNL     1       0.523   9.154  21.765  0.00  0.00    +0.000 OA
ATOM      2  C   UNL     1       0.977   9.122  20.618  0.00  0.00    +0.000 C 
ATOM      3  N   UNL     1       1.497   7.947  20.064  0.00  0.00    +0.000 N 
ATOM      4  C   UNL     1       2.231   7.878  18.803  0.00  0.00    +0.000 C 
ATOM      5  C   UNL     1       1.839   6.643  18.000  0.00  0.00    +0.000 C 
ATOM      6  C   UNL     1       1.963   5.345  18.809  0.00  0.00    +0.000 C 
ATOM      7  C   UNL     1       1.265   5.486  20.172  0.00  0.00    +0.000 C 
ATOM      8  C   UNL     1       1.623   6.770  20.920  0.00  0.00    +0.000 C 
ENDROOT
BRANCH   2   9
ATOM      9  C   UNL     1       0.997  10.387  19.737  0.00  0.00    +0.000 C 
ATOM     10  C   UNL     1       1.380  11.636  20.559  0.00  0.00    +0.000 C 
ATOM     11  N   UNL     1       1.416  12.858  19.717  0.00  0.00    +0.000 NA
ATOM     12  C   UNL     1       0.104  12.995  19.057  0.00  0.00    +0.000 C 
ATOM     13  C   UNL     1      -0.294  11.730  18.279  0.00  0.00    +0.000 C 
ATOM     14  O   UNL     1      -0.285  10.566  19.113  0.00  0.00    +0.000 OA
ATOM     15  H   UNL     1       2.133  12.738  19.002  0.00  0.00    +0.000 HD
ENDBRANCH   2   9
BRANCH   6  16
ATOM     16  C   UNL     1       3.404   4.868  18.901  0.00  0.00    +0.000 A 
ATOM     17  C   UNL     1       4.414   5.616  18.319  0.00  0.00    +0.000 A 
ATOM     18  C   UNL     1       5.723   5.168  18.432  0.00  0.00    +0.000 A 
ATOM     19  N   UNL     1       5.988   4.015  19.068  0.00  0.00    +0.000 NA
ATOM     20  C   UNL     1       4.952   3.359  19.610  0.00  0.00    +0.000 A 
ATOM     21  N   UNL     1       3.667   3.738  19.578  0.00  0.00    +0.000 NA
BRANCH  18  22
ATOM     22  N   UNL     1       6.766   5.901  17.868  0.00  0.00    +0.000 N 
ATOM     23  C   UNL     1       8.009   6.057  18.632  0.00  0.00    +0.000 C 
ATOM     24  C   UNL     1       8.242   7.564  18.682  0.00  0.00    +0.000 C 
ATOM     25  C   UNL     1       7.640   8.046  17.374  0.00  0.00    +0.000 C 
ATOM     26  C   UNL     1       6.405   7.165  17.219  0.00  0.00    +0.000 C 
ENDBRANCH  18  22
ENDBRANCH   6  16
TORSDOF 3
ENDMDL
MODEL 6
REMARK VINA RESULT:      -6.4      6.749     11.239
REMARK  Name = 
REMARK  3 active torsions:
REMARK  status: ('A' for Active; 'I' for Inactive)
REMARK    1  A    between atoms: C_2  and  C_3
REMARK    2  A    between atoms: C_12  and  C_13
REMARK    3  A    between atoms: C_15  and  N_16
REMARK                            x       y       z     vdW  Elec       q    Type
REMARK                         _______ _______ _______ _____ _____    ______ ____
ROOT
ATOM      1  O   UNL     1       0.072  11.179  22.423  0.00  0.00    +0.000 OA
ATOM      2  C   UNL     1      -0.582  11.938  21.702  0.00  0.00    +0.000 C 
ATOM      3  N   UNL     1      -1.870  12.358  22.053  0.00  0.00    +0.000 N 
ATOM      4  C   UNL     1      -2.777  13.083  21.165  0.00  0.00    +0.000 C 
ATOM      5  C   UNL     1      -3.530  14.176  21.914  0.00  0.00    +0.000 C 
ATOM      6  C   UNL     1      -4.247  13.651  23.166  0.00  0.00    +0.000 C 
ATOM      7  C   UNL     1      -3.291  12.809  24.026  0.00  0.00    +0.000 C 
ATOM      8  C   UNL     1      -2.496  11.771  23.234  0.00  0.00    +0.000 C 
ENDROOT
BRANCH   2   9
ATOM      9  C   UNL     1      -0.007  12.458  20.370  0.00  0.00    +0.000 C 
ATOM     10  C   UNL     1       0.345  11.294  19.419  0.00  0.00    +0.000 C 
ATOM     11  N   UNL     1       0.886  11.785  18.128  0.00  0.00    +0.000 NA
ATOM     12  C   UNL     1       2.046  12.649  18.418  0.00  0.00    +0.000 C 
ATOM     13  C   UNL     1       1.702  13.778  19.403  0.00  0.00    +0.000 C 
ATOM     14  O   UNL     1       1.150  13.272  20.624  0.00  0.00    +0.000 OA
ATOM     15  H   UNL     1       0.168  12.343  17.666  0.00  0.00    +0.000 HD
ENDBRANCH   2   9
BRANCH   6  16
ATOM     16  C   UNL     1      -5.549  12.945  22.819  0.00  0.00    +0.000 A 
ATOM     17  C   UNL     1      -5.858  12.683  21.495  0.00  0.00    +0.000 A 
ATOM     18  C   UNL     1      -7.045  12.021  21.207  0.00  0.00    +0.000 A 
ATOM     19  N   UNL     1      -7.881  11.677  22.200  0.00  0.00    +0.000 NA
ATOM     20  C   UNL     1      -7.500  11.961  23.453  0.00  0.00    +0.000 A 
ATOM     21  N   UNL     1      -6.360  12.563  23.820  0.00  0.00    +0.000 NA
BRANCH  18  22
ATOM     22  N   UNL     1      -7.382  11.731  19.886  0.00  0.00    +0.000 N 
ATOM     23  C   UNL     1      -6.769  10.563  19.245  0.00  0.00    +0.000 C 
ATOM     24  C   UNL     1      -6.145  11.112  17.966  0.00  0.00    +0.000 C 
ATOM     25  C   UNL     1      -7.070  12.259  17.599  0.00  0.00    +0.000 C 
ATOM     26  C   UNL     1      -7.423  12.862  18.954  0.00  0.00    +0.000 C 
ENDBRANCH  18  22
ENDBRANCH   6  16
TORSDOF 3
ENDMDL
MODEL 7
REMARK VINA RESULT:      -6.4      3.806      6.737
REMARK  Name = 
REMARK  3 active torsions:
REMARK  status: ('A' for Active; 'I' for Inactive)
REMARK    1  A    between atoms: C_2  and  C_3
REMARK    2  A    between atoms: C_12  and  C_13
REMARK    3  A    between atoms: C_15  and  N_16
REMARK                            x       y       z     vdW  Elec       q    Type
REMARK                         _______ _______ _______ _____ _____    ______ ____
ROOT
ATOM      1  O   UNL     1      -5.036  10.676  17.351  0.00  0.00    +0.000 OA
ATOM      2  C   UNL     1      -4.473  11.375  18.197  0.00  0.00    +0.000 C 
ATOM      3  N   UNL     1      -3.124  11.197  18.520  0.00  0.00    +0.000 N 
ATOM      4  C   UNL     1      -2.447  11.841  19.644  0.00  0.00    +0.000 C 
ATOM      5  C   UNL     1      -1.042  12.292  19.261  0.00  0.00    +0.000 C 
ATOM      6  C   UNL     1      -0.201  11.160  18.656  0.00  0.00    +0.000 C 
ATOM      7  C   UNL     1      -0.981  10.438  17.545  0.00  0.00    +0.000 C 
ATOM      8  C   UNL     1      -2.411  10.065  17.934  0.00  0.00    +0.000 C 
ENDROOT
BRANCH   2   9
ATOM      9  C   UNL     1      -5.239  12.485  18.946  0.00  0.00    +0.000 C 
ATOM     10  C   UNL     1      -6.081  11.902  20.100  0.00  0.00    +0.000 C 
ATOM     11  N   UNL     1      -6.811  12.963  20.837  0.00  0.00    +0.000 NA
ATOM     12  C   UNL     1      -7.626  13.715  19.864  0.00  0.00    +0.000 C 
ATOM     13  C   UNL     1      -6.790  14.253  18.691  0.00  0.00    +0.000 C 
ATOM     14  O   UNL     1      -6.073  13.208  18.025  0.00  0.00    +0.000 OA
ATOM     15  H   UNL     1      -6.129  13.597  21.253  0.00  0.00    +0.000 HD
ENDBRANCH   2   9
BRANCH   6  16
ATOM     16  C   UNL     1       0.352  10.229  19.724  0.00  0.00    +0.000 A 
ATOM     17  C   UNL     1       1.054   9.095  19.352  0.00  0.00    +0.000 A 
ATOM     18  C   UNL     1       1.563   8.271  20.348  0.00  0.00    +0.000 A 
ATOM     19  N   UNL     1       1.344   8.563  21.640  0.00  0.00    +0.000 NA
ATOM     20  C   UNL     1       0.662   9.685  21.911  0.00  0.00    +0.000 A 
ATOM     21  N   UNL     1       0.169  10.551  21.016  0.00  0.00    +0.000 NA
BRANCH  18  22
ATOM     22  N   UNL     1       2.284   7.127  20.010  0.00  0.00    +0.000 N 
ATOM     23  C   UNL     1       2.736   6.966  18.623  0.00  0.00    +0.000 C 
ATOM     24  C   UNL     1       2.202   5.599  18.203  0.00  0.00    +0.000 C 
ATOM     25  C   UNL     1       2.209   4.815  19.503  0.00  0.00    +0.000 C 
ATOM     26  C   UNL     1       1.780   5.853  20.534  0.00  0.00    +0.000 C 
ENDBRANCH  18  22
ENDBRANCH   6  16
TORSDOF 3
ENDMDL
MODEL 8
REMARK VINA RESULT:      -6.4      2.642      8.338
REMARK  Name = 
REMARK  3 active torsions:
REMARK  status: ('A' for Active; 'I' for Inactive)
REMARK    1  A    between atoms: C_2  and  C_3
REMARK    2  A    between atoms: C_12  and  C_13
REMARK    3  A    between atoms: C_15  and  N_16
REMARK                            x       y       z     vdW  Elec       q    Type
REMARK                         _______ _______ _______ _____ _____    ______ ____
ROOT
ATOM      1  O   UNL     1       2.165   6.378  20.828  0.00  0.00    +0.000 OA
ATOM      2  C   UNL     1       2.111   7.025  19.779  0.00  0.00    +0.000 C 
ATOM      3  N   UNL     1       1.519   8.292  19.724  0.00  0.00    +0.000 N 
ATOM      4  C   UNL     1       1.238   9.024  18.491  0.00  0.00    +0.000 C 
ATOM      5  C   UNL     1       1.542  10.510  18.647  0.00  0.00    +0.000 C 
ATOM      6  C   UNL     1       0.840  11.135  19.860  0.00  0.00    +0.000 C 
ATOM      7  C   UNL     1       1.073  10.285  21.120  0.00  0.00    +0.000 C 
ATOM      8  C   UNL     1       0.830   8.790  20.912  0.00  0.00    +0.000 C 
ENDROOT
BRANCH   2   9
ATOM      9  C   UNL     1       2.697   6.462  18.468  0.00  0.00    +0.000 C 
ATOM     10  C   UNL     1       2.913   4.937  18.562  0.00  0.00    +0.000 C 
ATOM     11  N   UNL     1       3.464   4.382  17.300  0.00  0.00    +0.000 NA
ATOM     12  C   UNL     1       4.707   5.112  16.986  0.00  0.00    +0.000 C 
ATOM     13  C   UNL     1       4.496   6.634  16.941  0.00  0.00    +0.000 C 
ATOM     14  O   UNL     1       3.932   7.131  18.160  0.00  0.00    +0.000 OA
ATOM     15  H   UNL     1       2.790   4.545  16.553  0.00  0.00    +0.000 HD
ENDBRANCH   2   9
BRANCH   6  16
ATOM     16  C   UNL     1      -0.625  11.430  19.578  0.00  0.00    +0.000 A 
ATOM     17  C   UNL     1      -1.253  10.826  18.502  0.00  0.00    +0.000 A 
ATOM     18  C   UNL     1      -2.596  11.100  18.277  0.00  0.00    +0.000 A 
ATOM     19  N   UNL     1      -3.251  11.959  19.074  0.00  0.00    +0.000 NA
ATOM     20  C   UNL     1      -2.568  12.492  20.097  0.00  0.00    +0.000 A 
ATOM     21  N   UNL     1      -1.286  12.256  20.406  0.00  0.00    +0.000 NA
BRANCH  18  22
ATOM     22  N   UNL     1      -3.263  10.500  17.210  0.00  0.00    +0.000 N 
ATOM     23  C   UNL     1      -2.518   9.584  16.340  0.00  0.00    +0.000 C 
ATOM     24  C   UNL     1      -2.735  10.131  14.932  0.00  0.00    +0.000 C 
ATOM     25  C   UNL     1      -4.120  10.749  15.016  0.00  0.00    +0.000 C 
ATOM     26  C   UNL     1      -4.136  11.366  16.411  0.00  0.00    +0.000 C 
ENDBRANCH  18  22
ENDBRANCH   6  16
TORSDOF 3
ENDMDL
MODEL 9
REMARK VINA RESULT:      -6.2      2.508      4.609
REMARK  Name = 
REMARK  3 active torsions:
REMARK  status: ('A' for Active; 'I' for Inactive)
REMARK    1  A    between atoms: C_2  and  C_3
REMARK    2  A    between atoms: C_12  and  C_13
REMARK    3  A    between atoms: C_15  and  N_16
REMARK                            x       y       z     vdW  Elec       q    Type
REMARK                         _______ _______ _______ _____ _____    ______ ____
ROOT
ATOM      1  O   UNL     1      -2.180  11.602  17.126  0.00  0.00    +0.000 OA
ATOM      2  C   UNL     1      -2.012  11.310  18.313  0.00  0.00    +0.000 C 
ATOM      3  N   UNL     1      -0.899  10.576  18.740  0.00  0.00    +0.000 N 
ATOM      4  C   UNL     1      -0.736  10.023  20.083  0.00  0.00    +0.000 C 
ATOM      5  C   UNL     1       0.698  10.178  20.576  0.00  0.00    +0.000 C 
ATOM      6  C   UNL     1       1.729   9.611  19.591  0.00  0.00    +0.000 C 
ATOM      7  C   UNL     1       1.467  10.136  18.169  0.00  0.00    +0.000 C 
ATOM      8  C   UNL     1       0.006  10.034  17.731  0.00  0.00    +0.000 C 
ENDROOT
BRANCH   2   9
ATOM      9  C   UNL     1      -3.030  11.740  19.388  0.00  0.00    +0.000 C 
ATOM     10  C   UNL     1      -4.468  11.745  18.827  0.00  0.00    +0.000 C 
ATOM     11  N   UNL     1      -5.458  12.144  19.858  0.00  0.00    +0.000 NA
ATOM     12  C   UNL     1      -5.054  13.458  20.393  0.00  0.00    +0.000 C 
ATOM     13  C   UNL     1      -3.605  13.460  20.907  0.00  0.00    +0.000 C 
ATOM     14  O   UNL     1      -2.681  13.038  19.898  0.00  0.00    +0.000 OA
ATOM     15  H   UNL     1      -5.433  11.460  20.613  0.00  0.00    +0.000 HD
ENDBRANCH   2   9
BRANCH   6  16
ATOM     16  C   UNL     1       1.827   8.096  19.680  0.00  0.00    +0.000 A 
ATOM     17  C   UNL     1       2.320   7.375  18.606  0.00  0.00    +0.000 A 
ATOM     18  C   UNL     1       2.415   5.994  18.720  0.00  0.00    +0.000 A 
ATOM     19  N   UNL     1       2.003   5.381  19.842  0.00  0.00    +0.000 NA
ATOM     20  C   UNL     1       1.546   6.157  20.835  0.00  0.00    +0.000 A 
ATOM     21  N   UNL     1       1.455   7.494  20.822  0.00  0.00    +0.000 NA
BRANCH  18  22
ATOM     22  N   UNL     1       2.918   5.237  17.663  0.00  0.00    +0.000 N 
ATOM     23  C   UNL     1       2.732   3.782  17.690  0.00  0.00    +0.000 C 
ATOM     24  C   UNL     1       4.138   3.213  17.518  0.00  0.00    +0.000 C 
ATOM     25  C   UNL     1       4.826   4.258  16.658  0.00  0.00    +0.000 C 
ATOM     26  C   UNL     1       4.269   5.570  17.200  0.00  0.00    +0.000 C 
ENDBRANCH  18  22
ENDBRANCH   6  16
TORSDOF 3
ENDMDL
