MODEL 1
REMARK VINA RESULT:      -6.3      0.000      0.000
REMARK  Name = 
REMARK  8 active torsions:
REMARK  status: ('A' for Active; 'I' for Inactive)
REMARK    1  A    between atoms: C_1  and  C_2
REMARK    2  A    between atoms: C_2  and  O_3
REMARK    3  A    between atoms: O_3  and  C_4
REMARK    4  A    between atoms: C_4  and  C_5
REMARK    5  A    between atoms: C_5  and  N_6
REMARK    6  A    between atoms: C_13  and  C_14
REMARK    7  A    between atoms: C_19  and  C_20
REMARK    8  A    between atoms: C_20  and  C_21
REMARK                            x       y       z     vdW  Elec       q    Type
REMARK                         _______ _______ _______ _____ _____    ______ ____
ROOT
ATOM      1  N   UNL     1       6.777   5.761  15.143  0.00  0.00    +0.000 NA
ATOM      2  C   UNL     1       5.317   5.520  15.084  0.00  0.00    +0.000 C 
ATOM      3  C   UNL     1       4.857   4.176  15.679  0.00  0.00    +0.000 C 
ATOM      4  N   UNL     1       5.366   4.011  17.037  0.00  0.00    +0.000 N 
ATOM      5  C   UNL     1       4.537   3.661  18.076  0.00  0.00    +0.000 A 
ATOM      6  C   UNL     1       3.450   2.807  17.868  0.00  0.00    +0.000 A 
ATOM      7  C   UNL     1       2.583   2.492  18.916  0.00  0.00    +0.000 A 
ATOM      8  C   UNL     1       2.814   3.046  20.169  0.00  0.00    +0.000 A 
ATOM      9  C   UNL     1       3.913   3.870  20.308  0.00  0.00    +0.000 A 
ATOM     10  N   UNL     1       4.775   4.171  19.304  0.00  0.00    +0.000 NA
ATOM     11  C   UNL     1       6.780   4.327  17.278  0.00  0.00    +0.000 C 
ATOM     12  C   UNL     1       7.225   5.644  16.566  0.00  0.00    +0.000 C 
ENDROOT
BRANCH   8  13
ATOM     13  C   UNL     1       1.950   2.778  21.266  0.00  0.00    +0.000 C 
ATOM     14  N   UNL     1       1.251   2.563  22.168  0.00  0.00    +0.000 NA
ENDBRANCH   8  13
BRANCH  12  15
ATOM     15  C   UNL     1       6.746   6.849  17.424  0.00  0.00    +0.000 C 
ATOM     16  C   UNL     1       7.754   7.983  17.536  0.00  0.00    +0.000 C 
ENDBRANCH  12  15
BRANCH   1  17
ATOM     17  C   UNL     1       7.532   4.869  14.225  0.00  0.00    +0.000 C 
BRANCH  17  18
ATOM     18  C   UNL     1       7.233   5.198  12.746  0.00  0.00    +0.000 C 
BRANCH  18  19
ATOM     19  O   UNL     1       7.239   4.053  11.882  0.00  0.00    +0.000 OA
BRANCH  19  21
ATOM     20  C   UNL     1       4.871   3.487  11.855  0.00  0.00    +0.000 C 
ATOM     21  C   UNL     1       6.254   3.117  12.348  0.00  0.00    +0.000 C 
ENDBRANCH  19  21
ENDBRANCH  18  19
ENDBRANCH  17  18
ENDBRANCH   1  17
TORSDOF 6
ENDMDL
MODEL 2
REMARK VINA RESULT:      -6.0      3.335      4.107
REMARK  Name = 
REMARK  8 active torsions:
REMARK  status: ('A' for Active; 'I' for Inactive)
REMARK    1  A    between atoms: C_1  and  C_2
REMARK    2  A    between atoms: C_2  and  O_3
REMARK    3  A    between atoms: O_3  and  C_4
REMARK    4  A    between atoms: C_4  and  C_5
REMARK    5  A    between atoms: C_5  and  N_6
REMARK    6  A    between atoms: C_13  and  C_14
REMARK    7  A    between atoms: C_19  and  C_20
REMARK    8  A    between atoms: C_20  and  C_21
REMARK                            x       y       z     vdW  Elec       q    Type
REMARK                         _______ _______ _______ _____ _____    ______ ____
ROOT
ATOM      1  N   UNL     1       5.734   4.707  16.817  0.00  0.00    +0.000 NA
ATOM      2  C   UNL     1       5.818   6.125  17.238  0.00  0.00    +0.000 C 
ATOM      3  C   UNL     1       4.495   6.908  17.143  0.00  0.00    +0.000 C 
ATOM      4  N   UNL     1       3.428   6.209  17.851  0.00  0.00    +0.000 N 
ATOM      5  C   UNL     1       2.634   6.854  18.769  0.00  0.00    +0.000 A 
ATOM      6  C   UNL     1       2.290   8.198  18.598  0.00  0.00    +0.000 A 
ATOM      7  C   UNL     1       1.522   8.862  19.556  0.00  0.00    +0.000 A 
ATOM      8  C   UNL     1       1.108   8.168  20.686  0.00  0.00    +0.000 A 
ATOM      9  C   UNL     1       1.472   6.840  20.785  0.00  0.00    +0.000 A 
ATOM     10  N   UNL     1       2.202   6.175  19.853  0.00  0.00    +0.000 NA
ATOM     11  C   UNL     1       3.293   4.764  17.625  0.00  0.00    +0.000 C 
ATOM     12  C   UNL     1       4.672   4.030  17.625  0.00  0.00    +0.000 C 
ENDROOT
BRANCH   8  13
ATOM     13  C   UNL     1       0.344   8.801  21.705  0.00  0.00    +0.000 C 
ATOM     14  N   UNL     1      -0.284   9.309  22.538  0.00  0.00    +0.000 NA
ENDBRANCH   8  13
BRANCH  12  15
ATOM     15  C   UNL     1       5.114   3.820  19.100  0.00  0.00    +0.000 C 
ATOM     16  C   UNL     1       4.296   2.788  19.863  0.00  0.00    +0.000 C 
ENDBRANCH  12  15
BRANCH   1  17
ATOM     17  C   UNL     1       5.524   4.566  15.353  0.00  0.00    +0.000 C 
BRANCH  17  18
ATOM     18  C   UNL     1       6.843   4.757  14.573  0.00  0.00    +0.000 C 
BRANCH  18  19
ATOM     19  O   UNL     1       6.799   4.268  13.226  0.00  0.00    +0.000 OA
BRANCH  19  21
ATOM     20  C   UNL     1       5.605   2.719  11.776  0.00  0.00    +0.000 C 
ATOM     21  C   UNL     1       5.562   3.566  13.029  0.00  0.00    +0.000 C 
ENDBRANCH  19  21
ENDBRANCH  18  19
ENDBRANCH  17  18
ENDBRANCH   1  17
TORSDOF 6
ENDMDL
MODEL 3
REMARK VINA RESULT:      -5.6      3.739      4.104
REMARK  Name = 
REMARK  8 active torsions:
REMARK  status: ('A' for Active; 'I' for Inactive)
REMARK    1  A    between atoms: C_1  and  C_2
REMARK    2  A    between atoms: C_2  and  O_3
REMARK    3  A    between atoms: O_3  and  C_4
REMARK    4  A    between atoms: C_4  and  C_5
REMARK    5  A    between atoms: C_5  and  N_6
REMARK    6  A    between atoms: C_13  and  C_14
REMARK    7  A    between atoms: C_19  and  C_20
REMARK    8  A    between atoms: C_20  and  C_21
REMARK                            x       y       z     vdW  Elec       q    Type
REMARK                         _______ _______ _______ _____ _____    ______ ____
ROOT
ATOM      1  N   UNL     1       6.147   5.331  16.730  0.00  0.00    +0.000 NA
ATOM      2  C   UNL     1       5.950   6.798  16.694  0.00  0.00    +0.000 C 
ATOM      3  C   UNL     1       4.487   7.251  16.537  0.00  0.00    +0.000 C 
ATOM      4  N   UNL     1       3.640   6.628  17.549  0.00  0.00    +0.000 N 
ATOM      5  C   UNL     1       2.783   7.373  18.324  0.00  0.00    +0.000 A 
ATOM      6  C   UNL     1       2.148   8.505  17.803  0.00  0.00    +0.000 A 
ATOM      7  C   UNL     1       1.315   9.285  18.608  0.00  0.00    +0.000 A 
ATOM      8  C   UNL     1       1.130   8.921  19.936  0.00  0.00    +0.000 A 
ATOM      9  C   UNL     1       1.777   7.785  20.381  0.00  0.00    +0.000 A 
ATOM     10  N   UNL     1       2.574   7.006  19.607  0.00  0.00    +0.000 NA
ATOM     11  C   UNL     1       3.805   5.188  17.782  0.00  0.00    +0.000 C 
ATOM     12  C   UNL     1       5.307   4.761  17.830  0.00  0.00    +0.000 C 
ENDROOT
BRANCH   8  13
ATOM     13  C   UNL     1       0.312   9.693  20.807  0.00  0.00    +0.000 C 
ATOM     14  N   UNL     1      -0.361  10.313  21.520  0.00  0.00    +0.000 NA
ENDBRANCH   8  13
BRANCH  12  15
ATOM     15  C   UNL     1       5.872   5.116  19.233  0.00  0.00    +0.000 C 
ATOM     16  C   UNL     1       7.345   5.499  19.241  0.00  0.00    +0.000 C 
ENDBRANCH  12  15
BRANCH   1  17
ATOM     17  C   UNL     1       5.884   4.695  15.413  0.00  0.00    +0.000 C 
BRANCH  17  18
ATOM     18  C   UNL     1       7.107   4.807  14.478  0.00  0.00    +0.000 C 
BRANCH  18  19
ATOM     19  O   UNL     1       6.904   4.230  13.181  0.00  0.00    +0.000 OA
BRANCH  19  21
ATOM     20  C   UNL     1       5.100   3.295  11.838  0.00  0.00    +0.000 C 
ATOM     21  C   UNL     1       5.716   3.424  13.215  0.00  0.00    +0.000 C 
ENDBRANCH  19  21
ENDBRANCH  18  19
ENDBRANCH  17  18
ENDBRANCH   1  17
TORSDOF 6
ENDMDL
MODEL 4
REMARK VINA RESULT:      -5.6      4.355      5.479
REMARK  Name = 
REMARK  8 active torsions:
REMARK  status: ('A' for Active; 'I' for Inactive)
REMARK    1  A    between atoms: C_1  and  C_2
REMARK    2  A    between atoms: C_2  and  O_3
REMARK    3  A    between atoms: O_3  and  C_4
REMARK    4  A    between atoms: C_4  and  C_5
REMARK    5  A    between atoms: C_5  and  N_6
REMARK    6  A    between atoms: C_13  and  C_14
REMARK    7  A    between atoms: C_19  and  C_20
REMARK    8  A    between atoms: C_20  and  C_21
REMARK                            x       y       z     vdW  Elec       q    Type
REMARK                         _______ _______ _______ _____ _____    ______ ____
ROOT
ATOM      1  N   UNL     1       4.527   4.311  18.014  0.00  0.00    +0.000 NA
ATOM      2  C   UNL     1       5.064   5.689  17.942  0.00  0.00    +0.000 C 
ATOM      3  C   UNL     1       4.100   6.729  17.338  0.00  0.00    +0.000 C 
ATOM      4  N   UNL     1       2.812   6.698  18.022  0.00  0.00    +0.000 N 
ATOM      5  C   UNL     1       2.226   7.846  18.498  0.00  0.00    +0.000 A 
ATOM      6  C   UNL     1       2.377   9.061  17.823  0.00  0.00    +0.000 A 
ATOM      7  C   UNL     1       1.820  10.233  18.336  0.00  0.00    +0.000 A 
ATOM      8  C   UNL     1       1.115  10.176  19.533  0.00  0.00    +0.000 A 
ATOM      9  C   UNL     1       0.993   8.942  20.141  0.00  0.00    +0.000 A 
ATOM     10  N   UNL     1       1.513   7.790  19.644  0.00  0.00    +0.000 NA
ATOM     11  C   UNL     1       2.204   5.384  18.272  0.00  0.00    +0.000 C 
ATOM     12  C   UNL     1       3.244   4.336  18.783  0.00  0.00    +0.000 C 
ENDROOT
BRANCH   8  13
ATOM     13  C   UNL     1       0.547  11.343  20.113  0.00  0.00    +0.000 C 
ATOM     14  N   UNL     1       0.090  12.302  20.581  0.00  0.00    +0.000 NA
ENDBRANCH   8  13
BRANCH  12  15
ATOM     15  C   UNL     1       3.483   4.583  20.299  0.00  0.00    +0.000 C 
ATOM     16  C   UNL     1       2.231   4.487  21.159  0.00  0.00    +0.000 C 
ENDBRANCH  12  15
BRANCH   1  17
ATOM     17  C   UNL     1       4.383   3.692  16.671  0.00  0.00    +0.000 C 
BRANCH  17  18
ATOM     18  C   UNL     1       5.659   3.885  15.821  0.00  0.00    +0.000 C 
BRANCH  18  19
ATOM     19  O   UNL     1       5.413   4.423  14.515  0.00  0.00    +0.000 OA
BRANCH  19  21
ATOM     20  C   UNL     1       5.878   3.342  12.383  0.00  0.00    +0.000 C 
ATOM     21  C   UNL     1       6.453   3.980  13.630  0.00  0.00    +0.000 C 
ENDBRANCH  19  21
ENDBRANCH  18  19
ENDBRANCH  17  18
ENDBRANCH   1  17
TORSDOF 6
ENDMDL
MODEL 5
REMARK VINA RESULT:      -5.6      3.768      4.229
REMARK  Name = 
REMARK  8 active torsions:
REMARK  status: ('A' for Active; 'I' for Inactive)
REMARK    1  A    between atoms: C_1  and  C_2
REMARK    2  A    between atoms: C_2  and  O_3
REMARK    3  A    between atoms: O_3  and  C_4
REMARK    4  A    between atoms: C_4  and  C_5
REMARK    5  A    between atoms: C_5  and  N_6
REMARK    6  A    between atoms: C_13  and  C_14
REMARK    7  A    between atoms: C_19  and  C_20
REMARK    8  A    between atoms: C_20  and  C_21
REMARK                            x       y       z     vdW  Elec       q    Type
REMARK                         _______ _______ _______ _____ _____    ______ ____
ROOT
ATOM      1  N   UNL     1       6.228   4.984  16.931  0.00  0.00    +0.000 NA
ATOM      2  C   UNL     1       6.000   6.417  16.635  0.00  0.00    +0.000 C 
ATOM      3  C   UNL     1       4.524   6.811  16.439  0.00  0.00    +0.000 C 
ATOM      4  N   UNL     1       3.716   6.370  17.571  0.00  0.00    +0.000 N 
ATOM      5  C   UNL     1       2.863   7.229  18.221  0.00  0.00    +0.000 A 
ATOM      6  C   UNL     1       2.192   8.238  17.522  0.00  0.00    +0.000 A 
ATOM      7  C   UNL     1       1.364   9.138  18.195  0.00  0.00    +0.000 A 
ATOM      8  C   UNL     1       1.220   9.019  19.572  0.00  0.00    +0.000 A 
ATOM      9  C   UNL     1       1.900   7.993  20.197  0.00  0.00    +0.000 A 
ATOM     10  N   UNL     1       2.693   7.099  19.555  0.00  0.00    +0.000 NA
ATOM     11  C   UNL     1       3.915   4.998  18.057  0.00  0.00    +0.000 C 
ATOM     12  C   UNL     1       5.426   4.611  18.139  0.00  0.00    +0.000 C 
ENDROOT
BRANCH   8  13
ATOM     13  C   UNL     1       0.407   9.923  20.310  0.00  0.00    +0.000 C 
ATOM     14  N   UNL     1      -0.260  10.653  20.919  0.00  0.00    +0.000 NA
ENDBRANCH   8  13
BRANCH  12  15
ATOM     15  C   UNL     1       6.019   5.224  19.438  0.00  0.00    +0.000 C 
ATOM     16  C   UNL     1       7.517   5.487  19.385  0.00  0.00    +0.000 C 
ENDBRANCH  12  15
BRANCH   1  17
ATOM     17  C   UNL     1       5.944   4.116  15.759  0.00  0.00    +0.000 C 
BRANCH  17  18
ATOM     18  C   UNL     1       6.717   4.587  14.508  0.00  0.00    +0.000 C 
BRANCH  18  19
ATOM     19  O   UNL     1       6.440   3.819  13.328  0.00  0.00    +0.000 OA
BRANCH  19  21
ATOM     20  C   UNL     1       8.074   5.508  12.691  0.00  0.00    +0.000 C 
ATOM     21  C   UNL     1       7.189   4.369  12.233  0.00  0.00    +0.000 C 
ENDBRANCH  19  21
ENDBRANCH  18  19
ENDBRANCH  17  18
ENDBRANCH   1  17
TORSDOF 6
ENDMDL
MODEL 6
REMARK VINA RESULT:      -5.5      1.235      1.422
REMARK  Name = 
REMARK  8 active torsions:
REMARK  status: ('A' for Active; 'I' for Inactive)
REMARK    1  A    between atoms: C_1  and  C_2
REMARK    2  A    between atoms: C_2  and  O_3
REMARK    3  A    between atoms: O_3  and  C_4
REMARK    4  A    between atoms: C_4  and  C_5
REMARK    5  A    between atoms: C_5  and  N_6
REMARK    6  A    between atoms: C_13  and  C_14
REMARK    7  A    between atoms: C_19  and  C_20
REMARK    8  A    between atoms: C_20  and  C_21
REMARK                            x       y       z     vdW  Elec       q    Type
REMARK                         _______ _______ _______ _____ _____    ______ ____
ROOT
ATOM      1  N   UNL     1       6.551   6.051  16.158  0.00  0.00    +0.000 NA
ATOM      2  C   UNL     1       5.354   6.665  16.776  0.00  0.00    +0.000 C 
ATOM      3  C   UNL     1       4.115   5.752  16.835  0.00  0.00    +0.000 C 
ATOM      4  N   UNL     1       4.441   4.477  17.466  0.00  0.00    +0.000 N 
ATOM      5  C   UNL     1       3.678   3.969  18.490  0.00  0.00    +0.000 A 
ATOM      6  C   UNL     1       2.296   4.177  18.526  0.00  0.00    +0.000 A 
ATOM      7  C   UNL     1       1.533   3.699  19.592  0.00  0.00    +0.000 A 
ATOM      8  C   UNL     1       2.169   3.016  20.622  0.00  0.00    +0.000 A 
ATOM      9  C   UNL     1       3.533   2.834  20.517  0.00  0.00    +0.000 A 
ATOM     10  N   UNL     1       4.286   3.276  19.478  0.00  0.00    +0.000 NA
ATOM     11  C   UNL     1       5.671   3.799  17.037  0.00  0.00    +0.000 C 
ATOM     12  C   UNL     1       6.873   4.786  16.891  0.00  0.00    +0.000 C 
ENDROOT
BRANCH   8  13
ATOM     13  C   UNL     1       1.444   2.528  21.743  0.00  0.00    +0.000 C 
ATOM     14  N   UNL     1       0.846   2.138  22.659  0.00  0.00    +0.000 NA
ENDBRANCH   8  13
BRANCH  12  15
ATOM     15  C   UNL     1       7.449   5.069  18.306  0.00  0.00    +0.000 C 
ATOM     16  C   UNL     1       7.944   6.493  18.513  0.00  0.00    +0.000 C 
ENDBRANCH  12  15
BRANCH   1  17
ATOM     17  C   UNL     1       6.386   5.845  14.696  0.00  0.00    +0.000 C 
BRANCH  17  18
ATOM     18  C   UNL     1       7.222   4.646  14.197  0.00  0.00    +0.000 C 
BRANCH  18  19
ATOM     19  O   UNL     1       6.435   3.546  13.718  0.00  0.00    +0.000 OA
BRANCH  19  21
ATOM     20  C   UNL     1       5.029   3.174  11.765  0.00  0.00    +0.000 C 
ATOM     21  C   UNL     1       6.385   3.603  12.284  0.00  0.00    +0.000 C 
ENDBRANCH  19  21
ENDBRANCH  18  19
ENDBRANCH  17  18
ENDBRANCH   1  17
TORSDOF 6
ENDMDL
MODEL 7
REMARK VINA RESULT:      -5.5      3.707      4.759
REMARK  Name = 
REMARK  8 active torsions:
REMARK  status: ('A' for Active; 'I' for Inactive)
REMARK    1  A    between atoms: C_1  and  C_2
REMARK    2  A    between atoms: C_2  and  O_3
REMARK    3  A    between atoms: O_3  and  C_4
REMARK    4  A    between atoms: C_4  and  C_5
REMARK    5  A    between atoms: C_5  and  N_6
REMARK    6  A    between atoms: C_13  and  C_14
REMARK    7  A    between atoms: C_19  and  C_20
REMARK    8  A    between atoms: C_20  and  C_21
REMARK                            x       y       z     vdW  Elec       q    Type
REMARK                         _______ _______ _______ _____ _____    ______ ____
ROOT
ATOM      1  N   UNL     1       4.826   4.280  17.481  0.00  0.00    +0.000 NA
ATOM      2  C   UNL     1       5.168   5.674  17.846  0.00  0.00    +0.000 C 
ATOM      3  C   UNL     1       4.005   6.677  17.730  0.00  0.00    +0.000 C 
ATOM      4  N   UNL     1       2.840   6.206  18.473  0.00  0.00    +0.000 N 
ATOM      5  C   UNL     1       2.186   7.017  19.370  0.00  0.00    +0.000 A 
ATOM      6  C   UNL     1       2.085   8.394  19.149  0.00  0.00    +0.000 A 
ATOM      7  C   UNL     1       1.462   9.219  20.086  0.00  0.00    +0.000 A 
ATOM      8  C   UNL     1       0.946   8.652  21.246  0.00  0.00    +0.000 A 
ATOM      9  C   UNL     1       1.069   7.285  21.394  0.00  0.00    +0.000 A 
ATOM     10  N   UNL     1       1.655   6.466  20.483  0.00  0.00    +0.000 NA
ATOM     11  C   UNL     1       2.445   4.802  18.303  0.00  0.00    +0.000 C 
ATOM     12  C   UNL     1       3.672   3.834  18.322  0.00  0.00    +0.000 C 
ENDROOT
BRANCH   8  13
ATOM     13  C   UNL     1       0.322   9.449  22.245  0.00  0.00    +0.000 C 
ATOM     14  N   UNL     1      -0.179  10.105  23.061  0.00  0.00    +0.000 NA
ENDBRANCH   8  13
BRANCH  12  15
ATOM     15  C   UNL     1       4.089   3.602  19.801  0.00  0.00    +0.000 C 
ATOM     16  C   UNL     1       2.996   3.011  20.679  0.00  0.00    +0.000 C 
ENDBRANCH  12  15
BRANCH   1  17
ATOM     17  C   UNL     1       4.574   4.125  16.025  0.00  0.00    +0.000 C 
BRANCH  17  18
ATOM     18  C   UNL     1       5.790   4.584  15.190  0.00  0.00    +0.000 C 
BRANCH  18  19
ATOM     19  O   UNL     1       6.348   3.556  14.360  0.00  0.00    +0.000 OA
BRANCH  19  21
ATOM     20  C   UNL     1       5.658   3.077  12.075  0.00  0.00    +0.000 C 
ATOM     21  C   UNL     1       6.385   4.026  13.004  0.00  0.00    +0.000 C 
ENDBRANCH  19  21
ENDBRANCH  18  19
ENDBRANCH  17  18
ENDBRANCH   1  17
TORSDOF 6
ENDMDL
MODEL 8
REMARK VINA RESULT:      -5.4      4.861      7.152
REMARK  Name = 
REMARK  8 active torsions:
REMARK  status: ('A' for Active; 'I' for Inactive)
REMARK    1  A    between atoms: C_1  and  C_2
REMARK    2  A    between atoms: C_2  and  O_3
REMARK    3  A    between atoms: O_3  and  C_4
REMARK    4  A    between atoms: C_4  and  C_5
REMARK    5  A    between atoms: C_5  and  N_6
REMARK    6  A    between atoms: C_13  and  C_14
REMARK    7  A    between atoms: C_19  and  C_20
REMARK    8  A    between atoms: C_20  and  C_21
REMARK                            x       y       z     vdW  Elec       q    Type
REMARK                         _______ _______ _______ _____ _____    ______ ____
ROOT
ATOM      1  N   UNL     1       3.191   2.946  19.691  0.00  0.00    +0.000 NA
ATOM      2  C   UNL     1       1.863   3.485  20.060  0.00  0.00    +0.000 C 
ATOM      3  C   UNL     1       1.896   4.824  20.821  0.00  0.00    +0.000 C 
ATOM      4  N   UNL     1       2.685   5.813  20.095  0.00  0.00    +0.000 N 
ATOM      5  C   UNL     1       2.196   7.071  19.835  0.00  0.00    +0.000 A 
ATOM      6  C   UNL     1       1.351   7.712  20.745  0.00  0.00    +0.000 A 
ATOM      7  C   UNL     1       0.819   8.970  20.456  0.00  0.00    +0.000 A 
ATOM      8  C   UNL     1       1.138   9.573  19.244  0.00  0.00    +0.000 A 
ATOM      9  C   UNL     1       1.988   8.890  18.398  0.00  0.00    +0.000 A 
ATOM     10  N   UNL     1       2.528   7.676  18.674  0.00  0.00    +0.000 NA
ATOM     11  C   UNL     1       3.987   5.388  19.562  0.00  0.00    +0.000 C 
ATOM     12  C   UNL     1       3.924   3.978  18.893  0.00  0.00    +0.000 C 
ENDROOT
BRANCH   8  13
ATOM     13  C   UNL     1       0.605  10.842  18.888  0.00  0.00    +0.000 C 
ATOM     14  N   UNL     1       0.174  11.877  18.587  0.00  0.00    +0.000 NA
ENDBRANCH   8  13
BRANCH  12  15
ATOM     15  C   UNL     1       3.324   4.139  17.468  0.00  0.00    +0.000 C 
ATOM     16  C   UNL     1       4.356   4.178  16.351  0.00  0.00    +0.000 C 
ENDBRANCH  12  15
BRANCH   1  17
ATOM     17  C   UNL     1       3.958   2.481  20.877  0.00  0.00    +0.000 C 
BRANCH  17  18
ATOM     18  C   UNL     1       4.958   1.366  20.500  0.00  0.00    +0.000 C 
BRANCH  18  19
ATOM     19  O   UNL     1       5.773   0.921  21.594  0.00  0.00    +0.000 OA
BRANCH  19  21
ATOM     20  C   UNL     1       6.588  -1.133  22.616  0.00  0.00    +0.000 C 
ATOM     21  C   UNL     1       6.195  -0.428  21.336  0.00  0.00    +0.000 C 
ENDBRANCH  19  21
ENDBRANCH  18  19
ENDBRANCH  17  18
ENDBRANCH   1  17
TORSDOF 6
ENDMDL
MODEL 9
REMARK VINA RESULT:      -5.1      3.948      5.607
REMARK  Name = 
REMARK  8 active torsions:
REMARK  status: ('A' for Active; 'I' for Inactive)
REMARK    1  A    between atoms: C_1  and  C_2
REMARK    2  A    between atoms: C_2  and  O_3
REMARK    3  A    between atoms: O_3  and  C_4
REMARK    4  A    between atoms: C_4  and  C_5
REMARK    5  A    between atoms: C_5  and  N_6
REMARK    6  A    between atoms: C_13  and  C_14
REMARK    7  A    between atoms: C_19  and  C_20
REMARK    8  A    between atoms: C_20  and  C_21
REMARK                            x       y       z     vdW  Elec       q    Type
REMARK                         _______ _______ _______ _____ _____    ______ ____
ROOT
ATOM      1  N   UNL     1       4.169   3.679  18.543  0.00  0.00    +0.000 NA
ATOM      2  C   UNL     1       4.698   5.039  18.795  0.00  0.00    +0.000 C 
ATOM      3  C   UNL     1       3.732   6.186  18.443  0.00  0.00    +0.000 C 
ATOM      4  N   UNL     1       2.440   5.991  19.094  0.00  0.00    +0.000 N 
ATOM      5  C   UNL     1       1.846   6.995  19.821  0.00  0.00    +0.000 A 
ATOM      6  C   UNL     1       1.993   8.334  19.447  0.00  0.00    +0.000 A 
ATOM      7  C   UNL     1       1.427   9.353  20.215  0.00  0.00    +0.000 A 
ATOM      8  C   UNL     1       0.717   9.016  21.362  0.00  0.00    +0.000 A 
ATOM      9  C   UNL     1       0.599   7.674  21.666  0.00  0.00    +0.000 A 
ATOM     10  N   UNL     1       1.128   6.672  20.919  0.00  0.00    +0.000 NA
ATOM     11  C   UNL     1       1.839   4.653  19.029  0.00  0.00    +0.000 C 
ATOM     12  C   UNL     1       2.882   3.520  19.289  0.00  0.00    +0.000 C 
ENDROOT
BRANCH   8  13
ATOM     13  C   UNL     1       0.140  10.014  22.194  0.00  0.00    +0.000 C 
ATOM     14  N   UNL     1      -0.338  10.822  22.877  0.00  0.00    +0.000 NA
ENDBRANCH   8  13
BRANCH  12  15
ATOM     15  C   UNL     1       3.112   3.409  20.822  0.00  0.00    +0.000 C 
ATOM     16  C   UNL     1       1.861   3.088  21.627  0.00  0.00    +0.000 C 
ENDBRANCH  12  15
BRANCH   1  17
ATOM     17  C   UNL     1       4.035   3.388  17.092  0.00  0.00    +0.000 C 
BRANCH  17  18
ATOM     18  C   UNL     1       5.370   3.605  16.347  0.00  0.00    +0.000 C 
BRANCH  18  19
ATOM     19  O   UNL     1       5.231   4.260  15.079  0.00  0.00    +0.000 OA
BRANCH  19  21
ATOM     20  C   UNL     1       6.908   5.701  16.099  0.00  0.00    +0.000 C 
ATOM     21  C   UNL     1       5.687   5.616  15.207  0.00  0.00    +0.000 C 
ENDBRANCH  19  21
ENDBRANCH  18  19
ENDBRANCH  17  18
ENDBRANCH   1  17
TORSDOF 6
ENDMDL
