MODEL 1
REMARK VINA RESULT:      -7.4      0.000      0.000
REMARK  Name = 
REMARK  5 active torsions:
REMARK  status: ('A' for Active; 'I' for Inactive)
REMARK    1  A    between atoms: C_1  and  C_2
REMARK    2  A    between atoms: C_4  and  C_5
REMARK    3  A    between atoms: C_6  and  N_7
REMARK    4  A    between atoms: N_7  and  C_8
REMARK    5  A    between atoms: C_16  and  C_17
REMARK                            x       y       z     vdW  Elec       q    Type
REMARK                         _______ _______ _______ _____ _____    ______ ____
ROOT
ATOM      1  N   UNL     1       3.637   4.783  17.556  0.00  0.00    +0.000 N 
ATOM      2  H   UNL     1       3.120   5.601  17.249  0.00  0.00    +0.000 HD
ENDROOT
BRANCH   1   8
ATOM      3  C   UNL     1       1.117   2.551  22.226  0.00  0.00    +0.000 C 
ATOM      4  C   UNL     1       1.841   3.130  21.051  0.00  0.00    +0.000 A 
ATOM      5  C   UNL     1       1.905   4.505  20.844  0.00  0.00    +0.000 A 
ATOM      6  C   UNL     1       2.528   5.040  19.702  0.00  0.00    +0.000 A 
ATOM      7  C   UNL     1       2.559   6.542  19.565  0.00  0.00    +0.000 C 
ATOM      8  C   UNL     1       3.095   4.182  18.719  0.00  0.00    +0.000 A 
ATOM      9  C   UNL     1       3.073   2.786  18.949  0.00  0.00    +0.000 A 
ATOM     10  C   UNL     1       3.520   1.731  17.973  0.00  0.00    +0.000 C 
ATOM     11  C   UNL     1       2.433   2.289  20.108  0.00  0.00    +0.000 A 
ENDBRANCH   1   8
BRANCH   1  12
ATOM     12  C   UNL     1       4.857   4.672  16.860  0.00  0.00    +0.000 A 
ATOM     13  C   UNL     1       4.910   4.297  15.514  0.00  0.00    +0.000 A 
ATOM     14  C   UNL     1       6.133   4.255  14.837  0.00  0.00    +0.000 A 
ATOM     15 CL   UNL     1       6.171   3.818  13.175  0.00  0.00    +0.000 Cl
ATOM     16  C   UNL     1       7.323   4.574  15.491  0.00  0.00    +0.000 A 
ATOM     17  C   UNL     1       7.292   4.941  16.838  0.00  0.00    +0.000 A 
ATOM     18  C   UNL     1       6.070   4.991  17.512  0.00  0.00    +0.000 A 
ATOM     19 CL   UNL     1       6.086   5.461  19.177  0.00  0.00    +0.000 Cl
ENDBRANCH   1  12
TORSDOF 2
ENDMDL
MODEL 2
REMARK VINA RESULT:      -7.3      0.269      2.075
REMARK  Name = 
REMARK  5 active torsions:
REMARK  status: ('A' for Active; 'I' for Inactive)
REMARK    1  A    between atoms: C_1  and  C_2
REMARK    2  A    between atoms: C_4  and  C_5
REMARK    3  A    between atoms: C_6  and  N_7
REMARK    4  A    between atoms: N_7  and  C_8
REMARK    5  A    between atoms: C_16  and  C_17
REMARK                            x       y       z     vdW  Elec       q    Type
REMARK                         _______ _______ _______ _____ _____    ______ ____
ROOT
ATOM      1  N   UNL     1       3.495   4.886  17.471  0.00  0.00    +0.000 N 
ATOM      2  H   UNL     1       3.027   5.696  17.076  0.00  0.00    +0.000 HD
ENDROOT
BRANCH   1   8
ATOM      3  C   UNL     1       1.166   2.551  22.189  0.00  0.00    +0.000 C 
ATOM      4  C   UNL     1       1.700   3.161  20.930  0.00  0.00    +0.000 A 
ATOM      5  C   UNL     1       2.187   2.373  19.892  0.00  0.00    +0.000 A 
ATOM      6  C   UNL     1       2.749   2.955  18.741  0.00  0.00    +0.000 A 
ATOM      7  C   UNL     1       3.243   2.024  17.661  0.00  0.00    +0.000 C 
ATOM      8  C   UNL     1       2.848   4.369  18.619  0.00  0.00    +0.000 A 
ATOM      9  C   UNL     1       2.311   5.173  19.652  0.00  0.00    +0.000 A 
ATOM     10  C   UNL     1       2.426   6.670  19.746  0.00  0.00    +0.000 C 
ATOM     11  C   UNL     1       1.758   4.549  20.794  0.00  0.00    +0.000 A 
ENDBRANCH   1   8
BRANCH   1  12
ATOM     12  C   UNL     1       4.764   4.708  16.884  0.00  0.00    +0.000 A 
ATOM     13  C   UNL     1       4.914   4.371  15.535  0.00  0.00    +0.000 A 
ATOM     14  C   UNL     1       6.188   4.259  14.970  0.00  0.00    +0.000 A 
ATOM     15 CL   UNL     1       6.348   3.871  13.302  0.00  0.00    +0.000 Cl
ATOM     16  C   UNL     1       7.333   4.470  15.738  0.00  0.00    +0.000 A 
ATOM     17  C   UNL     1       7.204   4.797  17.091  0.00  0.00    +0.000 A 
ATOM     18  C   UNL     1       5.931   4.916  17.653  0.00  0.00    +0.000 A 
ATOM     19 CL   UNL     1       5.826   5.333  19.330  0.00  0.00    +0.000 Cl
ENDBRANCH   1  12
TORSDOF 2
ENDMDL
MODEL 3
REMARK VINA RESULT:      -7.2      1.227      2.853
REMARK  Name = 
REMARK  5 active torsions:
REMARK  status: ('A' for Active; 'I' for Inactive)
REMARK    1  A    between atoms: C_1  and  C_2
REMARK    2  A    between atoms: C_4  and  C_5
REMARK    3  A    between atoms: C_6  and  N_7
REMARK    4  A    between atoms: N_7  and  C_8
REMARK    5  A    between atoms: C_16  and  C_17
REMARK                            x       y       z     vdW  Elec       q    Type
REMARK                         _______ _______ _______ _____ _____    ______ ____
ROOT
ATOM      1  N   UNL     1       3.614   4.464  17.933  0.00  0.00    +0.000 N 
ATOM      2  H   UNL     1       3.032   3.664  17.705  0.00  0.00    +0.000 HD
ENDROOT
BRANCH   1   8
ATOM      3  C   UNL     1       1.073   8.307  21.384  0.00  0.00    +0.000 C 
ATOM      4  C   UNL     1       1.666   7.302  20.447  0.00  0.00    +0.000 A 
ATOM      5  C   UNL     1       1.677   5.944  20.752  0.00  0.00    +0.000 A 
ATOM      6  C   UNL     1       2.296   5.013  19.898  0.00  0.00    +0.000 A 
ATOM      7  C   UNL     1       2.251   3.560  20.303  0.00  0.00    +0.000 C 
ATOM      8  C   UNL     1       2.943   5.443  18.706  0.00  0.00    +0.000 A 
ATOM      9  C   UNL     1       2.894   6.816  18.370  0.00  0.00    +0.000 A 
ATOM     10  C   UNL     1       3.613   7.462  17.218  0.00  0.00    +0.000 C 
ATOM     11  C   UNL     1       2.264   7.720  19.257  0.00  0.00    +0.000 A 
ENDBRANCH   1   8
BRANCH   1  12
ATOM     12  C   UNL     1       4.814   4.436  17.194  0.00  0.00    +0.000 A 
ATOM     13  C   UNL     1       4.839   4.108  15.836  0.00  0.00    +0.000 A 
ATOM     14  C   UNL     1       6.039   4.147  15.118  0.00  0.00    +0.000 A 
ATOM     15 CL   UNL     1       6.040   3.767  13.441  0.00  0.00    +0.000 Cl
ATOM     16  C   UNL     1       7.234   4.503  15.743  0.00  0.00    +0.000 A 
ATOM     17  C   UNL     1       7.232   4.824  17.103  0.00  0.00    +0.000 A 
ATOM     18  C   UNL     1       6.032   4.792  17.817  0.00  0.00    +0.000 A 
ATOM     19 CL   UNL     1       6.083   5.207  19.496  0.00  0.00    +0.000 Cl
ENDBRANCH   1  12
TORSDOF 2
ENDMDL
MODEL 4
REMARK VINA RESULT:      -7.0      2.554      6.099
REMARK  Name = 
REMARK  5 active torsions:
REMARK  status: ('A' for Active; 'I' for Inactive)
REMARK    1  A    between atoms: C_1  and  C_2
REMARK    2  A    between atoms: C_4  and  C_5
REMARK    3  A    between atoms: C_6  and  N_7
REMARK    4  A    between atoms: N_7  and  C_8
REMARK    5  A    between atoms: C_16  and  C_17
REMARK                            x       y       z     vdW  Elec       q    Type
REMARK                         _______ _______ _______ _____ _____    ______ ____
ROOT
ATOM      1  N   UNL     1       4.935   4.370  19.039  0.00  0.00    +0.000 N 
ATOM      2  H   UNL     1       5.535   3.989  19.765  0.00  0.00    +0.000 HD
ENDROOT
BRANCH   1   8
ATOM      3  C   UNL     1       7.151   4.773  13.742  0.00  0.00    +0.000 C 
ATOM      4  C   UNL     1       6.612   4.599  15.127  0.00  0.00    +0.000 A 
ATOM      5  C   UNL     1       5.359   4.036  15.352  0.00  0.00    +0.000 A 
ATOM      6  C   UNL     1       4.830   3.937  16.651  0.00  0.00    +0.000 A 
ATOM      7  C   UNL     1       3.468   3.304  16.802  0.00  0.00    +0.000 C 
ATOM      8  C   UNL     1       5.560   4.429  17.769  0.00  0.00    +0.000 A 
ATOM      9  C   UNL     1       6.853   4.959  17.549  0.00  0.00    +0.000 A 
ATOM     10  C   UNL     1       7.715   5.623  18.588  0.00  0.00    +0.000 C 
ATOM     11  C   UNL     1       7.347   5.043  16.227  0.00  0.00    +0.000 A 
ENDBRANCH   1   8
BRANCH   1  12
ATOM     12  C   UNL     1       3.773   4.936  19.599  0.00  0.00    +0.000 A 
ATOM     13  C   UNL     1       3.399   6.260  19.349  0.00  0.00    +0.000 A 
ATOM     14  C   UNL     1       2.208   6.772  19.872  0.00  0.00    +0.000 A 
ATOM     15 CL   UNL     1       1.757   8.395  19.528  0.00  0.00    +0.000 Cl
ATOM     16  C   UNL     1       1.375   5.980  20.662  0.00  0.00    +0.000 A 
ATOM     17  C   UNL     1       1.735   4.658  20.932  0.00  0.00    +0.000 A 
ATOM     18  C   UNL     1       2.921   4.143  20.403  0.00  0.00    +0.000 A 
ATOM     19 CL   UNL     1       3.316   2.497  20.760  0.00  0.00    +0.000 Cl
ENDBRANCH   1  12
TORSDOF 2
ENDMDL
MODEL 5
REMARK VINA RESULT:      -6.9      2.354      3.914
REMARK  Name = 
REMARK  5 active torsions:
REMARK  status: ('A' for Active; 'I' for Inactive)
REMARK    1  A    between atoms: C_1  and  C_2
REMARK    2  A    between atoms: C_4  and  C_5
REMARK    3  A    between atoms: C_6  and  N_7
REMARK    4  A    between atoms: N_7  and  C_8
REMARK    5  A    between atoms: C_16  and  C_17
REMARK                            x       y       z     vdW  Elec       q    Type
REMARK                         _______ _______ _______ _____ _____    ______ ____
ROOT
ATOM      1  N   UNL     1       2.682   6.231  17.966  0.00  0.00    +0.000 N 
ATOM      2  H   UNL     1       2.023   6.139  17.199  0.00  0.00    +0.000 HD
ENDROOT
BRANCH   1   8
ATOM      3  C   UNL     1       0.253   9.207  22.253  0.00  0.00    +0.000 C 
ATOM      4  C   UNL     1       0.955   8.452  21.169  0.00  0.00    +0.000 A 
ATOM      5  C   UNL     1       1.252   9.046  19.946  0.00  0.00    +0.000 A 
ATOM      6  C   UNL     1       1.851   8.311  18.907  0.00  0.00    +0.000 A 
ATOM      7  C   UNL     1       2.146   9.039  17.619  0.00  0.00    +0.000 C 
ATOM      8  C   UNL     1       2.153   6.931  19.078  0.00  0.00    +0.000 A 
ATOM      9  C   UNL     1       1.895   6.335  20.335  0.00  0.00    +0.000 A 
ATOM     10  C   UNL     1       2.043   4.873  20.659  0.00  0.00    +0.000 C 
ATOM     11  C   UNL     1       1.289   7.109  21.352  0.00  0.00    +0.000 A 
ENDBRANCH   1   8
BRANCH   1  12
ATOM     12  C   UNL     1       3.975   5.844  17.562  0.00  0.00    +0.000 A 
ATOM     13  C   UNL     1       5.061   6.724  17.613  0.00  0.00    +0.000 A 
ATOM     14  C   UNL     1       6.342   6.290  17.261  0.00  0.00    +0.000 A 
ATOM     15 CL   UNL     1       7.667   7.383  17.357  0.00  0.00    +0.000 Cl
ATOM     16  C   UNL     1       6.564   4.978  16.843  0.00  0.00    +0.000 A 
ATOM     17  C   UNL     1       5.490   4.086  16.776  0.00  0.00    +0.000 A 
ATOM     18  C   UNL     1       4.211   4.517  17.135  0.00  0.00    +0.000 A 
ATOM     19 CL   UNL     1       2.918   3.371  17.043  0.00  0.00    +0.000 Cl
ENDBRANCH   1  12
TORSDOF 2
ENDMDL
MODEL 6
REMARK VINA RESULT:      -6.8      2.340      6.099
REMARK  Name = 
REMARK  5 active torsions:
REMARK  status: ('A' for Active; 'I' for Inactive)
REMARK    1  A    between atoms: C_1  and  C_2
REMARK    2  A    between atoms: C_4  and  C_5
REMARK    3  A    between atoms: C_6  and  N_7
REMARK    4  A    between atoms: N_7  and  C_8
REMARK    5  A    between atoms: C_16  and  C_17
REMARK                            x       y       z     vdW  Elec       q    Type
REMARK                         _______ _______ _______ _____ _____    ______ ____
ROOT
ATOM      1  N   UNL     1       5.301   4.228  19.057  0.00  0.00    +0.000 N 
ATOM      2  H   UNL     1       6.083   4.325  19.698  0.00  0.00    +0.000 HD
ENDROOT
BRANCH   1   8
ATOM      3  C   UNL     1       7.099   4.818  13.621  0.00  0.00    +0.000 C 
ATOM      4  C   UNL     1       6.598   4.736  15.029  0.00  0.00    +0.000 A 
ATOM      5  C   UNL     1       7.387   5.131  16.104  0.00  0.00    +0.000 A 
ATOM      6  C   UNL     1       6.935   4.988  17.429  0.00  0.00    +0.000 A 
ATOM      7  C   UNL     1       7.854   5.453  18.532  0.00  0.00    +0.000 C 
ATOM      8  C   UNL     1       5.661   4.416  17.701  0.00  0.00    +0.000 A 
ATOM      9  C   UNL     1       4.837   4.056  16.608  0.00  0.00    +0.000 A 
ATOM     10  C   UNL     1       3.518   3.340  16.706  0.00  0.00    +0.000 C 
ATOM     11  C   UNL     1       5.330   4.213  15.292  0.00  0.00    +0.000 A 
ENDBRANCH   1   8
BRANCH   1  12
ATOM     12  C   UNL     1       4.082   4.183  19.762  0.00  0.00    +0.000 A 
ATOM     13  C   UNL     1       3.307   5.327  19.976  0.00  0.00    +0.000 A 
ATOM     14  C   UNL     1       2.073   5.237  20.628  0.00  0.00    +0.000 A 
ATOM     15 CL   UNL     1       1.126   6.654  20.854  0.00  0.00    +0.000 Cl
ATOM     16  C   UNL     1       1.595   4.010  21.087  0.00  0.00    +0.000 A 
ATOM     17  C   UNL     1       2.359   2.857  20.893  0.00  0.00    +0.000 A 
ATOM     18  C   UNL     1       3.587   2.945  20.235  0.00  0.00    +0.000 A 
ATOM     19 CL   UNL     1       4.490   1.486  20.011  0.00  0.00    +0.000 Cl
ENDBRANCH   1  12
TORSDOF 2
ENDMDL
MODEL 7
REMARK VINA RESULT:      -6.8      1.488      2.616
REMARK  Name = 
REMARK  5 active torsions:
REMARK  status: ('A' for Active; 'I' for Inactive)
REMARK    1  A    between atoms: C_1  and  C_2
REMARK    2  A    between atoms: C_4  and  C_5
REMARK    3  A    between atoms: C_6  and  N_7
REMARK    4  A    between atoms: N_7  and  C_8
REMARK    5  A    between atoms: C_16  and  C_17
REMARK                            x       y       z     vdW  Elec       q    Type
REMARK                         _______ _______ _______ _____ _____    ______ ____
ROOT
ATOM      1  N   UNL     1       5.359   3.444  17.267  0.00  0.00    +0.000 N 
ATOM      2  H   UNL     1       5.853   2.634  17.628  0.00  0.00    +0.000 HD
ENDROOT
BRANCH   1   8
ATOM      3  C   UNL     1       0.609   4.372  20.384  0.00  0.00    +0.000 C 
ATOM      4  C   UNL     1       1.798   4.125  19.509  0.00  0.00    +0.000 A 
ATOM      5  C   UNL     1       2.313   2.845  19.328  0.00  0.00    +0.000 A 
ATOM      6  C   UNL     1       3.471   2.629  18.559  0.00  0.00    +0.000 A 
ATOM      7  C   UNL     1       3.952   1.207  18.409  0.00  0.00    +0.000 C 
ATOM      8  C   UNL     1       4.156   3.723  17.961  0.00  0.00    +0.000 A 
ATOM      9  C   UNL     1       3.610   5.020  18.104  0.00  0.00    +0.000 A 
ATOM     10  C   UNL     1       4.254   6.298  17.639  0.00  0.00    +0.000 C 
ATOM     11  C   UNL     1       2.445   5.194  18.888  0.00  0.00    +0.000 A 
ENDBRANCH   1   8
BRANCH   1  12
ATOM     12  C   UNL     1       5.917   3.865  16.043  0.00  0.00    +0.000 A 
ATOM     13  C   UNL     1       5.422   3.423  14.813  0.00  0.00    +0.000 A 
ATOM     14  C   UNL     1       5.962   3.906  13.617  0.00  0.00    +0.000 A 
ATOM     15 CL   UNL     1       5.318   3.368  12.115  0.00  0.00    +0.000 Cl
ATOM     16  C   UNL     1       7.008   4.827  13.624  0.00  0.00    +0.000 A 
ATOM     17  C   UNL     1       7.524   5.274  14.844  0.00  0.00    +0.000 A 
ATOM     18  C   UNL     1       6.980   4.798  16.039  0.00  0.00    +0.000 A 
ATOM     19 CL   UNL     1       7.648   5.389  17.521  0.00  0.00    +0.000 Cl
ENDBRANCH   1  12
TORSDOF 2
ENDMDL
MODEL 8
REMARK VINA RESULT:      -6.8      1.237      2.492
REMARK  Name = 
REMARK  5 active torsions:
REMARK  status: ('A' for Active; 'I' for Inactive)
REMARK    1  A    between atoms: C_1  and  C_2
REMARK    2  A    between atoms: C_4  and  C_5
REMARK    3  A    between atoms: C_6  and  N_7
REMARK    4  A    between atoms: N_7  and  C_8
REMARK    5  A    between atoms: C_16  and  C_17
REMARK                            x       y       z     vdW  Elec       q    Type
REMARK                         _______ _______ _______ _____ _____    ______ ____
ROOT
ATOM      1  N   UNL     1       3.486   4.588  17.705  0.00  0.00    +0.000 N 
ATOM      2  H   UNL     1       2.801   4.016  17.219  0.00  0.00    +0.000 HD
ENDROOT
BRANCH   1   8
ATOM      3  C   UNL     1       0.945   8.269  21.328  0.00  0.00    +0.000 C 
ATOM      4  C   UNL     1       1.672   7.320  20.428  0.00  0.00    +0.000 A 
ATOM      5  C   UNL     1       2.284   7.756  19.257  0.00  0.00    +0.000 A 
ATOM      6  C   UNL     1       2.908   6.848  18.382  0.00  0.00    +0.000 A 
ATOM      7  C   UNL     1       3.554   7.411  17.140  0.00  0.00    +0.000 C 
ATOM      8  C   UNL     1       2.911   5.454  18.667  0.00  0.00    +0.000 A 
ATOM      9  C   UNL     1       2.330   5.013  19.879  0.00  0.00    +0.000 A 
ATOM     10  C   UNL     1       2.143   3.577  20.289  0.00  0.00    +0.000 C 
ATOM     11  C   UNL     1       1.711   5.958  20.730  0.00  0.00    +0.000 A 
ENDBRANCH   1   8
BRANCH   1  12
ATOM     12  C   UNL     1       4.746   4.497  17.080  0.00  0.00    +0.000 A 
ATOM     13  C   UNL     1       4.878   4.208  15.719  0.00  0.00    +0.000 A 
ATOM     14  C   UNL     1       6.141   4.184  15.119  0.00  0.00    +0.000 A 
ATOM     15 CL   UNL     1       6.277   3.854  13.436  0.00  0.00    +0.000 Cl
ATOM     16  C   UNL     1       7.292   4.435  15.864  0.00  0.00    +0.000 A 
ATOM     17  C   UNL     1       7.182   4.715  17.229  0.00  0.00    +0.000 A 
ATOM     18  C   UNL     1       5.920   4.748  17.827  0.00  0.00    +0.000 A 
ATOM     19 CL   UNL     1       5.838   5.109  19.517  0.00  0.00    +0.000 Cl
ENDBRANCH   1  12
TORSDOF 2
ENDMDL
MODEL 9
REMARK VINA RESULT:      -6.8      2.320      4.213
REMARK  Name = 
REMARK  5 active torsions:
REMARK  status: ('A' for Active; 'I' for Inactive)
REMARK    1  A    between atoms: C_1  and  C_2
REMARK    2  A    between atoms: C_4  and  C_5
REMARK    3  A    between atoms: C_6  and  N_7
REMARK    4  A    between atoms: N_7  and  C_8
REMARK    5  A    between atoms: C_16  and  C_17
REMARK                            x       y       z     vdW  Elec       q    Type
REMARK                         _______ _______ _______ _____ _____    ______ ____
ROOT
ATOM      1  N   UNL     1       2.976   6.297  17.851  0.00  0.00    +0.000 N 
ATOM      2  H   UNL     1       2.370   6.056  17.072  0.00  0.00    +0.000 HD
ENDROOT
BRANCH   1   8
ATOM      3  C   UNL     1       0.551   9.089  22.263  0.00  0.00    +0.000 C 
ATOM      4  C   UNL     1       1.109   8.345  21.090  0.00  0.00    +0.000 A 
ATOM      5  C   UNL     1       1.468   7.004  21.185  0.00  0.00    +0.000 A 
ATOM      6  C   UNL     1       2.054   6.330  20.099  0.00  0.00    +0.000 A 
ATOM      7  C   UNL     1       2.403   4.874  20.289  0.00  0.00    +0.000 C 
ATOM      8  C   UNL     1       2.311   7.013  18.877  0.00  0.00    +0.000 A 
ATOM      9  C   UNL     1       1.905   8.363  18.761  0.00  0.00    +0.000 A 
ATOM     10  C   UNL     1       2.194   9.267  17.594  0.00  0.00    +0.000 C 
ATOM     11  C   UNL     1       1.321   9.005  19.878  0.00  0.00    +0.000 A 
ENDBRANCH   1   8
BRANCH   1  12
ATOM     12  C   UNL     1       4.325   6.049  17.530  0.00  0.00    +0.000 A 
ATOM     13  C   UNL     1       5.300   7.048  17.607  0.00  0.00    +0.000 A 
ATOM     14  C   UNL     1       6.640   6.753  17.338  0.00  0.00    +0.000 A 
ATOM     15 CL   UNL     1       7.826   7.993  17.466  0.00  0.00    +0.000 Cl
ATOM     16  C   UNL     1       7.031   5.464  16.979  0.00  0.00    +0.000 A 
ATOM     17  C   UNL     1       6.070   4.453  16.886  0.00  0.00    +0.000 A 
ATOM     18  C   UNL     1       4.733   4.746  17.162  0.00  0.00    +0.000 A 
ATOM     19 CL   UNL     1       3.584   3.457  17.043  0.00  0.00    +0.000 Cl
ENDBRANCH   1  12
TORSDOF 2
ENDMDL
