MODEL 1
REMARK VINA RESULT:      -7.9      0.000      0.000
REMARK  Name = 
REMARK  9 active torsions:
REMARK  status: ('A' for Active; 'I' for Inactive)
REMARK    1  A    between atoms: C_2  and  C_3
REMARK    2  A    between atoms: C_2  and  C_16
REMARK    3  A    between atoms: C_3  and  C_4
REMARK    4  A    between atoms: C_4  and  S_5
REMARK    5  A    between atoms: S_5  and  C_6
REMARK    6  A    between atoms: C_6  and  N_8
REMARK    7  A    between atoms: N_8  and  C_9
REMARK    8  A    between atoms: C_9  and  C_10
REMARK    9  A    between atoms: C_22  and  C_23
REMARK                            x       y       z     vdW  Elec       q    Type
REMARK                         _______ _______ _______ _____ _____    ______ ____
ROOT
ATOM      1  C   UNL     1       1.461   8.647  19.501  0.00  0.00    +0.000 A 
ATOM      2  C   UNL     1       1.882   8.807  18.181  0.00  0.00    +0.000 A 
ATOM      3  N   UNL     1       1.842  10.131  17.889  0.00  0.00    +0.000 N 
ATOM      4  C   UNL     1       0.982  10.730  18.749  0.00  0.00    +0.000 A 
ATOM      5  N   UNL     1       0.515  11.958  18.515  0.00  0.00    +0.000 NA
ATOM      6  C   UNL     1      -0.455  12.316  19.371  0.00  0.00    +0.000 A 
ATOM      7  C   UNL     1      -0.906  11.599  20.487  0.00  0.00    +0.000 A 
ATOM      8  C   UNL     1      -0.278  10.338  20.730  0.00  0.00    +0.000 A 
ATOM      9  C   UNL     1       0.679   9.845  19.789  0.00  0.00    +0.000 A 
ATOM     10  H   UNL     1       2.237  10.590  17.083  0.00  0.00    +0.000 HD
ENDROOT
BRANCH   7  11
ATOM     11  C   UNL     1      -2.023  12.188  21.279  0.00  0.00    +0.000 A 
ATOM     12  C   UNL     1      -2.101  12.091  22.678  0.00  0.00    +0.000 A 
ATOM     13  C   UNL     1      -3.224  12.565  23.381  0.00  0.00    +0.000 A 
ATOM     14  C   UNL     1      -4.296  13.139  22.699  0.00  0.00    +0.000 A 
ATOM     15 CL   UNL     1      -5.670  13.710  23.561  0.00  0.00    +0.000 Cl
ATOM     16  C   UNL     1      -4.259  13.240  21.318  0.00  0.00    +0.000 A 
ATOM     17  C   UNL     1      -3.133  12.780  20.624  0.00  0.00    +0.000 A 
ENDBRANCH   7  11
BRANCH   1  19
ATOM     18  O   UNL     1       1.515   7.232  21.366  0.00  0.00    +0.000 OA
ATOM     19  C   UNL     1       1.813   7.384  20.174  0.00  0.00    +0.000 C 
BRANCH  19  20
ATOM     20  C   UNL     1       2.446   6.230  19.434  0.00  0.00    +0.000 C 
BRANCH  20  21
ATOM     21  C   UNL     1       1.793   4.877  19.775  0.00  0.00    +0.000 C 
BRANCH  21  22
ATOM     22  S   UNL     1       2.868   3.655  20.590  0.00  0.00    +0.000 S 
BRANCH  22  23
ATOM     23  C   UNL     1       3.777   2.883  19.307  0.00  0.00    +0.000 C 
ATOM     24  S   UNL     1       3.192   1.873  18.124  0.00  0.00    +0.000 S 
BRANCH  23  25
ATOM     25  N   UNL     1       5.066   3.317  19.440  0.00  0.00    +0.000 N 
ATOM     26  H   UNL     1       5.616   2.757  20.088  0.00  0.00    +0.000 HD
BRANCH  25  27
ATOM     27  C   UNL     1       5.632   4.597  19.063  0.00  0.00    +0.000 C 
BRANCH  27  28
ATOM     28  C   UNL     1       6.013   4.623  17.610  0.00  0.00    +0.000 A 
ATOM     29  C   UNL     1       5.052   4.729  16.597  0.00  0.00    +0.000 A 
ATOM     30  C   UNL     1       5.447   4.750  15.265  0.00  0.00    +0.000 A 
ATOM     31  C   UNL     1       6.807   4.676  14.988  0.00  0.00    +0.000 A 
ATOM     32  N   UNL     1       7.761   4.596  15.937  0.00  0.00    +0.000 NA
ATOM     33  C   UNL     1       7.347   4.551  17.221  0.00  0.00    +0.000 A 
ENDBRANCH  27  28
ENDBRANCH  25  27
ENDBRANCH  23  25
ENDBRANCH  22  23
ENDBRANCH  21  22
ENDBRANCH  20  21
ENDBRANCH  19  20
ENDBRANCH   1  19
TORSDOF 9
ENDMDL
MODEL 2
REMARK VINA RESULT:      -7.7      1.731      3.175
REMARK  Name = 
REMARK  9 active torsions:
REMARK  status: ('A' for Active; 'I' for Inactive)
REMARK    1  A    between atoms: C_2  and  C_3
REMARK    2  A    between atoms: C_2  and  C_16
REMARK    3  A    between atoms: C_3  and  C_4
REMARK    4  A    between atoms: C_4  and  S_5
REMARK    5  A    between atoms: S_5  and  C_6
REMARK    6  A    between atoms: C_6  and  N_8
REMARK    7  A    between atoms: N_8  and  C_9
REMARK    8  A    between atoms: C_9  and  C_10
REMARK    9  A    between atoms: C_22  and  C_23
REMARK                            x       y       z     vdW  Elec       q    Type
REMARK                         _______ _______ _______ _____ _____    ______ ____
ROOT
ATOM      1  C   UNL     1       1.710   8.903  18.958  0.00  0.00    +0.000 A 
ATOM      2  C   UNL     1       2.143   9.345  17.708  0.00  0.00    +0.000 A 
ATOM      3  N   UNL     1       2.131  10.701  17.719  0.00  0.00    +0.000 N 
ATOM      4  C   UNL     1       1.277  11.111  18.689  0.00  0.00    +0.000 A 
ATOM      5  N   UNL     1       0.835  12.369  18.735  0.00  0.00    +0.000 NA
ATOM      6  C   UNL     1      -0.133  12.547  19.647  0.00  0.00    +0.000 A 
ATOM      7  C   UNL     1      -0.604  11.608  20.574  0.00  0.00    +0.000 A 
ATOM      8  C   UNL     1      -0.002  10.312  20.531  0.00  0.00    +0.000 A 
ATOM      9  C   UNL     1       0.950  10.022  19.504  0.00  0.00    +0.000 A 
ATOM     10  H   UNL     1       2.539  11.320  17.036  0.00  0.00    +0.000 HD
ENDROOT
BRANCH   7  11
ATOM     11  C   UNL     1      -1.715  12.028  21.476  0.00  0.00    +0.000 A 
ATOM     12  C   UNL     1      -1.766  11.682  22.836  0.00  0.00    +0.000 A 
ATOM     13  C   UNL     1      -2.883  12.005  23.629  0.00  0.00    +0.000 A 
ATOM     14  C   UNL     1      -3.974  12.673  23.078  0.00  0.00    +0.000 A 
ATOM     15 CL   UNL     1      -5.340  13.058  24.049  0.00  0.00    +0.000 Cl
ATOM     16  C   UNL     1      -3.964  13.019  21.736  0.00  0.00    +0.000 A 
ATOM     17  C   UNL     1      -2.845  12.708  20.954  0.00  0.00    +0.000 A 
ENDBRANCH   7  11
BRANCH   1  19
ATOM     18  O   UNL     1       1.825   7.138  20.494  0.00  0.00    +0.000 OA
ATOM     19  C   UNL     1       2.033   7.515  19.333  0.00  0.00    +0.000 C 
BRANCH  19  20
ATOM     20  C   UNL     1       2.527   6.505  18.323  0.00  0.00    +0.000 C 
BRANCH  20  21
ATOM     21  C   UNL     1       3.918   6.858  17.764  0.00  0.00    +0.000 C 
BRANCH  21  22
ATOM     22  S   UNL     1       4.847   5.484  17.013  0.00  0.00    +0.000 S 
BRANCH  22  23
ATOM     23  C   UNL     1       5.826   4.806  18.296  0.00  0.00    +0.000 C 
ATOM     24  S   UNL     1       7.053   5.553  19.131  0.00  0.00    +0.000 S 
BRANCH  23  25
ATOM     25  N   UNL     1       5.345   3.546  18.516  0.00  0.00    +0.000 N 
ATOM     26  H   UNL     1       5.207   3.012  17.661  0.00  0.00    +0.000 HD
BRANCH  25  27
ATOM     27  C   UNL     1       4.719   3.013  19.711  0.00  0.00    +0.000 C 
BRANCH  27  28
ATOM     28  C   UNL     1       3.221   3.036  19.602  0.00  0.00    +0.000 A 
ATOM     29  C   UNL     1       2.411   3.474  20.657  0.00  0.00    +0.000 A 
ATOM     30  C   UNL     1       1.029   3.480  20.515  0.00  0.00    +0.000 A 
ATOM     31  C   UNL     1       0.498   3.056  19.302  0.00  0.00    +0.000 A 
ATOM     32  N   UNL     1       1.246   2.650  18.258  0.00  0.00    +0.000 NA
ATOM     33  C   UNL     1       2.585   2.629  18.433  0.00  0.00    +0.000 A 
ENDBRANCH  27  28
ENDBRANCH  25  27
ENDBRANCH  23  25
ENDBRANCH  22  23
ENDBRANCH  21  22
ENDBRANCH  20  21
ENDBRANCH  19  20
ENDBRANCH   1  19
TORSDOF 9
ENDMDL
MODEL 3
REMARK VINA RESULT:      -7.7      5.022     10.799
REMARK  Name = 
REMARK  9 active torsions:
REMARK  status: ('A' for Active; 'I' for Inactive)
REMARK    1  A    between atoms: C_2  and  C_3
REMARK    2  A    between atoms: C_2  and  C_16
REMARK    3  A    between atoms: C_3  and  C_4
REMARK    4  A    between atoms: C_4  and  S_5
REMARK    5  A    between atoms: S_5  and  C_6
REMARK    6  A    between atoms: C_6  and  N_8
REMARK    7  A    between atoms: N_8  and  C_9
REMARK    8  A    between atoms: C_9  and  C_10
REMARK    9  A    between atoms: C_22  and  C_23
REMARK                            x       y       z     vdW  Elec       q    Type
REMARK                         _______ _______ _______ _____ _____    ______ ____
ROOT
ATOM      1  C   UNL     1       0.883   9.709  19.752  0.00  0.00    +0.000 A 
ATOM      2  C   UNL     1      -0.016   9.267  20.722  0.00  0.00    +0.000 A 
ATOM      3  N   UNL     1       0.530   8.189  21.337  0.00  0.00    +0.000 N 
ATOM      4  C   UNL     1       1.457   7.651  20.506  0.00  0.00    +0.000 A 
ATOM      5  N   UNL     1       1.937   6.422  20.711  0.00  0.00    +0.000 NA
ATOM      6  C   UNL     1       2.703   5.990  19.697  0.00  0.00    +0.000 A 
ATOM      7  C   UNL     1       3.108   6.718  18.571  0.00  0.00    +0.000 A 
ATOM      8  C   UNL     1       2.636   8.065  18.481  0.00  0.00    +0.000 A 
ATOM      9  C   UNL     1       1.720   8.548  19.466  0.00  0.00    +0.000 A 
ATOM     10  H   UNL     1       0.212   7.743  22.183  0.00  0.00    +0.000 HD
ENDROOT
BRANCH   7  11
ATOM     11  C   UNL     1       3.941   6.012  17.556  0.00  0.00    +0.000 A 
ATOM     12  C   UNL     1       4.717   6.689  16.601  0.00  0.00    +0.000 A 
ATOM     13  C   UNL     1       5.405   5.990  15.592  0.00  0.00    +0.000 A 
ATOM     14  C   UNL     1       5.325   4.601  15.511  0.00  0.00    +0.000 A 
ATOM     15 CL   UNL     1       6.160   3.752  14.271  0.00  0.00    +0.000 Cl
ATOM     16  C   UNL     1       4.558   3.901  16.429  0.00  0.00    +0.000 A 
ATOM     17  C   UNL     1       3.887   4.600  17.440  0.00  0.00    +0.000 A 
ENDBRANCH   7  11
BRANCH   1  19
ATOM     18  O   UNL     1       1.590  11.574  18.524  0.00  0.00    +0.000 OA
ATOM     19  C   UNL     1       0.717  11.086  19.253  0.00  0.00    +0.000 C 
BRANCH  19  20
ATOM     20  C   UNL     1      -0.530  11.894  19.527  0.00  0.00    +0.000 C 
BRANCH  20  21
ATOM     21  C   UNL     1      -1.527  11.860  18.354  0.00  0.00    +0.000 C 
BRANCH  21  22
ATOM     22  S   UNL     1      -1.638  10.286  17.447  0.00  0.00    +0.000 S 
BRANCH  22  23
ATOM     23  C   UNL     1      -3.100  10.384  16.489  0.00  0.00    +0.000 C 
ATOM     24  S   UNL     1      -3.235  10.244  14.838  0.00  0.00    +0.000 S 
BRANCH  23  25
ATOM     25  N   UNL     1      -4.126  10.550  17.376  0.00  0.00    +0.000 N 
ATOM     26  H   UNL     1      -4.216   9.782  18.038  0.00  0.00    +0.000 HD
BRANCH  25  27
ATOM     27  C   UNL     1      -5.254  11.458  17.293  0.00  0.00    +0.000 C 
BRANCH  27  28
ATOM     28  C   UNL     1      -5.982  11.549  18.603  0.00  0.00    +0.000 A 
ATOM     29  C   UNL     1      -6.766  10.495  19.088  0.00  0.00    +0.000 A 
ATOM     30  C   UNL     1      -7.422  10.620  20.306  0.00  0.00    +0.000 A 
ATOM     31  C   UNL     1      -7.259  11.805  21.014  0.00  0.00    +0.000 A 
ATOM     32  N   UNL     1      -6.496  12.832  20.591  0.00  0.00    +0.000 NA
ATOM     33  C   UNL     1      -5.891  12.693  19.392  0.00  0.00    +0.000 A 
ENDBRANCH  27  28
ENDBRANCH  25  27
ENDBRANCH  23  25
ENDBRANCH  22  23
ENDBRANCH  21  22
ENDBRANCH  20  21
ENDBRANCH  19  20
ENDBRANCH   1  19
TORSDOF 9
ENDMDL
MODEL 4
REMARK VINA RESULT:      -7.6      1.287      1.910
REMARK  Name = 
REMARK  9 active torsions:
REMARK  status: ('A' for Active; 'I' for Inactive)
REMARK    1  A    between atoms: C_2  and  C_3
REMARK    2  A    between atoms: C_2  and  C_16
REMARK    3  A    between atoms: C_3  and  C_4
REMARK    4  A    between atoms: C_4  and  S_5
REMARK    5  A    between atoms: S_5  and  C_6
REMARK    6  A    between atoms: C_6  and  N_8
REMARK    7  A    between atoms: N_8  and  C_9
REMARK    8  A    between atoms: C_9  and  C_10
REMARK    9  A    between atoms: C_22  and  C_23
REMARK                            x       y       z     vdW  Elec       q    Type
REMARK                         _______ _______ _______ _____ _____    ______ ____
ROOT
ATOM      1  C   UNL     1       2.239   6.807  19.222  0.00  0.00    +0.000 A 
ATOM      2  C   UNL     1       2.673   6.870  17.898  0.00  0.00    +0.000 A 
ATOM      3  N   UNL     1       2.905   8.172  17.597  0.00  0.00    +0.000 N 
ATOM      4  C   UNL     1       2.194   8.940  18.459  0.00  0.00    +0.000 A 
ATOM      5  N   UNL     1       1.988  10.237  18.221  0.00  0.00    +0.000 NA
ATOM      6  C   UNL     1       1.121  10.792  19.082  0.00  0.00    +0.000 A 
ATOM      7  C   UNL     1       0.542  10.189  20.206  0.00  0.00    +0.000 A 
ATOM      8  C   UNL     1       0.898   8.827  20.453  0.00  0.00    +0.000 A 
ATOM      9  C   UNL     1       1.724   8.142  19.508  0.00  0.00    +0.000 A 
ATOM     10  H   UNL     1       3.378   8.536  16.785  0.00  0.00    +0.000 HD
ENDROOT
BRANCH   7  11
ATOM     11  C   UNL     1      -0.423  11.000  21.003  0.00  0.00    +0.000 A 
ATOM     12  C   UNL     1      -0.477  10.961  22.405  0.00  0.00    +0.000 A 
ATOM     13  C   UNL     1      -1.472  11.657  23.117  0.00  0.00    +0.000 A 
ATOM     14  C   UNL     1      -2.437  12.401  22.440  0.00  0.00    +0.000 A 
ATOM     15 CL   UNL     1      -3.655  13.244  23.313  0.00  0.00    +0.000 Cl
ATOM     16  C   UNL     1      -2.422  12.452  21.056  0.00  0.00    +0.000 A 
ATOM     17  C   UNL     1      -1.422  11.769  20.353  0.00  0.00    +0.000 A 
ENDBRANCH   7  11
BRANCH   1  19
ATOM     18  O   UNL     1       3.305   5.263  20.623  0.00  0.00    +0.000 OA
ATOM     19  C   UNL     1       2.329   5.502  19.901  0.00  0.00    +0.000 C 
BRANCH  19  20
ATOM     20  C   UNL     1       1.222   4.477  19.819  0.00  0.00    +0.000 C 
BRANCH  20  21
ATOM     21  C   UNL     1       1.316   3.604  18.553  0.00  0.00    +0.000 C 
BRANCH  21  22
ATOM     22  S   UNL     1       2.172   2.009  18.746  0.00  0.00    +0.000 S 
BRANCH  22  23
ATOM     23  C   UNL     1       3.832   2.400  19.143  0.00  0.00    +0.000 C 
ATOM     24  S   UNL     1       4.721   1.835  20.429  0.00  0.00    +0.000 S 
BRANCH  23  25
ATOM     25  N   UNL     1       4.276   3.229  18.152  0.00  0.00    +0.000 N 
ATOM     26  H   UNL     1       3.938   2.970  17.228  0.00  0.00    +0.000 HD
BRANCH  25  27
ATOM     27  C   UNL     1       5.376   4.173  18.189  0.00  0.00    +0.000 C 
BRANCH  27  28
ATOM     28  C   UNL     1       5.950   4.399  16.819  0.00  0.00    +0.000 A 
ATOM     29  C   UNL     1       5.430   3.762  15.686  0.00  0.00    +0.000 A 
ATOM     30  C   UNL     1       5.991   3.999  14.437  0.00  0.00    +0.000 A 
ATOM     31  C   UNL     1       7.058   4.887  14.361  0.00  0.00    +0.000 A 
ATOM     32  N   UNL     1       7.570   5.535  15.425  0.00  0.00    +0.000 NA
ATOM     33  C   UNL     1       7.023   5.266  16.630  0.00  0.00    +0.000 A 
ENDBRANCH  27  28
ENDBRANCH  25  27
ENDBRANCH  23  25
ENDBRANCH  22  23
ENDBRANCH  21  22
ENDBRANCH  20  21
ENDBRANCH  19  20
ENDBRANCH   1  19
TORSDOF 9
ENDMDL
MODEL 5
REMARK VINA RESULT:      -7.4      4.793     10.580
REMARK  Name = 
REMARK  9 active torsions:
REMARK  status: ('A' for Active; 'I' for Inactive)
REMARK    1  A    between atoms: C_2  and  C_3
REMARK    2  A    between atoms: C_2  and  C_16
REMARK    3  A    between atoms: C_3  and  C_4
REMARK    4  A    between atoms: C_4  and  S_5
REMARK    5  A    between atoms: S_5  and  C_6
REMARK    6  A    between atoms: C_6  and  N_8
REMARK    7  A    between atoms: N_8  and  C_9
REMARK    8  A    between atoms: C_9  and  C_10
REMARK    9  A    between atoms: C_22  and  C_23
REMARK                            x       y       z     vdW  Elec       q    Type
REMARK                         _______ _______ _______ _____ _____    ______ ____
ROOT
ATOM      1  C   UNL     1       2.234   6.790  19.990  0.00  0.00    +0.000 A 
ATOM      2  C   UNL     1       1.609   5.878  20.840  0.00  0.00    +0.000 A 
ATOM      3  N   UNL     1       2.439   4.817  20.994  0.00  0.00    +0.000 N 
ATOM      4  C   UNL     1       3.291   4.787  19.940  0.00  0.00    +0.000 A 
ATOM      5  N   UNL     1       4.014   3.699  19.666  0.00  0.00    +0.000 NA
ATOM      6  C   UNL     1       4.661   3.787  18.494  0.00  0.00    +0.000 A 
ATOM      7  C   UNL     1       4.728   4.900  17.646  0.00  0.00    +0.000 A 
ATOM      8  C   UNL     1       4.012   6.064  18.065  0.00  0.00    +0.000 A 
ATOM      9  C   UNL     1       3.205   5.998  19.244  0.00  0.00    +0.000 A 
ATOM     10  H   UNL     1       2.357   4.071  21.667  0.00  0.00    +0.000 HD
ENDROOT
BRANCH   7  11
ATOM     11  C   UNL     1       5.489   4.752  16.372  0.00  0.00    +0.000 A 
ATOM     12  C   UNL     1       6.741   5.351  16.157  0.00  0.00    +0.000 A 
ATOM     13  C   UNL     1       7.379   5.278  14.905  0.00  0.00    +0.000 A 
ATOM     14  C   UNL     1       6.776   4.610  13.841  0.00  0.00    +0.000 A 
ATOM     15 CL   UNL     1       7.556   4.529  12.310  0.00  0.00    +0.000 Cl
ATOM     16  C   UNL     1       5.536   4.017  14.013  0.00  0.00    +0.000 A 
ATOM     17  C   UNL     1       4.911   4.081  15.265  0.00  0.00    +0.000 A 
ENDBRANCH   7  11
BRANCH   1  19
ATOM     18  O   UNL     1       1.604   8.784  18.935  0.00  0.00    +0.000 OA
ATOM     19  C   UNL     1       1.738   8.178  20.006  0.00  0.00    +0.000 C 
BRANCH  19  20
ATOM     20  C   UNL     1       1.300   8.859  21.281  0.00  0.00    +0.000 C 
BRANCH  20  21
ATOM     21  C   UNL     1       0.108   9.810  21.066  0.00  0.00    +0.000 C 
BRANCH  21  22
ATOM     22  S   UNL     1       0.470  11.588  21.217  0.00  0.00    +0.000 S 
BRANCH  22  23
ATOM     23  C   UNL     1      -1.029  12.344  21.717  0.00  0.00    +0.000 C 
ATOM     24  S   UNL     1      -1.306  13.210  23.107  0.00  0.00    +0.000 S 
BRANCH  23  25
ATOM     25  N   UNL     1      -1.922  12.122  20.707  0.00  0.00    +0.000 N 
ATOM     26  H   UNL     1      -2.500  11.297  20.853  0.00  0.00    +0.000 HD
BRANCH  25  27
ATOM     27  C   UNL     1      -1.928  12.677  19.367  0.00  0.00    +0.000 C 
BRANCH  27  28
ATOM     28  C   UNL     1      -2.403  11.670  18.359  0.00  0.00    +0.000 A 
ATOM     29  C   UNL     1      -1.543  10.707  17.815  0.00  0.00    +0.000 A 
ATOM     30  C   UNL     1      -2.023   9.794  16.885  0.00  0.00    +0.000 A 
ATOM     31  C   UNL     1      -3.367   9.866  16.536  0.00  0.00    +0.000 A 
ATOM     32  N   UNL     1      -4.228  10.763  17.054  0.00  0.00    +0.000 NA
ATOM     33  C   UNL     1      -3.729  11.655  17.935  0.00  0.00    +0.000 A 
ENDBRANCH  27  28
ENDBRANCH  25  27
ENDBRANCH  23  25
ENDBRANCH  22  23
ENDBRANCH  21  22
ENDBRANCH  20  21
ENDBRANCH  19  20
ENDBRANCH   1  19
TORSDOF 9
ENDMDL
MODEL 6
REMARK VINA RESULT:      -7.3      1.775      3.351
REMARK  Name = 
REMARK  9 active torsions:
REMARK  status: ('A' for Active; 'I' for Inactive)
REMARK    1  A    between atoms: C_2  and  C_3
REMARK    2  A    between atoms: C_2  and  C_16
REMARK    3  A    between atoms: C_3  and  C_4
REMARK    4  A    between atoms: C_4  and  S_5
REMARK    5  A    between atoms: S_5  and  C_6
REMARK    6  A    between atoms: C_6  and  N_8
REMARK    7  A    between atoms: N_8  and  C_9
REMARK    8  A    between atoms: C_9  and  C_10
REMARK    9  A    between atoms: C_22  and  C_23
REMARK                            x       y       z     vdW  Elec       q    Type
REMARK                         _______ _______ _______ _____ _____    ______ ____
ROOT
ATOM      1  C   UNL     1       1.591   8.809  19.370  0.00  0.00    +0.000 A 
ATOM      2  C   UNL     1       2.058   9.101  18.089  0.00  0.00    +0.000 A 
ATOM      3  N   UNL     1       1.985  10.444  17.916  0.00  0.00    +0.000 N 
ATOM      4  C   UNL     1       1.072  10.936  18.789  0.00  0.00    +0.000 A 
ATOM      5  N   UNL     1       0.573  12.166  18.647  0.00  0.00    +0.000 NA
ATOM      6  C   UNL     1      -0.441  12.415  19.491  0.00  0.00    +0.000 A 
ATOM      7  C   UNL     1      -0.910  11.586  20.519  0.00  0.00    +0.000 A 
ATOM      8  C   UNL     1      -0.250  10.328  20.673  0.00  0.00    +0.000 A 
ATOM      9  C   UNL     1       0.759   9.951  19.732  0.00  0.00    +0.000 A 
ATOM     10  H   UNL     1       2.395  10.987  17.171  0.00  0.00    +0.000 HD
ENDROOT
BRANCH   7  11
ATOM     11  C   UNL     1      -2.077  12.067  21.313  0.00  0.00    +0.000 A 
ATOM     12  C   UNL     1      -3.147  12.774  20.743  0.00  0.00    +0.000 A 
ATOM     13  C   UNL     1      -4.178  13.305  21.541  0.00  0.00    +0.000 A 
ATOM     14  C   UNL     1      -4.156  13.145  22.926  0.00  0.00    +0.000 A 
ATOM     15 CL   UNL     1      -5.413  13.802  23.898  0.00  0.00    +0.000 Cl
ATOM     16  C   UNL     1      -3.108  12.463  23.523  0.00  0.00    +0.000 A 
ATOM     17  C   UNL     1      -2.092  11.925  22.724  0.00  0.00    +0.000 A 
ENDBRANCH   7  11
BRANCH   1  19
ATOM     18  O   UNL     1       1.238   6.997  20.813  0.00  0.00    +0.000 OA
ATOM     19  C   UNL     1       1.960   7.501  19.942  0.00  0.00    +0.000 C 
BRANCH  19  20
ATOM     20  C   UNL     1       3.142   6.709  19.436  0.00  0.00    +0.000 C 
BRANCH  20  21
ATOM     21  C   UNL     1       3.003   6.319  17.952  0.00  0.00    +0.000 C 
BRANCH  21  22
ATOM     22  S   UNL     1       4.555   6.214  17.007  0.00  0.00    +0.000 S 
BRANCH  22  23
ATOM     23  C   UNL     1       4.725   4.534  16.545  0.00  0.00    +0.000 C 
ATOM     24  S   UNL     1       5.873   3.876  15.539  0.00  0.00    +0.000 S 
BRANCH  23  25
ATOM     25  N   UNL     1       3.751   3.853  17.220  0.00  0.00    +0.000 N 
ATOM     26  H   UNL     1       2.880   4.373  17.304  0.00  0.00    +0.000 HD
BRANCH  25  27
ATOM     27  C   UNL     1       3.889   2.694  18.079  0.00  0.00    +0.000 C 
BRANCH  27  28
ATOM     28  C   UNL     1       3.027   2.814  19.304  0.00  0.00    +0.000 A 
ATOM     29  C   UNL     1       1.677   3.177  19.225  0.00  0.00    +0.000 A 
ATOM     30  C   UNL     1       0.915   3.276  20.382  0.00  0.00    +0.000 A 
ATOM     31  C   UNL     1       1.533   2.991  21.594  0.00  0.00    +0.000 A 
ATOM     32  N   UNL     1       2.823   2.617  21.708  0.00  0.00    +0.000 NA
ATOM     33  C   UNL     1       3.546   2.555  20.570  0.00  0.00    +0.000 A 
ENDBRANCH  27  28
ENDBRANCH  25  27
ENDBRANCH  23  25
ENDBRANCH  22  23
ENDBRANCH  21  22
ENDBRANCH  20  21
ENDBRANCH  19  20
ENDBRANCH   1  19
TORSDOF 9
ENDMDL
MODEL 7
REMARK VINA RESULT:      -7.3      4.866     10.899
REMARK  Name = 
REMARK  9 active torsions:
REMARK  status: ('A' for Active; 'I' for Inactive)
REMARK    1  A    between atoms: C_2  and  C_3
REMARK    2  A    between atoms: C_2  and  C_16
REMARK    3  A    between atoms: C_3  and  C_4
REMARK    4  A    between atoms: C_4  and  S_5
REMARK    5  A    between atoms: S_5  and  C_6
REMARK    6  A    between atoms: C_6  and  N_8
REMARK    7  A    between atoms: N_8  and  C_9
REMARK    8  A    between atoms: C_9  and  C_10
REMARK    9  A    between atoms: C_22  and  C_23
REMARK                            x       y       z     vdW  Elec       q    Type
REMARK                         _______ _______ _______ _____ _____    ______ ____
ROOT
ATOM      1  C   UNL     1       0.946   9.771  19.781  0.00  0.00    +0.000 A 
ATOM      2  C   UNL     1      -0.005   9.342  20.706  0.00  0.00    +0.000 A 
ATOM      3  N   UNL     1       0.471   8.221  21.303  0.00  0.00    +0.000 N 
ATOM      4  C   UNL     1       1.401   7.667  20.487  0.00  0.00    +0.000 A 
ATOM      5  N   UNL     1       1.819   6.412  20.668  0.00  0.00    +0.000 NA
ATOM      6  C   UNL     1       2.600   5.976  19.667  0.00  0.00    +0.000 A 
ATOM      7  C   UNL     1       3.076   6.720  18.579  0.00  0.00    +0.000 A 
ATOM      8  C   UNL     1       2.667   8.089  18.516  0.00  0.00    +0.000 A 
ATOM      9  C   UNL     1       1.740   8.583  19.485  0.00  0.00    +0.000 A 
ATOM     10  H   UNL     1       0.104   7.765  22.123  0.00  0.00    +0.000 HD
ENDROOT
BRANCH   7  11
ATOM     11  C   UNL     1       3.911   6.008  17.570  0.00  0.00    +0.000 A 
ATOM     12  C   UNL     1       4.702   6.680  16.624  0.00  0.00    +0.000 A 
ATOM     13  C   UNL     1       5.392   5.977  15.619  0.00  0.00    +0.000 A 
ATOM     14  C   UNL     1       5.300   4.589  15.535  0.00  0.00    +0.000 A 
ATOM     15 CL   UNL     1       6.139   3.734  14.301  0.00  0.00    +0.000 Cl
ATOM     16  C   UNL     1       4.519   3.894  16.445  0.00  0.00    +0.000 A 
ATOM     17  C   UNL     1       3.845   4.597  17.451  0.00  0.00    +0.000 A 
ENDBRANCH   7  11
BRANCH   1  19
ATOM     18  O   UNL     1       1.616  11.558  18.422  0.00  0.00    +0.000 OA
ATOM     19  C   UNL     1       0.858  11.169  19.321  0.00  0.00    +0.000 C 
BRANCH  19  20
ATOM     20  C   UNL     1      -0.189  12.123  19.847  0.00  0.00    +0.000 C 
BRANCH  20  21
ATOM     21  C   UNL     1      -1.074  12.706  18.729  0.00  0.00    +0.000 C 
BRANCH  21  22
ATOM     22  S   UNL     1      -1.963  11.493  17.703  0.00  0.00    +0.000 S 
BRANCH  22  23
ATOM     23  C   UNL     1      -3.661  11.701  18.076  0.00  0.00    +0.000 C 
ATOM     24  S   UNL     1      -4.948  11.553  17.034  0.00  0.00    +0.000 S 
BRANCH  23  25
ATOM     25  N   UNL     1      -3.728  11.962  19.415  0.00  0.00    +0.000 N 
ATOM     26  H   UNL     1      -3.130  11.357  19.975  0.00  0.00    +0.000 HD
BRANCH  25  27
ATOM     27  C   UNL     1      -4.734  12.714  20.141  0.00  0.00    +0.000 C 
BRANCH  27  28
ATOM     28  C   UNL     1      -4.409  12.794  21.605  0.00  0.00    +0.000 A 
ATOM     29  C   UNL     1      -3.194  12.323  22.119  0.00  0.00    +0.000 A 
ATOM     30  C   UNL     1      -2.932  12.417  23.480  0.00  0.00    +0.000 A 
ATOM     31  C   UNL     1      -3.901  12.998  24.290  0.00  0.00    +0.000 A 
ATOM     32  N   UNL     1      -5.071  13.482  23.829  0.00  0.00    +0.000 NA
ATOM     33  C   UNL     1      -5.310  13.353  22.506  0.00  0.00    +0.000 A 
ENDBRANCH  27  28
ENDBRANCH  25  27
ENDBRANCH  23  25
ENDBRANCH  22  23
ENDBRANCH  21  22
ENDBRANCH  20  21
ENDBRANCH  19  20
ENDBRANCH   1  19
TORSDOF 9
ENDMDL
MODEL 8
REMARK VINA RESULT:      -7.3      1.065      1.716
REMARK  Name = 
REMARK  9 active torsions:
REMARK  status: ('A' for Active; 'I' for Inactive)
REMARK    1  A    between atoms: C_2  and  C_3
REMARK    2  A    between atoms: C_2  and  C_16
REMARK    3  A    between atoms: C_3  and  C_4
REMARK    4  A    between atoms: C_4  and  S_5
REMARK    5  A    between atoms: S_5  and  C_6
REMARK    6  A    between atoms: C_6  and  N_8
REMARK    7  A    between atoms: N_8  and  C_9
REMARK    8  A    between atoms: C_9  and  C_10
REMARK    9  A    between atoms: C_22  and  C_23
REMARK                            x       y       z     vdW  Elec       q    Type
REMARK                         _______ _______ _______ _____ _____    ______ ____
ROOT
ATOM      1  C   UNL     1       1.568   8.905  19.313  0.00  0.00    +0.000 A 
ATOM      2  C   UNL     1       2.031   9.232  18.038  0.00  0.00    +0.000 A 
ATOM      3  N   UNL     1       1.938  10.577  17.893  0.00  0.00    +0.000 N 
ATOM      4  C   UNL     1       1.017  11.036  18.775  0.00  0.00    +0.000 A 
ATOM      5  N   UNL     1       0.499  12.261  18.658  0.00  0.00    +0.000 NA
ATOM      6  C   UNL     1      -0.519  12.477  19.506  0.00  0.00    +0.000 A 
ATOM      7  C   UNL     1      -0.976  11.620  20.516  0.00  0.00    +0.000 A 
ATOM      8  C   UNL     1      -0.297  10.369  20.645  0.00  0.00    +0.000 A 
ATOM      9  C   UNL     1       0.718  10.027  19.697  0.00  0.00    +0.000 A 
ATOM     10  H   UNL     1       2.340  11.141  17.160  0.00  0.00    +0.000 HD
ENDROOT
BRANCH   7  11
ATOM     11  C   UNL     1      -2.151  12.066  21.318  0.00  0.00    +0.000 A 
ATOM     12  C   UNL     1      -3.258  12.718  20.752  0.00  0.00    +0.000 A 
ATOM     13  C   UNL     1      -4.299  13.220  21.556  0.00  0.00    +0.000 A 
ATOM     14  C   UNL     1      -4.250  13.086  22.942  0.00  0.00    +0.000 A 
ATOM     15 CL   UNL     1      -5.520  13.708  23.921  0.00  0.00    +0.000 Cl
ATOM     16  C   UNL     1      -3.167  12.459  23.536  0.00  0.00    +0.000 A 
ATOM     17  C   UNL     1      -2.141  11.949  22.732  0.00  0.00    +0.000 A 
ENDBRANCH   7  11
BRANCH   1  19
ATOM     18  O   UNL     1       1.364   7.151  20.851  0.00  0.00    +0.000 OA
ATOM     19  C   UNL     1       1.956   7.592  19.857  0.00  0.00    +0.000 C 
BRANCH  19  20
ATOM     20  C   UNL     1       2.993   6.720  19.188  0.00  0.00    +0.000 C 
BRANCH  20  21
ATOM     21  C   UNL     1       2.417   5.914  18.009  0.00  0.00    +0.000 C 
BRANCH  21  22
ATOM     22  S   UNL     1       1.555   4.371  18.445  0.00  0.00    +0.000 S 
BRANCH  22  23
ATOM     23  C   UNL     1       2.542   3.596  19.665  0.00  0.00    +0.000 C 
ATOM     24  S   UNL     1       2.153   3.331  21.259  0.00  0.00    +0.000 S 
BRANCH  23  25
ATOM     25  N   UNL     1       3.688   3.202  19.034  0.00  0.00    +0.000 N 
ATOM     26  H   UNL     1       3.535   2.484  18.329  0.00  0.00    +0.000 HD
BRANCH  25  27
ATOM     27  C   UNL     1       5.064   3.410  19.444  0.00  0.00    +0.000 C 
BRANCH  27  28
ATOM     28  C   UNL     1       5.761   4.391  18.546  0.00  0.00    +0.000 A 
ATOM     29  C   UNL     1       6.603   5.388  19.054  0.00  0.00    +0.000 A 
ATOM     30  C   UNL     1       7.230   6.276  18.188  0.00  0.00    +0.000 A 
ATOM     31  C   UNL     1       7.001   6.126  16.825  0.00  0.00    +0.000 A 
ATOM     32  N   UNL     1       6.216   5.167  16.298  0.00  0.00    +0.000 NA
ATOM     33  C   UNL     1       5.599   4.334  17.164  0.00  0.00    +0.000 A 
ENDBRANCH  27  28
ENDBRANCH  25  27
ENDBRANCH  23  25
ENDBRANCH  22  23
ENDBRANCH  21  22
ENDBRANCH  20  21
ENDBRANCH  19  20
ENDBRANCH   1  19
TORSDOF 9
ENDMDL
MODEL 9
REMARK VINA RESULT:      -7.2      2.849      4.289
REMARK  Name = 
REMARK  9 active torsions:
REMARK  status: ('A' for Active; 'I' for Inactive)
REMARK    1  A    between atoms: C_2  and  C_3
REMARK    2  A    between atoms: C_2  and  C_16
REMARK    3  A    between atoms: C_3  and  C_4
REMARK    4  A    between atoms: C_4  and  S_5
REMARK    5  A    between atoms: S_5  and  C_6
REMARK    6  A    between atoms: C_6  and  N_8
REMARK    7  A    between atoms: N_8  and  C_9
REMARK    8  A    between atoms: C_9  and  C_10
REMARK    9  A    between atoms: C_22  and  C_23
REMARK                            x       y       z     vdW  Elec       q    Type
REMARK                         _______ _______ _______ _____ _____    ______ ____
ROOT
ATOM      1  C   UNL     1       1.669   8.573  19.387  0.00  0.00    +0.000 A 
ATOM      2  C   UNL     1       1.803   7.809  20.545  0.00  0.00    +0.000 A 
ATOM      3  N   UNL     1       0.793   8.145  21.385  0.00  0.00    +0.000 N 
ATOM      4  C   UNL     1       0.347   9.379  21.041  0.00  0.00    +0.000 A 
ATOM      5  N   UNL     1      -0.427  10.088  21.865  0.00  0.00    +0.000 NA
ATOM      6  C   UNL     1      -0.622  11.346  21.440  0.00  0.00    +0.000 A 
ATOM      7  C   UNL     1      -0.204  11.902  20.223  0.00  0.00    +0.000 A 
ATOM      8  C   UNL     1       0.530  11.042  19.348  0.00  0.00    +0.000 A 
ATOM      9  C   UNL     1       0.874   9.727  19.793  0.00  0.00    +0.000 A 
ATOM     10  H   UNL     1       0.512   7.664  22.225  0.00  0.00    +0.000 HD
ENDROOT
BRANCH   7  11
ATOM     11  C   UNL     1      -0.513  13.341  19.981  0.00  0.00    +0.000 A 
ATOM     12  C   UNL     1       0.051  14.075  18.926  0.00  0.00    +0.000 A 
ATOM     13  C   UNL     1      -0.180  15.457  18.792  0.00  0.00    +0.000 A 
ATOM     14  C   UNL     1      -0.975  16.134  19.715  0.00  0.00    +0.000 A 
ATOM     15 CL   UNL     1      -1.249  17.824  19.553  0.00  0.00    +0.000 Cl
ATOM     16  C   UNL     1      -1.538  15.444  20.777  0.00  0.00    +0.000 A 
ATOM     17  C   UNL     1      -1.316  14.066  20.898  0.00  0.00    +0.000 A 
ENDBRANCH   7  11
BRANCH   1  19
ATOM     18  O   UNL     1       2.430   8.838  17.187  0.00  0.00    +0.000 OA
ATOM     19  C   UNL     1       2.372   8.101  18.180  0.00  0.00    +0.000 C 
BRANCH  19  20
ATOM     20  C   UNL     1       3.105   6.781  18.144  0.00  0.00    +0.000 C 
BRANCH  20  21
ATOM     21  C   UNL     1       4.305   6.796  17.178  0.00  0.00    +0.000 C 
BRANCH  21  22
ATOM     22  S   UNL     1       5.244   5.241  17.050  0.00  0.00    +0.000 S 
BRANCH  22  23
ATOM     23  C   UNL     1       6.142   5.097  18.546  0.00  0.00    +0.000 C 
ATOM     24  S   UNL     1       7.574   5.845  18.939  0.00  0.00    +0.000 S 
BRANCH  23  25
ATOM     25  N   UNL     1       5.404   4.281  19.356  0.00  0.00    +0.000 N 
ATOM     26  H   UNL     1       5.615   4.396  20.345  0.00  0.00    +0.000 HD
BRANCH  25  27
ATOM     27  C   UNL     1       4.647   3.097  18.998  0.00  0.00    +0.000 C 
BRANCH  27  28
ATOM     28  C   UNL     1       3.205   3.227  19.396  0.00  0.00    +0.000 A 
ATOM     29  C   UNL     1       2.187   2.538  18.724  0.00  0.00    +0.000 A 
ATOM     30  C   UNL     1       0.866   2.686  19.125  0.00  0.00    +0.000 A 
ATOM     31  C   UNL     1       0.604   3.518  20.208  0.00  0.00    +0.000 A 
ATOM     32  N   UNL     1       1.557   4.179  20.893  0.00  0.00    +0.000 NA
ATOM     33  C   UNL     1       2.830   4.038  20.465  0.00  0.00    +0.000 A 
ENDBRANCH  27  28
ENDBRANCH  25  27
ENDBRANCH  23  25
ENDBRANCH  22  23
ENDBRANCH  21  22
ENDBRANCH  20  21
ENDBRANCH  19  20
ENDBRANCH   1  19
TORSDOF 9
ENDMDL
