MODEL 1
REMARK VINA RESULT:      -9.6      0.000      0.000
REMARK  Name = 
REMARK  2 active torsions:
REMARK  status: ('A' for Active; 'I' for Inactive)
REMARK    1  A    between atoms: N_4  and  C_5
REMARK    2  A    between atoms: C_5  and  C_7
REMARK                            x       y       z     vdW  Elec       q    Type
REMARK                         _______ _______ _______ _____ _____    ______ ____
ROOT
ATOM      1  C   UNL     1       5.705   5.261  15.654  0.00  0.00    +0.000 A 
ATOM      2  C   UNL     1       5.429   6.642  15.817  0.00  0.00    +0.000 A 
ATOM      3  C   UNL     1       4.557   7.088  16.823  0.00  0.00    +0.000 A 
ATOM      4  C   UNL     1       3.978   6.134  17.663  0.00  0.00    +0.000 A 
ATOM      5  C   UNL     1       4.254   4.785  17.527  0.00  0.00    +0.000 A 
ATOM      6  C   UNL     1       5.111   4.328  16.528  0.00  0.00    +0.000 A 
ATOM      7  C   UNL     1       3.531   3.960  18.568  0.00  0.00    +0.000 C 
ATOM      8  C   UNL     1       4.504   3.226  19.505  0.00  0.00    +0.000 C 
ATOM      9  C   UNL     1       4.246   1.732  19.356  0.00  0.00    +0.000 C 
ATOM     10  C   UNL     1       3.100   1.542  18.365  0.00  0.00    +0.000 C 
ATOM     11  C   UNL     1       2.589   2.915  17.956  0.00  0.00    +0.000 C 
ATOM     12  C   UNL     1       2.779   5.059  19.287  0.00  0.00    +0.000 A 
ATOM     13  C   UNL     1       1.898   4.917  20.366  0.00  0.00    +0.000 A 
ATOM     14  C   UNL     1       1.288   6.063  20.896  0.00  0.00    +0.000 A 
ATOM     15  C   UNL     1       1.563   7.332  20.346  0.00  0.00    +0.000 A 
ATOM     16  C   UNL     1       2.452   7.462  19.266  0.00  0.00    +0.000 A 
ATOM     17  C   UNL     1       3.045   6.303  18.757  0.00  0.00    +0.000 A 
ENDROOT
BRANCH   1  18
ATOM     18  C   UNL     1       6.590   4.777  14.568  0.00  0.00    +0.000 C 
ATOM     19  O   UNL     1       7.664   5.322  14.373  0.00  0.00    +0.000 OA
BRANCH  18  23
ATOM     20  N   UNL     1       5.691   2.361  11.891  0.00  0.00    +0.000 N 
ATOM     21  C   UNL     1       6.360   3.463  12.480  0.00  0.00    +0.000 C 
ATOM     22  N   UNL     1       7.252   4.229  11.677  0.00  0.00    +0.000 N 
ATOM     23  N   UNL     1       6.113   3.723  13.723  0.00  0.00    +0.000 NA
ATOM     24  H   UNL     1       5.841   2.124  10.900  0.00  0.00    +0.000 HD
ATOM     25  H   UNL     1       5.028   1.797  12.444  0.00  0.00    +0.000 HD
ATOM     26  H   UNL     1       7.390   3.968  10.691  0.00  0.00    +0.000 HD
ATOM     27  H   UNL     1       7.792   5.029  12.022  0.00  0.00    +0.000 HD
ENDBRANCH  18  23
ENDBRANCH   1  18
TORSDOF 2
ENDMDL
MODEL 2
REMARK VINA RESULT:      -8.9      1.112      1.444
REMARK  Name = 
REMARK  2 active torsions:
REMARK  status: ('A' for Active; 'I' for Inactive)
REMARK    1  A    between atoms: N_4  and  C_5
REMARK    2  A    between atoms: C_5  and  C_7
REMARK                            x       y       z     vdW  Elec       q    Type
REMARK                         _______ _______ _______ _____ _____    ______ ____
ROOT
ATOM      1  C   UNL     1       5.394   5.177  15.694  0.00  0.00    +0.000 A 
ATOM      2  C   UNL     1       5.238   6.579  15.842  0.00  0.00    +0.000 A 
ATOM      3  C   UNL     1       4.428   7.109  16.859  0.00  0.00    +0.000 A 
ATOM      4  C   UNL     1       3.791   6.218  17.725  0.00  0.00    +0.000 A 
ATOM      5  C   UNL     1       3.951   4.849  17.605  0.00  0.00    +0.000 A 
ATOM      6  C   UNL     1       4.744   4.309  16.595  0.00  0.00    +0.000 A 
ATOM      7  C   UNL     1       3.185   4.101  18.673  0.00  0.00    +0.000 C 
ATOM      8  C   UNL     1       4.114   3.301  19.601  0.00  0.00    +0.000 C 
ATOM      9  C   UNL     1       3.729   1.833  19.480  0.00  0.00    +0.000 C 
ATOM     10  C   UNL     1       2.550   1.725  18.517  0.00  0.00    +0.000 C 
ATOM     11  C   UNL     1       2.146   3.130  18.098  0.00  0.00    +0.000 C 
ATOM     12  C   UNL     1       2.543   5.269  19.391  0.00  0.00    +0.000 A 
ATOM     13  C   UNL     1       1.678   5.216  20.491  0.00  0.00    +0.000 A 
ATOM     14  C   UNL     1       1.177   6.416  21.015  0.00  0.00    +0.000 A 
ATOM     15  C   UNL     1       1.544   7.650  20.440  0.00  0.00    +0.000 A 
ATOM     16  C   UNL     1       2.417   7.690  19.340  0.00  0.00    +0.000 A 
ATOM     17  C   UNL     1       2.900   6.480  18.837  0.00  0.00    +0.000 A 
ENDROOT
BRANCH   1  18
ATOM     18  C   UNL     1       6.211   4.606  14.597  0.00  0.00    +0.000 C 
ATOM     19  O   UNL     1       5.896   3.538  14.099  0.00  0.00    +0.000 OA
BRANCH  18  23
ATOM     20  N   UNL     1       9.209   6.105  12.993  0.00  0.00    +0.000 N 
ATOM     21  C   UNL     1       7.998   5.373  13.062  0.00  0.00    +0.000 C 
ATOM     22  N   UNL     1       7.507   4.751  11.878  0.00  0.00    +0.000 N 
ATOM     23  N   UNL     1       7.403   5.299  14.209  0.00  0.00    +0.000 NA
ATOM     24  H   UNL     1       9.729   6.180  12.107  0.00  0.00    +0.000 HD
ATOM     25  H   UNL     1       9.596   6.555  13.837  0.00  0.00    +0.000 HD
ATOM     26  H   UNL     1       8.042   4.845  11.003  0.00  0.00    +0.000 HD
ATOM     27  H   UNL     1       6.633   4.219  11.829  0.00  0.00    +0.000 HD
ENDBRANCH  18  23
ENDBRANCH   1  18
TORSDOF 2
ENDMDL
MODEL 3
REMARK VINA RESULT:      -8.6      4.212      6.900
REMARK  Name = 
REMARK  2 active torsions:
REMARK  status: ('A' for Active; 'I' for Inactive)
REMARK    1  A    between atoms: N_4  and  C_5
REMARK    2  A    between atoms: C_5  and  C_7
REMARK                            x       y       z     vdW  Elec       q    Type
REMARK                         _______ _______ _______ _____ _____    ______ ____
ROOT
ATOM      1  C   UNL     1       3.081   4.963  18.902  0.00  0.00    +0.000 A 
ATOM      2  C   UNL     1       2.499   4.154  17.893  0.00  0.00    +0.000 A 
ATOM      3  C   UNL     1       3.176   3.910  16.687  0.00  0.00    +0.000 A 
ATOM      4  C   UNL     1       4.440   4.477  16.515  0.00  0.00    +0.000 A 
ATOM      5  C   UNL     1       5.028   5.252  17.500  0.00  0.00    +0.000 A 
ATOM      6  C   UNL     1       4.364   5.509  18.697  0.00  0.00    +0.000 A 
ATOM      7  C   UNL     1       6.404   5.727  17.090  0.00  0.00    +0.000 C 
ATOM      8  C   UNL     1       7.506   5.180  18.012  0.00  0.00    +0.000 C 
ATOM      9  C   UNL     1       8.203   6.373  18.651  0.00  0.00    +0.000 C 
ATOM     10  C   UNL     1       7.566   7.649  18.104  0.00  0.00    +0.000 C 
ATOM     11  C   UNL     1       6.528   7.256  17.064  0.00  0.00    +0.000 C 
ATOM     12  C   UNL     1       6.480   5.122  15.703  0.00  0.00    +0.000 A 
ATOM     13  C   UNL     1       7.534   5.230  14.789  0.00  0.00    +0.000 A 
ATOM     14  C   UNL     1       7.413   4.600  13.542  0.00  0.00    +0.000 A 
ATOM     15  C   UNL     1       6.248   3.873  13.224  0.00  0.00    +0.000 A 
ATOM     16  C   UNL     1       5.199   3.768  14.152  0.00  0.00    +0.000 A 
ATOM     17  C   UNL     1       5.345   4.407  15.387  0.00  0.00    +0.000 A 
ENDROOT
BRANCH   1  18
ATOM     18  C   UNL     1       2.356   5.262  20.160  0.00  0.00    +0.000 C 
ATOM     19  O   UNL     1       1.944   6.392  20.368  0.00  0.00    +0.000 OA
BRANCH  18  23
ATOM     20  N   UNL     1       1.483   2.388  22.347  0.00  0.00    +0.000 N 
ATOM     21  C   UNL     1       1.387   3.245  21.223  0.00  0.00    +0.000 C 
ATOM     22  N   UNL     1       0.366   2.999  20.261  0.00  0.00    +0.000 N 
ATOM     23  N   UNL     1       2.232   4.221  21.135  0.00  0.00    +0.000 NA
ATOM     24  H   UNL     1       0.823   1.607  22.471  0.00  0.00    +0.000 HD
ATOM     25  H   UNL     1       2.204   2.550  23.067  0.00  0.00    +0.000 HD
ATOM     26  H   UNL     1      -0.278   2.208  20.404  0.00  0.00    +0.000 HD
ATOM     27  H   UNL     1       0.233   3.554  19.410  0.00  0.00    +0.000 HD
ENDBRANCH  18  23
ENDBRANCH   1  18
TORSDOF 2
ENDMDL
MODEL 4
REMARK VINA RESULT:      -8.2      5.242      7.361
REMARK  Name = 
REMARK  2 active torsions:
REMARK  status: ('A' for Active; 'I' for Inactive)
REMARK    1  A    between atoms: N_4  and  C_5
REMARK    2  A    between atoms: C_5  and  C_7
REMARK                            x       y       z     vdW  Elec       q    Type
REMARK                         _______ _______ _______ _____ _____    ______ ____
ROOT
ATOM      1  C   UNL     1       1.450   8.800  19.253  0.00  0.00    +0.000 A 
ATOM      2  C   UNL     1       2.226   9.382  18.219  0.00  0.00    +0.000 A 
ATOM      3  C   UNL     1       3.126   8.605  17.471  0.00  0.00    +0.000 A 
ATOM      4  C   UNL     1       3.226   7.245  17.767  0.00  0.00    +0.000 A 
ATOM      5  C   UNL     1       2.460   6.660  18.759  0.00  0.00    +0.000 A 
ATOM      6  C   UNL     1       1.570   7.420  19.515  0.00  0.00    +0.000 A 
ATOM      7  C   UNL     1       2.727   5.176  18.870  0.00  0.00    +0.000 C 
ATOM      8  C   UNL     1       1.479   4.336  18.552  0.00  0.00    +0.000 C 
ATOM      9  C   UNL     1       1.150   3.517  19.793  0.00  0.00    +0.000 C 
ATOM     10  C   UNL     1       2.202   3.817  20.858  0.00  0.00    +0.000 C 
ATOM     11  C   UNL     1       3.234   4.759  20.257  0.00  0.00    +0.000 C 
ATOM     12  C   UNL     1       3.791   5.028  17.802  0.00  0.00    +0.000 A 
ATOM     13  C   UNL     1       4.464   3.858  17.434  0.00  0.00    +0.000 A 
ATOM     14  C   UNL     1       5.429   3.925  16.419  0.00  0.00    +0.000 A 
ATOM     15  C   UNL     1       5.709   5.153  15.786  0.00  0.00    +0.000 A 
ATOM     16  C   UNL     1       5.023   6.320  16.161  0.00  0.00    +0.000 A 
ATOM     17  C   UNL     1       4.067   6.225  17.176  0.00  0.00    +0.000 A 
ENDROOT
BRANCH   1  18
ATOM     18  C   UNL     1       0.531   9.619  20.078  0.00  0.00    +0.000 C 
ATOM     19  O   UNL     1      -0.008  10.600  19.592  0.00  0.00    +0.000 OA
BRANCH  18  23
ATOM     20  N   UNL     1      -0.175   9.327  23.715  0.00  0.00    +0.000 N 
ATOM     21  C   UNL     1      -0.214   9.908  22.423  0.00  0.00    +0.000 C 
ATOM     22  N   UNL     1      -0.873  11.160  22.257  0.00  0.00    +0.000 N 
ATOM     23  N   UNL     1       0.365   9.271  21.457  0.00  0.00    +0.000 NA
ATOM     24  H   UNL     1      -0.607   9.803  24.520  0.00  0.00    +0.000 HD
ATOM     25  H   UNL     1       0.307   8.428  23.868  0.00  0.00    +0.000 HD
ATOM     26  H   UNL     1      -1.302  11.614  23.076  0.00  0.00    +0.000 HD
ATOM     27  H   UNL     1      -0.967  11.645  21.359  0.00  0.00    +0.000 HD
ENDBRANCH  18  23
ENDBRANCH   1  18
TORSDOF 2
ENDMDL
MODEL 5
REMARK VINA RESULT:      -8.1      5.507      7.636
REMARK  Name = 
REMARK  2 active torsions:
REMARK  status: ('A' for Active; 'I' for Inactive)
REMARK    1  A    between atoms: N_4  and  C_5
REMARK    2  A    between atoms: C_5  and  C_7
REMARK                            x       y       z     vdW  Elec       q    Type
REMARK                         _______ _______ _______ _____ _____    ______ ____
ROOT
ATOM      1  C   UNL     1       1.107   8.262  20.287  0.00  0.00    +0.000 A 
ATOM      2  C   UNL     1       1.749   8.954  19.228  0.00  0.00    +0.000 A 
ATOM      3  C   UNL     1       2.602   8.279  18.341  0.00  0.00    +0.000 A 
ATOM      4  C   UNL     1       2.792   6.908  18.523  0.00  0.00    +0.000 A 
ATOM      5  C   UNL     1       2.156   6.217  19.539  0.00  0.00    +0.000 A 
ATOM      6  C   UNL     1       1.314   6.875  20.432  0.00  0.00    +0.000 A 
ATOM      7  C   UNL     1       2.498   4.744  19.512  0.00  0.00    +0.000 C 
ATOM      8  C   UNL     1       1.263   3.866  19.255  0.00  0.00    +0.000 C 
ATOM      9  C   UNL     1       1.096   2.947  20.458  0.00  0.00    +0.000 C 
ATOM     10  C   UNL     1       2.236   3.225  21.434  0.00  0.00    +0.000 C 
ATOM     11  C   UNL     1       3.160   4.259  20.808  0.00  0.00    +0.000 C 
ATOM     12  C   UNL     1       3.455   4.727  18.338  0.00  0.00    +0.000 A 
ATOM     13  C   UNL     1       4.139   3.621  17.820  0.00  0.00    +0.000 A 
ATOM     14  C   UNL     1       4.993   3.808  16.724  0.00  0.00    +0.000 A 
ATOM     15  C   UNL     1       5.153   5.091  16.160  0.00  0.00    +0.000 A 
ATOM     16  C   UNL     1       4.457   6.191  16.686  0.00  0.00    +0.000 A 
ATOM     17  C   UNL     1       3.613   5.976  17.779  0.00  0.00    +0.000 A 
ENDROOT
BRANCH   1  18
ATOM     18  C   UNL     1       0.240   8.973  21.255  0.00  0.00    +0.000 C 
ATOM     19  O   UNL     1      -0.531   8.340  21.958  0.00  0.00    +0.000 OA
BRANCH  18  23
ATOM     20  N   UNL     1      -0.118  12.632  21.800  0.00  0.00    +0.000 N 
ATOM     21  C   UNL     1      -0.314  11.252  22.056  0.00  0.00    +0.000 C 
ATOM     22  N   UNL     1      -1.156  10.870  23.139  0.00  0.00    +0.000 N 
ATOM     23  N   UNL     1       0.280  10.405  21.278  0.00  0.00    +0.000 NA
ATOM     24  H   UNL     1      -0.582  13.345  22.381  0.00  0.00    +0.000 HD
ATOM     25  H   UNL     1       0.475  12.938  21.014  0.00  0.00    +0.000 HD
ATOM     26  H   UNL     1      -1.603  11.602  23.709  0.00  0.00    +0.000 HD
ATOM     27  H   UNL     1      -1.340   9.899  23.409  0.00  0.00    +0.000 HD
ENDBRANCH  18  23
ENDBRANCH   1  18
TORSDOF 2
ENDMDL
MODEL 6
REMARK VINA RESULT:      -8.1      4.800      6.987
REMARK  Name = 
REMARK  2 active torsions:
REMARK  status: ('A' for Active; 'I' for Inactive)
REMARK    1  A    between atoms: N_4  and  C_5
REMARK    2  A    between atoms: C_5  and  C_7
REMARK                            x       y       z     vdW  Elec       q    Type
REMARK                         _______ _______ _______ _____ _____    ______ ____
ROOT
ATOM      1  C   UNL     1       2.172   7.416  19.482  0.00  0.00    +0.000 A 
ATOM      2  C   UNL     1       2.640   8.286  18.465  0.00  0.00    +0.000 A 
ATOM      3  C   UNL     1       3.469   7.809  17.437  0.00  0.00    +0.000 A 
ATOM      4  C   UNL     1       3.810   6.455  17.440  0.00  0.00    +0.000 A 
ATOM      5  C   UNL     1       3.343   5.592  18.415  0.00  0.00    +0.000 A 
ATOM      6  C   UNL     1       2.527   6.053  19.445  0.00  0.00    +0.000 A 
ATOM      7  C   UNL     1       3.825   4.177  18.186  0.00  0.00    +0.000 C 
ATOM      8  C   UNL     1       2.665   3.202  17.929  0.00  0.00    +0.000 C 
ATOM      9  C   UNL     1       2.703   2.144  19.023  0.00  0.00    +0.000 C 
ATOM     10  C   UNL     1       3.896   2.437  19.930  0.00  0.00    +0.000 C 
ATOM     11  C   UNL     1       4.650   3.628  19.358  0.00  0.00    +0.000 C 
ATOM     12  C   UNL     1       4.666   4.392  16.945  0.00  0.00    +0.000 A 
ATOM     13  C   UNL     1       5.405   3.431  16.245  0.00  0.00    +0.000 A 
ATOM     14  C   UNL     1       6.130   3.829  15.113  0.00  0.00    +0.000 A 
ATOM     15  C   UNL     1       6.109   5.175  14.694  0.00  0.00    +0.000 A 
ATOM     16  C   UNL     1       5.360   6.129  15.401  0.00  0.00    +0.000 A 
ATOM     17  C   UNL     1       4.647   5.705  16.526  0.00  0.00    +0.000 A 
ENDROOT
BRANCH   1  18
ATOM     18  C   UNL     1       1.332   7.918  20.595  0.00  0.00    +0.000 C 
ATOM     19  O   UNL     1       1.010   7.165  21.500  0.00  0.00    +0.000 OA
BRANCH  18  23
ATOM     20  N   UNL     1      -0.183  11.285  21.024  0.00  0.00    +0.000 N 
ATOM     21  C   UNL     1       0.201   9.972  21.396  0.00  0.00    +0.000 C 
ATOM     22  N   UNL     1      -0.162   9.494  22.688  0.00  0.00    +0.000 N 
ATOM     23  N   UNL     1       0.856   9.268  20.531  0.00  0.00    +0.000 NA
ATOM     24  H   UNL     1      -0.720  11.879  21.672  0.00  0.00    +0.000 HD
ATOM     25  H   UNL     1       0.053  11.652  20.090  0.00  0.00    +0.000 HD
ATOM     26  H   UNL     1      -0.693  10.110  23.320  0.00  0.00    +0.000 HD
ATOM     27  H   UNL     1       0.088   8.569  23.049  0.00  0.00    +0.000 HD
ENDBRANCH  18  23
ENDBRANCH   1  18
TORSDOF 2
ENDMDL
MODEL 7
REMARK VINA RESULT:      -8.0      5.127      6.955
REMARK  Name = 
REMARK  2 active torsions:
REMARK  status: ('A' for Active; 'I' for Inactive)
REMARK    1  A    between atoms: N_4  and  C_5
REMARK    2  A    between atoms: C_5  and  C_7
REMARK                            x       y       z     vdW  Elec       q    Type
REMARK                         _______ _______ _______ _____ _____    ______ ____
ROOT
ATOM      1  C   UNL     1       1.351   8.994  19.021  0.00  0.00    +0.000 A 
ATOM      2  C   UNL     1       2.172   9.534  18.000  0.00  0.00    +0.000 A 
ATOM      3  C   UNL     1       3.117   8.734  17.338  0.00  0.00    +0.000 A 
ATOM      4  C   UNL     1       3.218   7.392  17.707  0.00  0.00    +0.000 A 
ATOM      5  C   UNL     1       2.409   6.847  18.688  0.00  0.00    +0.000 A 
ATOM      6  C   UNL     1       1.473   7.630  19.359  0.00  0.00    +0.000 A 
ATOM      7  C   UNL     1       2.687   5.373  18.886  0.00  0.00    +0.000 C 
ATOM      8  C   UNL     1       1.467   4.501  18.549  0.00  0.00    +0.000 C 
ATOM      9  C   UNL     1       1.084   3.741  19.812  0.00  0.00    +0.000 C 
ATOM     10  C   UNL     1       2.077   4.108  20.911  0.00  0.00    +0.000 C 
ATOM     11  C   UNL     1       3.128   5.034  20.316  0.00  0.00    +0.000 C 
ATOM     12  C   UNL     1       3.806   5.188  17.882  0.00  0.00    +0.000 A 
ATOM     13  C   UNL     1       4.511   4.010  17.608  0.00  0.00    +0.000 A 
ATOM     14  C   UNL     1       5.525   4.040  16.641  0.00  0.00    +0.000 A 
ATOM     15  C   UNL     1       5.823   5.239  15.961  0.00  0.00    +0.000 A 
ATOM     16  C   UNL     1       5.105   6.413  16.242  0.00  0.00    +0.000 A 
ATOM     17  C   UNL     1       4.100   6.355  17.211  0.00  0.00    +0.000 A 
ENDROOT
BRANCH   1  18
ATOM     18  C   UNL     1       0.381   9.840  19.756  0.00  0.00    +0.000 C 
ATOM     19  O   UNL     1      -0.013   9.493  20.858  0.00  0.00    +0.000 OA
BRANCH  18  23
ATOM     20  N   UNL     1      -1.349  12.448  17.753  0.00  0.00    +0.000 N 
ATOM     21  C   UNL     1      -1.111  11.153  18.277  0.00  0.00    +0.000 C 
ATOM     22  N   UNL     1      -1.951  10.081  17.860  0.00  0.00    +0.000 N 
ATOM     23  N   UNL     1      -0.127  11.010  19.106  0.00  0.00    +0.000 NA
ATOM     24  H   UNL     1      -2.109  12.610  17.077  0.00  0.00    +0.000 HD
ATOM     25  H   UNL     1      -0.748  13.240  18.026  0.00  0.00    +0.000 HD
ATOM     26  H   UNL     1      -2.709  10.270  17.188  0.00  0.00    +0.000 HD
ATOM     27  H   UNL     1      -1.865   9.119  18.200  0.00  0.00    +0.000 HD
ENDBRANCH  18  23
ENDBRANCH   1  18
TORSDOF 2
ENDMDL
MODEL 8
REMARK VINA RESULT:      -7.9      1.591      2.153
REMARK  Name = 
REMARK  2 active torsions:
REMARK  status: ('A' for Active; 'I' for Inactive)
REMARK    1  A    between atoms: N_4  and  C_5
REMARK    2  A    between atoms: C_5  and  C_7
REMARK                            x       y       z     vdW  Elec       q    Type
REMARK                         _______ _______ _______ _____ _____    ______ ____
ROOT
ATOM      1  C   UNL     1       4.814   5.338  16.767  0.00  0.00    +0.000 A 
ATOM      2  C   UNL     1       4.788   6.744  16.585  0.00  0.00    +0.000 A 
ATOM      3  C   UNL     1       3.963   7.557  17.379  0.00  0.00    +0.000 A 
ATOM      4  C   UNL     1       3.179   6.943  18.358  0.00  0.00    +0.000 A 
ATOM      5  C   UNL     1       3.211   5.575  18.560  0.00  0.00    +0.000 A 
ATOM      6  C   UNL     1       4.017   4.755  17.774  0.00  0.00    +0.000 A 
ATOM      7  C   UNL     1       2.299   5.156  19.691  0.00  0.00    +0.000 C 
ATOM      8  C   UNL     1       3.074   4.518  20.856  0.00  0.00    +0.000 C 
ATOM      9  C   UNL     1       2.554   3.097  21.029  0.00  0.00    +0.000 C 
ATOM     10  C   UNL     1       1.444   2.866  20.007  0.00  0.00    +0.000 C 
ATOM     11  C   UNL     1       1.212   4.166  19.251  0.00  0.00    +0.000 C 
ATOM     12  C   UNL     1       1.725   6.505  20.069  0.00  0.00    +0.000 A 
ATOM     13  C   UNL     1       0.782   6.775  21.068  0.00  0.00    +0.000 A 
ATOM     14  C   UNL     1       0.366   8.100  21.264  0.00  0.00    +0.000 A 
ATOM     15  C   UNL     1       0.895   9.135  20.466  0.00  0.00    +0.000 A 
ATOM     16  C   UNL     1       1.845   8.852  19.471  0.00  0.00    +0.000 A 
ATOM     17  C   UNL     1       2.241   7.523  19.296  0.00  0.00    +0.000 A 
ENDROOT
BRANCH   1  18
ATOM     18  C   UNL     1       5.648   4.467  15.906  0.00  0.00    +0.000 C 
ATOM     19  O   UNL     1       5.533   3.254  15.977  0.00  0.00    +0.000 OA
BRANCH  18  23
ATOM     20  N   UNL     1       8.072   5.554  13.307  0.00  0.00    +0.000 N 
ATOM     21  C   UNL     1       7.035   4.773  13.876  0.00  0.00    +0.000 C 
ATOM     22  N   UNL     1       6.505   3.687  13.121  0.00  0.00    +0.000 N 
ATOM     23  N   UNL     1       6.629   5.084  15.064  0.00  0.00    +0.000 NA
ATOM     24  H   UNL     1       8.441   5.336  12.370  0.00  0.00    +0.000 HD
ATOM     25  H   UNL     1       8.485   6.337  13.835  0.00  0.00    +0.000 HD
ATOM     26  H   UNL     1       6.886   3.494  12.184  0.00  0.00    +0.000 HD
ATOM     27  H   UNL     1       5.743   3.082  13.443  0.00  0.00    +0.000 HD
ENDBRANCH  18  23
ENDBRANCH   1  18
TORSDOF 2
ENDMDL
MODEL 9
REMARK VINA RESULT:      -7.9      5.226      7.264
REMARK  Name = 
REMARK  2 active torsions:
REMARK  status: ('A' for Active; 'I' for Inactive)
REMARK    1  A    between atoms: N_4  and  C_5
REMARK    2  A    between atoms: C_5  and  C_7
REMARK                            x       y       z     vdW  Elec       q    Type
REMARK                         _______ _______ _______ _____ _____    ______ ____
ROOT
ATOM      1  C   UNL     1       1.455   8.440  19.718  0.00  0.00    +0.000 A 
ATOM      2  C   UNL     1       2.146   9.079  18.657  0.00  0.00    +0.000 A 
ATOM      3  C   UNL     1       2.990   8.348  17.805  0.00  0.00    +0.000 A 
ATOM      4  C   UNL     1       3.120   6.976  18.026  0.00  0.00    +0.000 A 
ATOM      5  C   UNL     1       2.436   6.337  19.044  0.00  0.00    +0.000 A 
ATOM      6  C   UNL     1       1.602   7.050  19.902  0.00  0.00    +0.000 A 
ATOM      7  C   UNL     1       2.719   4.851  19.061  0.00  0.00    +0.000 C 
ATOM      8  C   UNL     1       1.455   4.016  18.799  0.00  0.00    +0.000 C 
ATOM      9  C   UNL     1       1.226   3.135  20.020  0.00  0.00    +0.000 C 
ATOM     10  C   UNL     1       2.355   3.393  21.014  0.00  0.00    +0.000 C 
ATOM     11  C   UNL     1       3.333   4.373  20.383  0.00  0.00    +0.000 C 
ATOM     12  C   UNL     1       3.699   4.766  17.910  0.00  0.00    +0.000 A 
ATOM     13  C   UNL     1       4.349   3.621  17.434  0.00  0.00    +0.000 A 
ATOM     14  C   UNL     1       5.233   3.746  16.353  0.00  0.00    +0.000 A 
ATOM     15  C   UNL     1       5.456   5.006  15.761  0.00  0.00    +0.000 A 
ATOM     16  C   UNL     1       4.794   6.146  16.245  0.00  0.00    +0.000 A 
ATOM     17  C   UNL     1       3.919   5.993  17.324  0.00  0.00    +0.000 A 
ENDROOT
BRANCH   1  18
ATOM     18  C   UNL     1       0.596   9.210  20.649  0.00  0.00    +0.000 C 
ATOM     19  O   UNL     1       0.682   9.018  21.851  0.00  0.00    +0.000 OA
BRANCH  18  23
ATOM     20  N   UNL     1      -1.791  11.912  19.753  0.00  0.00    +0.000 N 
ATOM     21  C   UNL     1      -0.763  11.275  20.490  0.00  0.00    +0.000 C 
ATOM     22  N   UNL     1      -0.224  11.942  21.628  0.00  0.00    +0.000 N 
ATOM     23  N   UNL     1      -0.372  10.107  20.094  0.00  0.00    +0.000 NA
ATOM     24  H   UNL     1      -2.148  12.836  20.037  0.00  0.00    +0.000 HD
ATOM     25  H   UNL     1      -2.210  11.448  18.933  0.00  0.00    +0.000 HD
ATOM     26  H   UNL     1      -0.593  12.867  21.888  0.00  0.00    +0.000 HD
ATOM     27  H   UNL     1       0.533  11.567  22.208  0.00  0.00    +0.000 HD
ENDBRANCH  18  23
ENDBRANCH   1  18
TORSDOF 2
ENDMDL
