MODEL 1
REMARK VINA RESULT:      -7.5      0.000      0.000
REMARK  Name = 
REMARK  5 active torsions:
REMARK  status: ('A' for Active; 'I' for Inactive)
REMARK    1  A    between atoms: C_1  and  C_2
REMARK    2  A    between atoms: C_4  and  O_5
REMARK    3  A    between atoms: C_7  and  S_8
REMARK    4  A    between atoms: C_9  and  C_10
REMARK    5  A    between atoms: N_12  and  C_13
REMARK                            x       y       z     vdW  Elec       q    Type
REMARK                         _______ _______ _______ _____ _____    ______ ____
ROOT
ATOM      1  C   UNL     1       2.499   6.130  19.347  0.00  0.00    +0.000 C 
ATOM      2  O   UNL     1       2.132   6.386  18.203  0.00  0.00    +0.000 OA
ATOM      3  N   UNL     1       2.251   6.963  20.431  0.00  0.00    +0.000 N 
ATOM      4  H   UNL     1       2.733   6.759  21.300  0.00  0.00    +0.000 HD
ENDROOT
BRANCH   3   5
ATOM      5  C   UNL     1       1.512   8.171  20.405  0.00  0.00    +0.000 A 
ATOM      6  C   UNL     1       1.443   9.005  19.283  0.00  0.00    +0.000 A 
ATOM      7  C   UNL     1       0.706  10.192  19.315  0.00  0.00    +0.000 A 
ATOM      8  C   UNL     1       0.024  10.567  20.473  0.00  0.00    +0.000 A 
ATOM      9 CL   UNL     1      -0.864  12.046  20.440  0.00  0.00    +0.000 Cl
ATOM     10  C   UNL     1       0.080   9.740  21.597  0.00  0.00    +0.000 A 
ATOM     11 CL   UNL     1      -0.727  10.143  23.074  0.00  0.00    +0.000 Cl
ATOM     12  C   UNL     1       0.813   8.545  21.562  0.00  0.00    +0.000 A 
ENDBRANCH   3   5
BRANCH   1  19
ATOM     13  C   UNL     1       1.279   3.761  20.746  0.00  0.00    +0.000 C 
ATOM     14  C   UNL     1       2.673   3.762  20.179  0.00  0.00    +0.000 A 
ATOM     15  N   UNL     1       3.316   2.577  20.355  0.00  0.00    +0.000 NA
ATOM     16  C   UNL     1       4.565   2.514  19.912  0.00  0.00    +0.000 A 
ATOM     17  N   UNL     1       5.251   3.483  19.328  0.00  0.00    +0.000 NA
ATOM     18  C   UNL     1       4.593   4.652  19.153  0.00  0.00    +0.000 A 
ATOM     19  C   UNL     1       3.278   4.869  19.563  0.00  0.00    +0.000 A 
BRANCH  16  20
ATOM     20  O   UNL     1       5.170   1.313  20.080  0.00  0.00    +0.000 OA
ATOM     21  H   UNL     1       5.520   1.438  20.977  0.00  0.00    +0.000 HD
ENDBRANCH  16  20
BRANCH  18  22
ATOM     22  S   UNL     1       5.631   5.831  18.312  0.00  0.00    +0.000 S 
ATOM     23  H   UNL     1       5.512   6.757  19.276  0.00  0.00    +0.000 HD
ENDBRANCH  18  22
ENDBRANCH   1  19
TORSDOF 4
ENDMDL
MODEL 2
REMARK VINA RESULT:      -7.3      1.334      2.011
REMARK  Name = 
REMARK  5 active torsions:
REMARK  status: ('A' for Active; 'I' for Inactive)
REMARK    1  A    between atoms: C_1  and  C_2
REMARK    2  A    between atoms: C_4  and  O_5
REMARK    3  A    between atoms: C_7  and  S_8
REMARK    4  A    between atoms: C_9  and  C_10
REMARK    5  A    between atoms: N_12  and  C_13
REMARK                            x       y       z     vdW  Elec       q    Type
REMARK                         _______ _______ _______ _____ _____    ______ ____
ROOT
ATOM      1  C   UNL     1       2.519   6.093  19.223  0.00  0.00    +0.000 C 
ATOM      2  O   UNL     1       2.239   6.419  18.073  0.00  0.00    +0.000 OA
ATOM      3  N   UNL     1       2.255   6.895  20.327  0.00  0.00    +0.000 N 
ATOM      4  H   UNL     1       2.669   6.625  21.213  0.00  0.00    +0.000 HD
ENDROOT
BRANCH   3   5
ATOM      5  C   UNL     1       1.592   8.145  20.312  0.00  0.00    +0.000 A 
ATOM      6  C   UNL     1       1.575   8.993  19.198  0.00  0.00    +0.000 A 
ATOM      7  C   UNL     1       0.913  10.222  19.241  0.00  0.00    +0.000 A 
ATOM      8  C   UNL     1       0.254  10.628  20.402  0.00  0.00    +0.000 A 
ATOM      9 CL   UNL     1      -0.540  12.160  20.382  0.00  0.00    +0.000 Cl
ATOM     10  C   UNL     1       0.259   9.789  21.519  0.00  0.00    +0.000 A 
ATOM     11 CL   UNL     1      -0.521  10.229  23.000  0.00  0.00    +0.000 Cl
ATOM     12  C   UNL     1       0.917   8.551  21.472  0.00  0.00    +0.000 A 
ENDBRANCH   3   5
BRANCH   1  19
ATOM     13  C   UNL     1       5.458   5.765  18.665  0.00  0.00    +0.000 C 
ATOM     14  C   UNL     1       4.588   4.661  19.202  0.00  0.00    +0.000 A 
ATOM     15  N   UNL     1       5.272   3.507  19.419  0.00  0.00    +0.000 NA
ATOM     16  C   UNL     1       4.563   2.477  19.860  0.00  0.00    +0.000 A 
ATOM     17  N   UNL     1       3.262   2.452  20.100  0.00  0.00    +0.000 NA
ATOM     18  C   UNL     1       2.599   3.611  19.886  0.00  0.00    +0.000 A 
ATOM     19  C   UNL     1       3.207   4.779  19.427  0.00  0.00    +0.000 A 
BRANCH  16  20
ATOM     20  O   UNL     1       5.278   1.349  20.091  0.00  0.00    +0.000 OA
ATOM     21  H   UNL     1       4.704   0.933  20.754  0.00  0.00    +0.000 HD
ENDBRANCH  16  20
BRANCH  18  22
ATOM     22  S   UNL     1       0.875   3.427  20.302  0.00  0.00    +0.000 S 
ATOM     23  H   UNL     1       0.484   4.426  19.494  0.00  0.00    +0.000 HD
ENDBRANCH  18  22
ENDBRANCH   1  19
TORSDOF 4
ENDMDL
MODEL 3
REMARK VINA RESULT:      -7.0      0.743      1.598
REMARK  Name = 
REMARK  5 active torsions:
REMARK  status: ('A' for Active; 'I' for Inactive)
REMARK    1  A    between atoms: C_1  and  C_2
REMARK    2  A    between atoms: C_4  and  O_5
REMARK    3  A    between atoms: C_7  and  S_8
REMARK    4  A    between atoms: C_9  and  C_10
REMARK    5  A    between atoms: N_12  and  C_13
REMARK                            x       y       z     vdW  Elec       q    Type
REMARK                         _______ _______ _______ _____ _____    ______ ____
ROOT
ATOM      1  C   UNL     1       2.386   6.030  19.481  0.00  0.00    +0.000 C 
ATOM      2  O   UNL     1       1.937   6.270  18.364  0.00  0.00    +0.000 OA
ATOM      3  N   UNL     1       2.195   6.866  20.575  0.00  0.00    +0.000 N 
ATOM      4  H   UNL     1       2.739   6.678  21.410  0.00  0.00    +0.000 HD
ENDROOT
BRANCH   3   5
ATOM      5  C   UNL     1       1.431   8.057  20.591  0.00  0.00    +0.000 A 
ATOM      6  C   UNL     1       0.396   8.295  21.504  0.00  0.00    +0.000 A 
ATOM      7  C   UNL     1      -0.334   9.486  21.469  0.00  0.00    +0.000 A 
ATOM      8  C   UNL     1      -0.042  10.464  20.518  0.00  0.00    +0.000 A 
ATOM      9 CL   UNL     1      -0.985  11.908  20.534  0.00  0.00    +0.000 Cl
ATOM     10  C   UNL     1       0.993  10.242  19.605  0.00  0.00    +0.000 A 
ATOM     11 CL   UNL     1       1.404  11.400  18.387  0.00  0.00    +0.000 Cl
ATOM     12  C   UNL     1       1.730   9.050  19.646  0.00  0.00    +0.000 A 
ENDBRANCH   3   5
BRANCH   1  19
ATOM     13  C   UNL     1       1.257   3.589  20.833  0.00  0.00    +0.000 C 
ATOM     14  C   UNL     1       2.642   3.646  20.246  0.00  0.00    +0.000 A 
ATOM     15  N   UNL     1       3.322   2.477  20.380  0.00  0.00    +0.000 NA
ATOM     16  C   UNL     1       4.564   2.462  19.917  0.00  0.00    +0.000 A 
ATOM     17  N   UNL     1       5.212   3.466  19.349  0.00  0.00    +0.000 NA
ATOM     18  C   UNL     1       4.518   4.619  19.216  0.00  0.00    +0.000 A 
ATOM     19  C   UNL     1       3.204   4.787  19.651  0.00  0.00    +0.000 A 
BRANCH  16  20
ATOM     20  O   UNL     1       5.206   1.275  20.043  0.00  0.00    +0.000 OA
ATOM     21  H   UNL     1       4.746   0.930  20.825  0.00  0.00    +0.000 HD
ENDBRANCH  16  20
BRANCH  18  22
ATOM     22  S   UNL     1       5.509   5.850  18.391  0.00  0.00    +0.000 S 
ATOM     23  H   UNL     1       4.972   5.602  17.186  0.00  0.00    +0.000 HD
ENDBRANCH  18  22
ENDBRANCH   1  19
TORSDOF 4
ENDMDL
MODEL 4
REMARK VINA RESULT:      -6.9      5.553      7.194
REMARK  Name = 
REMARK  5 active torsions:
REMARK  status: ('A' for Active; 'I' for Inactive)
REMARK    1  A    between atoms: C_1  and  C_2
REMARK    2  A    between atoms: C_4  and  O_5
REMARK    3  A    between atoms: C_7  and  S_8
REMARK    4  A    between atoms: C_9  and  C_10
REMARK    5  A    between atoms: N_12  and  C_13
REMARK                            x       y       z     vdW  Elec       q    Type
REMARK                         _______ _______ _______ _____ _____    ______ ____
ROOT
ATOM      1  C   UNL     1       4.873   4.214  18.673  0.00  0.00    +0.000 C 
ATOM      2  O   UNL     1       5.971   4.556  19.100  0.00  0.00    +0.000 OA
ATOM      3  N   UNL     1       4.558   4.182  17.319  0.00  0.00    +0.000 N 
ATOM      4  H   UNL     1       3.584   4.051  17.067  0.00  0.00    +0.000 HD
ENDROOT
BRANCH   3   5
ATOM      5  C   UNL     1       5.438   4.473  16.250  0.00  0.00    +0.000 A 
ATOM      6  C   UNL     1       6.516   5.359  16.361  0.00  0.00    +0.000 A 
ATOM      7  C   UNL     1       7.349   5.618  15.269  0.00  0.00    +0.000 A 
ATOM      8  C   UNL     1       7.119   4.994  14.043  0.00  0.00    +0.000 A 
ATOM      9 CL   UNL     1       8.187   5.363  12.739  0.00  0.00    +0.000 Cl
ATOM     10  C   UNL     1       6.050   4.102  13.920  0.00  0.00    +0.000 A 
ATOM     11 CL   UNL     1       5.690   3.300  12.430  0.00  0.00    +0.000 Cl
ATOM     12  C   UNL     1       5.219   3.836  15.019  0.00  0.00    +0.000 A 
ENDBRANCH   3   5
BRANCH   1  19
ATOM     13  C   UNL     1       4.778   1.467  19.899  0.00  0.00    +0.000 C 
ATOM     14  C   UNL     1       3.823   2.571  20.264  0.00  0.00    +0.000 A 
ATOM     15  N   UNL     1       2.922   2.200  21.212  0.00  0.00    +0.000 NA
ATOM     16  C   UNL     1       2.024   3.112  21.559  0.00  0.00    +0.000 A 
ATOM     17  N   UNL     1       1.906   4.337  21.073  0.00  0.00    +0.000 NA
ATOM     18  C   UNL     1       2.814   4.692  20.136  0.00  0.00    +0.000 A 
ATOM     19  C   UNL     1       3.820   3.845  19.672  0.00  0.00    +0.000 A 
BRANCH  16  20
ATOM     20  O   UNL     1       1.157   2.720  22.525  0.00  0.00    +0.000 OA
ATOM     21  H   UNL     1       1.564   1.872  22.766  0.00  0.00    +0.000 HD
ENDBRANCH  16  20
BRANCH  18  22
ATOM     22  S   UNL     1       2.552   6.378  19.623  0.00  0.00    +0.000 S 
ATOM     23  H   UNL     1       3.776   6.778  20.006  0.00  0.00    +0.000 HD
ENDBRANCH  18  22
ENDBRANCH   1  19
TORSDOF 4
ENDMDL
MODEL 5
REMARK VINA RESULT:      -6.8      5.469      7.182
REMARK  Name = 
REMARK  5 active torsions:
REMARK  status: ('A' for Active; 'I' for Inactive)
REMARK    1  A    between atoms: C_1  and  C_2
REMARK    2  A    between atoms: C_4  and  O_5
REMARK    3  A    between atoms: C_7  and  S_8
REMARK    4  A    between atoms: C_9  and  C_10
REMARK    5  A    between atoms: N_12  and  C_13
REMARK                            x       y       z     vdW  Elec       q    Type
REMARK                         _______ _______ _______ _____ _____    ______ ____
ROOT
ATOM      1  C   UNL     1       3.734   4.504  17.877  0.00  0.00    +0.000 C 
ATOM      2  O   UNL     1       3.242   5.464  17.290  0.00  0.00    +0.000 OA
ATOM      3  N   UNL     1       4.886   3.857  17.446  0.00  0.00    +0.000 N 
ATOM      4  H   UNL     1       5.124   2.976  17.890  0.00  0.00    +0.000 HD
ENDROOT
BRANCH   3   5
ATOM      5  C   UNL     1       5.682   4.221  16.333  0.00  0.00    +0.000 A 
ATOM      6  C   UNL     1       6.786   5.078  16.425  0.00  0.00    +0.000 A 
ATOM      7  C   UNL     1       7.531   5.413  15.292  0.00  0.00    +0.000 A 
ATOM      8  C   UNL     1       7.186   4.896  14.043  0.00  0.00    +0.000 A 
ATOM      9 CL   UNL     1       8.152   5.355  12.688  0.00  0.00    +0.000 Cl
ATOM     10  C   UNL     1       6.091   4.035  13.938  0.00  0.00    +0.000 A 
ATOM     11 CL   UNL     1       5.591   3.366  12.423  0.00  0.00    +0.000 Cl
ATOM     12  C   UNL     1       5.348   3.693  15.078  0.00  0.00    +0.000 A 
ENDBRANCH   3   5
BRANCH   1  19
ATOM     13  C   UNL     1       3.472   1.556  18.418  0.00  0.00    +0.000 C 
ATOM     14  C   UNL     1       2.959   2.619  19.352  0.00  0.00    +0.000 A 
ATOM     15  N   UNL     1       2.377   2.107  20.468  0.00  0.00    +0.000 NA
ATOM     16  C   UNL     1       1.868   2.984  21.322  0.00  0.00    +0.000 A 
ATOM     17  N   UNL     1       1.859   4.302  21.197  0.00  0.00    +0.000 NA
ATOM     18  C   UNL     1       2.450   4.794  20.085  0.00  0.00    +0.000 A 
ATOM     19  C   UNL     1       3.031   3.998  19.098  0.00  0.00    +0.000 A 
BRANCH  16  20
ATOM     20  O   UNL     1       1.318   2.444  22.437  0.00  0.00    +0.000 OA
ATOM     21  H   UNL     1       0.943   1.636  22.050  0.00  0.00    +0.000 HD
ENDBRANCH  16  20
BRANCH  18  22
ATOM     22  S   UNL     1       2.400   6.576  20.090  0.00  0.00    +0.000 S 
ATOM     23  H   UNL     1       2.529   6.664  21.424  0.00  0.00    +0.000 HD
ENDBRANCH  18  22
ENDBRANCH   1  19
TORSDOF 4
ENDMDL
MODEL 6
REMARK VINA RESULT:      -6.7      1.539      2.571
REMARK  Name = 
REMARK  5 active torsions:
REMARK  status: ('A' for Active; 'I' for Inactive)
REMARK    1  A    between atoms: C_1  and  C_2
REMARK    2  A    between atoms: C_4  and  O_5
REMARK    3  A    between atoms: C_7  and  S_8
REMARK    4  A    between atoms: C_9  and  C_10
REMARK    5  A    between atoms: N_12  and  C_13
REMARK                            x       y       z     vdW  Elec       q    Type
REMARK                         _______ _______ _______ _____ _____    ______ ____
ROOT
ATOM      1  C   UNL     1       2.436   6.055  19.366  0.00  0.00    +0.000 C 
ATOM      2  O   UNL     1       2.181   6.444  18.230  0.00  0.00    +0.000 OA
ATOM      3  N   UNL     1       2.124   6.784  20.508  0.00  0.00    +0.000 N 
ATOM      4  H   UNL     1       2.519   6.469  21.388  0.00  0.00    +0.000 HD
ENDROOT
BRANCH   3   5
ATOM      5  C   UNL     1       1.436   8.020  20.548  0.00  0.00    +0.000 A 
ATOM      6  C   UNL     1       0.449   8.321  21.493  0.00  0.00    +0.000 A 
ATOM      7  C   UNL     1      -0.207   9.555  21.480  0.00  0.00    +0.000 A 
ATOM      8  C   UNL     1       0.115  10.514  20.518  0.00  0.00    +0.000 A 
ATOM      9 CL   UNL     1      -0.737  12.014  20.562  0.00  0.00    +0.000 Cl
ATOM     10  C   UNL     1       1.103  10.229  19.573  0.00  0.00    +0.000 A 
ATOM     11 CL   UNL     1       1.547  11.359  18.340  0.00  0.00    +0.000 Cl
ATOM     12  C   UNL     1       1.766   8.993  19.592  0.00  0.00    +0.000 A 
ENDBRANCH   3   5
BRANCH   1  19
ATOM     13  C   UNL     1       5.379   5.799  18.794  0.00  0.00    +0.000 C 
ATOM     14  C   UNL     1       4.527   4.659  19.282  0.00  0.00    +0.000 A 
ATOM     15  N   UNL     1       5.230   3.507  19.448  0.00  0.00    +0.000 NA
ATOM     16  C   UNL     1       4.537   2.447  19.843  0.00  0.00    +0.000 A 
ATOM     17  N   UNL     1       3.237   2.391  20.082  0.00  0.00    +0.000 NA
ATOM     18  C   UNL     1       2.555   3.548  19.920  0.00  0.00    +0.000 A 
ATOM     19  C   UNL     1       3.144   4.744  19.512  0.00  0.00    +0.000 A 
BRANCH  16  20
ATOM     20  O   UNL     1       5.271   1.322  20.024  0.00  0.00    +0.000 OA
ATOM     21  H   UNL     1       4.667   0.676  19.622  0.00  0.00    +0.000 HD
ENDBRANCH  16  20
BRANCH  18  22
ATOM     22  S   UNL     1       0.835   3.319  20.327  0.00  0.00    +0.000 S 
ATOM     23  H   UNL     1       0.503   4.583  20.021  0.00  0.00    +0.000 HD
ENDBRANCH  18  22
ENDBRANCH   1  19
TORSDOF 4
ENDMDL
MODEL 7
REMARK VINA RESULT:      -6.7      1.026      1.026
REMARK  Name = 
REMARK  5 active torsions:
REMARK  status: ('A' for Active; 'I' for Inactive)
REMARK    1  A    between atoms: C_1  and  C_2
REMARK    2  A    between atoms: C_4  and  O_5
REMARK    3  A    between atoms: C_7  and  S_8
REMARK    4  A    between atoms: C_9  and  C_10
REMARK    5  A    between atoms: N_12  and  C_13
REMARK                            x       y       z     vdW  Elec       q    Type
REMARK                         _______ _______ _______ _____ _____    ______ ____
ROOT
ATOM      1  C   UNL     1       2.178   5.873  18.797  0.00  0.00    +0.000 C 
ATOM      2  O   UNL     1       1.622   6.287  17.784  0.00  0.00    +0.000 OA
ATOM      3  N   UNL     1       2.269   6.611  19.972  0.00  0.00    +0.000 N 
ATOM      4  H   UNL     1       2.887   6.263  20.697  0.00  0.00    +0.000 HD
ENDROOT
BRANCH   3   5
ATOM      5  C   UNL     1       1.706   7.889  20.201  0.00  0.00    +0.000 A 
ATOM      6  C   UNL     1       1.692   8.906  19.239  0.00  0.00    +0.000 A 
ATOM      7  C   UNL     1       1.132  10.155  19.523  0.00  0.00    +0.000 A 
ATOM      8  C   UNL     1       0.574  10.409  20.775  0.00  0.00    +0.000 A 
ATOM      9 CL   UNL     1      -0.098  11.974  21.054  0.00  0.00    +0.000 Cl
ATOM     10  C   UNL     1       0.577   9.401  21.742  0.00  0.00    +0.000 A 
ATOM     11 CL   UNL     1      -0.082   9.644  23.324  0.00  0.00    +0.000 Cl
ATOM     12  C   UNL     1       1.132   8.145  21.455  0.00  0.00    +0.000 A 
ENDBRANCH   3   5
BRANCH   1  19
ATOM     13  C   UNL     1       0.945   3.513  20.200  0.00  0.00    +0.000 C 
ATOM     14  C   UNL     1       2.194   3.422  19.365  0.00  0.00    +0.000 A 
ATOM     15  N   UNL     1       2.698   2.161  19.303  0.00  0.00    +0.000 NA
ATOM     16  C   UNL     1       3.820   2.009  18.614  0.00  0.00    +0.000 A 
ATOM     17  N   UNL     1       4.505   2.955  17.991  0.00  0.00    +0.000 NA
ATOM     18  C   UNL     1       3.985   4.202  18.056  0.00  0.00    +0.000 A 
ATOM     19  C   UNL     1       2.811   4.517  18.740  0.00  0.00    +0.000 A 
BRANCH  16  20
ATOM     20  O   UNL     1       4.283   0.737  18.549  0.00  0.00    +0.000 OA
ATOM     21  H   UNL     1       4.351   0.644  17.585  0.00  0.00    +0.000 HD
ENDBRANCH  16  20
BRANCH  18  22
ATOM     22  S   UNL     1       4.990   5.345  17.129  0.00  0.00    +0.000 S 
ATOM     23  H   UNL     1       4.839   4.678  15.973  0.00  0.00    +0.000 HD
ENDBRANCH  18  22
ENDBRANCH   1  19
TORSDOF 4
ENDMDL
MODEL 8
REMARK VINA RESULT:      -6.6      5.330      7.227
REMARK  Name = 
REMARK  5 active torsions:
REMARK  status: ('A' for Active; 'I' for Inactive)
REMARK    1  A    between atoms: C_1  and  C_2
REMARK    2  A    between atoms: C_4  and  O_5
REMARK    3  A    between atoms: C_7  and  S_8
REMARK    4  A    between atoms: C_9  and  C_10
REMARK    5  A    between atoms: N_12  and  C_13
REMARK                            x       y       z     vdW  Elec       q    Type
REMARK                         _______ _______ _______ _____ _____    ______ ____
ROOT
ATOM      1  C   UNL     1       3.893   4.508  17.913  0.00  0.00    +0.000 C 
ATOM      2  O   UNL     1       3.381   5.480  17.364  0.00  0.00    +0.000 OA
ATOM      3  N   UNL     1       5.027   3.868  17.428  0.00  0.00    +0.000 N 
ATOM      4  H   UNL     1       5.279   2.979  17.846  0.00  0.00    +0.000 HD
ENDROOT
BRANCH   3   5
ATOM      5  C   UNL     1       5.783   4.254  16.295  0.00  0.00    +0.000 A 
ATOM      6  C   UNL     1       6.848   5.160  16.354  0.00  0.00    +0.000 A 
ATOM      7  C   UNL     1       7.555   5.514  15.202  0.00  0.00    +0.000 A 
ATOM      8  C   UNL     1       7.208   4.967  13.966  0.00  0.00    +0.000 A 
ATOM      9 CL   UNL     1       8.124   5.451  12.586  0.00  0.00    +0.000 Cl
ATOM     10  C   UNL     1       6.151   4.057  13.895  0.00  0.00    +0.000 A 
ATOM     11 CL   UNL     1       5.651   3.347  12.398  0.00  0.00    +0.000 Cl
ATOM     12  C   UNL     1       5.447   3.696  15.053  0.00  0.00    +0.000 A 
ENDBRANCH   3   5
BRANCH   1  19
ATOM     13  C   UNL     1       2.672   6.359  19.948  0.00  0.00    +0.000 C 
ATOM     14  C   UNL     1       2.631   4.859  20.062  0.00  0.00    +0.000 A 
ATOM     15  N   UNL     1       1.975   4.431  21.173  0.00  0.00    +0.000 NA
ATOM     16  C   UNL     1       1.929   3.119  21.359  0.00  0.00    +0.000 A 
ATOM     17  N   UNL     1       2.462   2.187  20.586  0.00  0.00    +0.000 NA
ATOM     18  C   UNL     1       3.103   2.630  19.481  0.00  0.00    +0.000 A 
ATOM     19  C   UNL     1       3.232   3.978  19.149  0.00  0.00    +0.000 A 
BRANCH  16  20
ATOM     20  O   UNL     1       1.247   2.723  22.462  0.00  0.00    +0.000 OA
ATOM     21  H   UNL     1       0.354   2.671  22.083  0.00  0.00    +0.000 HD
ENDBRANCH  16  20
BRANCH  18  22
ATOM     22  S   UNL     1       3.717   1.257  18.524  0.00  0.00    +0.000 S 
ATOM     23  H   UNL     1       3.283   0.338  19.401  0.00  0.00    +0.000 HD
ENDBRANCH  18  22
ENDBRANCH   1  19
TORSDOF 4
ENDMDL
MODEL 9
REMARK VINA RESULT:      -6.5      2.968      3.797
REMARK  Name = 
REMARK  5 active torsions:
REMARK  status: ('A' for Active; 'I' for Inactive)
REMARK    1  A    between atoms: C_1  and  C_2
REMARK    2  A    between atoms: C_4  and  O_5
REMARK    3  A    between atoms: C_7  and  S_8
REMARK    4  A    between atoms: C_9  and  C_10
REMARK    5  A    between atoms: N_12  and  C_13
REMARK                            x       y       z     vdW  Elec       q    Type
REMARK                         _______ _______ _______ _____ _____    ______ ____
ROOT
ATOM      1  C   UNL     1       4.405   6.024  18.325  0.00  0.00    +0.000 C 
ATOM      2  O   UNL     1       4.713   5.655  19.455  0.00  0.00    +0.000 OA
ATOM      3  N   UNL     1       3.321   6.854  18.063  0.00  0.00    +0.000 N 
ATOM      4  H   UNL     1       3.041   6.968  17.094  0.00  0.00    +0.000 HD
ENDROOT
BRANCH   3   5
ATOM      5  C   UNL     1       2.462   7.434  19.026  0.00  0.00    +0.000 A 
ATOM      6  C   UNL     1       2.098   6.795  20.217  0.00  0.00    +0.000 A 
ATOM      7  C   UNL     1       1.238   7.411  21.129  0.00  0.00    +0.000 A 
ATOM      8  C   UNL     1       0.724   8.681  20.867  0.00  0.00    +0.000 A 
ATOM      9 CL   UNL     1      -0.333   9.378  22.038  0.00  0.00    +0.000 Cl
ATOM     10  C   UNL     1       1.085   9.333  19.685  0.00  0.00    +0.000 A 
ATOM     11 CL   UNL     1       0.478  10.902  19.282  0.00  0.00    +0.000 Cl
ATOM     12  C   UNL     1       1.955   8.717  18.774  0.00  0.00    +0.000 A 
ENDBRANCH   3   5
BRANCH   1  19
ATOM     13  C   UNL     1       3.587   3.582  16.766  0.00  0.00    +0.000 C 
ATOM     14  C   UNL     1       4.803   4.406  16.439  0.00  0.00    +0.000 A 
ATOM     15  N   UNL     1       5.484   3.937  15.360  0.00  0.00    +0.000 NA
ATOM     16  C   UNL     1       6.590   4.592  15.033  0.00  0.00    +0.000 A 
ATOM     17  N   UNL     1       7.104   5.643  15.651  0.00  0.00    +0.000 NA
ATOM     18  C   UNL     1       6.409   6.101  16.716  0.00  0.00    +0.000 A 
ATOM     19  C   UNL     1       5.228   5.521  17.180  0.00  0.00    +0.000 A 
BRANCH  16  20
ATOM     20  O   UNL     1       7.232   4.116  13.938  0.00  0.00    +0.000 OA
ATOM     21  H   UNL     1       6.859   4.710  13.267  0.00  0.00    +0.000 HD
ENDBRANCH  16  20
BRANCH  18  22
ATOM     22  S   UNL     1       7.200   7.543  17.402  0.00  0.00    +0.000 S 
ATOM     23  H   UNL     1       7.715   7.930  16.224  0.00  0.00    +0.000 HD
ENDBRANCH  18  22
ENDBRANCH   1  19
TORSDOF 4
ENDMDL
