MODEL 1
REMARK VINA RESULT:      -8.3      0.000      0.000
REMARK  Name = 
REMARK  5 active torsions:
REMARK  status: ('A' for Active; 'I' for Inactive)
REMARK    1  A    between atoms: C_1  and  N_2
REMARK    2  A    between atoms: N_5  and  C_6
REMARK    3  A    between atoms: C_6  and  C_7
REMARK    4  A    between atoms: C_10  and  C_11
REMARK    5  A    between atoms: C_17  and  C_18
REMARK                            x       y       z     vdW  Elec       q    Type
REMARK                         _______ _______ _______ _____ _____    ______ ____
ROOT
ATOM      1  C   UNL     1       1.231   8.098  20.721  0.00  0.00    +0.000 C 
ATOM      2  O   UNL     1       1.282   7.020  21.298  0.00  0.00    +0.000 OA
ATOM      3  N   UNL     1       1.912   8.270  19.552  0.00  0.00    +0.000 N 
ATOM      4  C   UNL     1       2.661   7.247  18.916  0.00  0.00    +0.000 A 
ATOM      5  N   UNL     1       2.660   5.944  19.278  0.00  0.00    +0.000 NA
ATOM      6  C   UNL     1       3.478   5.201  18.487  0.00  0.00    +0.000 A 
ATOM      7  C   UNL     1       4.149   5.926  17.497  0.00  0.00    +0.000 A 
ATOM      8  S   UNL     1       3.663   7.535  17.610  0.00  0.00    +0.000 S 
ATOM      9  H   UNL     1       1.922   9.181  19.083  0.00  0.00    +0.000 HD
ENDROOT
BRANCH   1  13
ATOM     10  C   UNL     1      -1.081  11.348  22.410  0.00  0.00    +0.000 A 
ATOM     11  C   UNL     1      -0.539  11.424  21.114  0.00  0.00    +0.000 A 
ATOM     12  C   UNL     1       0.188  10.363  20.583  0.00  0.00    +0.000 A 
ATOM     13  C   UNL     1       0.427   9.201  21.335  0.00  0.00    +0.000 A 
ATOM     14  C   UNL     1      -0.091   9.138  22.647  0.00  0.00    +0.000 A 
ATOM     15  C   UNL     1      -0.833  10.197  23.172  0.00  0.00    +0.000 A 
BRANCH  10  16
ATOM     16  C   UNL     1      -1.921  12.447  23.032  0.00  0.00    +0.000 C 
BRANCH  16  21
ATOM     17  C   UNL     1      -5.185  16.035  23.143  0.00  0.00    +0.000 C 
ATOM     18  N   UNL     1      -4.979  14.580  23.107  0.00  0.00    +0.000 NA
ATOM     19  C   UNL     1      -4.239  14.160  24.303  0.00  0.00    +0.000 C 
ATOM     20  C   UNL     1      -4.066  12.643  24.295  0.00  0.00    +0.000 C 
ATOM     21  N   UNL     1      -3.374  12.150  23.078  0.00  0.00    +0.000 NA
ATOM     22  C   UNL     1      -4.079  12.644  21.873  0.00  0.00    +0.000 C 
ATOM     23  C   UNL     1      -4.249  14.178  21.891  0.00  0.00    +0.000 C 
ENDBRANCH  16  21
ENDBRANCH  10  16
ENDBRANCH   1  13
BRANCH   7  24
ATOM     24  C   UNL     1       5.142   5.420  16.517  0.00  0.00    +0.000 A 
ATOM     25  C   UNL     1       4.835   4.374  15.629  0.00  0.00    +0.000 A 
ATOM     26  C   UNL     1       5.801   3.908  14.739  0.00  0.00    +0.000 A 
ATOM     27  C   UNL     1       7.071   4.484  14.738  0.00  0.00    +0.000 A 
ATOM     28  N   UNL     1       7.357   5.497  15.596  0.00  0.00    +0.000 NA
ATOM     29  C   UNL     1       6.434   5.974  16.472  0.00  0.00    +0.000 A 
ENDBRANCH   7  24
TORSDOF 4
ENDMDL
MODEL 2
REMARK VINA RESULT:      -7.9      0.745      1.079
REMARK  Name = 
REMARK  5 active torsions:
REMARK  status: ('A' for Active; 'I' for Inactive)
REMARK    1  A    between atoms: C_1  and  N_2
REMARK    2  A    between atoms: N_5  and  C_6
REMARK    3  A    between atoms: C_6  and  C_7
REMARK    4  A    between atoms: C_10  and  C_11
REMARK    5  A    between atoms: C_17  and  C_18
REMARK                            x       y       z     vdW  Elec       q    Type
REMARK                         _______ _______ _______ _____ _____    ______ ____
ROOT
ATOM      1  C   UNL     1       1.149   8.196  20.815  0.00  0.00    +0.000 C 
ATOM      2  O   UNL     1       1.299   7.167  21.460  0.00  0.00    +0.000 OA
ATOM      3  N   UNL     1       1.776   8.336  19.612  0.00  0.00    +0.000 N 
ATOM      4  C   UNL     1       2.578   7.329  19.017  0.00  0.00    +0.000 A 
ATOM      5  N   UNL     1       2.686   6.057  19.464  0.00  0.00    +0.000 NA
ATOM      6  C   UNL     1       3.531   5.323  18.693  0.00  0.00    +0.000 A 
ATOM      7  C   UNL     1       4.112   6.025  17.633  0.00  0.00    +0.000 A 
ATOM      8  S   UNL     1       3.511   7.598  17.658  0.00  0.00    +0.000 S 
ATOM      9  H   UNL     1       1.702   9.211  19.084  0.00  0.00    +0.000 HD
ENDROOT
BRANCH   1  13
ATOM     10  C   UNL     1      -1.348  11.375  22.370  0.00  0.00    +0.000 A 
ATOM     11  C   UNL     1      -0.917  11.364  21.032  0.00  0.00    +0.000 A 
ATOM     12  C   UNL     1      -0.127  10.326  20.547  0.00  0.00    +0.000 A 
ATOM     13  C   UNL     1       0.285   9.277  21.385  0.00  0.00    +0.000 A 
ATOM     14  C   UNL     1      -0.123   9.305  22.737  0.00  0.00    +0.000 A 
ATOM     15  C   UNL     1      -0.928  10.339  23.217  0.00  0.00    +0.000 A 
BRANCH  10  16
ATOM     16  C   UNL     1      -2.247  12.450  22.952  0.00  0.00    +0.000 C 
BRANCH  16  21
ATOM     17  C   UNL     1      -6.576  14.505  23.714  0.00  0.00    +0.000 C 
ATOM     18  N   UNL     1      -5.428  14.390  22.802  0.00  0.00    +0.000 NA
ATOM     19  C   UNL     1      -5.292  12.997  22.359  0.00  0.00    +0.000 C 
ATOM     20  C   UNL     1      -4.132  12.882  21.372  0.00  0.00    +0.000 C 
ATOM     21  N   UNL     1      -2.845  13.356  21.941  0.00  0.00    +0.000 NA
ATOM     22  C   UNL     1      -3.010  14.733  22.461  0.00  0.00    +0.000 C 
ATOM     23  C   UNL     1      -4.185  14.838  23.456  0.00  0.00    +0.000 C 
ENDBRANCH  16  21
ENDBRANCH  10  16
ENDBRANCH   1  13
BRANCH   7  24
ATOM     24  C   UNL     1       5.107   5.525  16.652  0.00  0.00    +0.000 A 
ATOM     25  C   UNL     1       4.842   4.413  15.834  0.00  0.00    +0.000 A 
ATOM     26  C   UNL     1       5.811   3.957  14.940  0.00  0.00    +0.000 A 
ATOM     27  C   UNL     1       7.040   4.610  14.866  0.00  0.00    +0.000 A 
ATOM     28  N   UNL     1       7.285   5.687  15.657  0.00  0.00    +0.000 NA
ATOM     29  C   UNL     1       6.360   6.155  16.534  0.00  0.00    +0.000 A 
ENDBRANCH   7  24
TORSDOF 4
ENDMDL
MODEL 3
REMARK VINA RESULT:      -7.9      0.946      1.157
REMARK  Name = 
REMARK  5 active torsions:
REMARK  status: ('A' for Active; 'I' for Inactive)
REMARK    1  A    between atoms: C_1  and  N_2
REMARK    2  A    between atoms: N_5  and  C_6
REMARK    3  A    between atoms: C_6  and  C_7
REMARK    4  A    between atoms: C_10  and  C_11
REMARK    5  A    between atoms: C_17  and  C_18
REMARK                            x       y       z     vdW  Elec       q    Type
REMARK                         _______ _______ _______ _____ _____    ______ ____
ROOT
ATOM      1  C   UNL     1       0.980   8.701  20.733  0.00  0.00    +0.000 C 
ATOM      2  O   UNL     1       1.183   7.787  21.522  0.00  0.00    +0.000 OA
ATOM      3  N   UNL     1       1.591   8.688  19.513  0.00  0.00    +0.000 N 
ATOM      4  C   UNL     1       2.434   7.640  19.063  0.00  0.00    +0.000 A 
ATOM      5  N   UNL     1       2.605   6.456  19.693  0.00  0.00    +0.000 NA
ATOM      6  C   UNL     1       3.476   5.653  19.027  0.00  0.00    +0.000 A 
ATOM      7  C   UNL     1       4.016   6.214  17.866  0.00  0.00    +0.000 A 
ATOM      8  S   UNL     1       3.343   7.744  17.666  0.00  0.00    +0.000 S 
ATOM      9  H   UNL     1       1.472   9.470  18.862  0.00  0.00    +0.000 HD
ENDROOT
BRANCH   1  13
ATOM     10  C   UNL     1      -1.650  11.962  21.835  0.00  0.00    +0.000 A 
ATOM     11  C   UNL     1      -1.234  11.766  20.505  0.00  0.00    +0.000 A 
ATOM     12  C   UNL     1      -0.401  10.704  20.168  0.00  0.00    +0.000 A 
ATOM     13  C   UNL     1       0.072   9.816  21.149  0.00  0.00    +0.000 A 
ATOM     14  C   UNL     1      -0.321  10.030  22.488  0.00  0.00    +0.000 A 
ATOM     15  C   UNL     1      -1.169  11.088  22.821  0.00  0.00    +0.000 A 
BRANCH  10  16
ATOM     16  C   UNL     1      -2.593  13.070  22.263  0.00  0.00    +0.000 C 
BRANCH  16  21
ATOM     17  C   UNL     1      -5.425  16.526  24.154  0.00  0.00    +0.000 C 
ATOM     18  N   UNL     1      -4.544  15.385  24.441  0.00  0.00    +0.000 NA
ATOM     19  C   UNL     1      -3.194  15.669  23.937  0.00  0.00    +0.000 C 
ATOM     20  C   UNL     1      -2.263  14.507  24.277  0.00  0.00    +0.000 C 
ATOM     21  N   UNL     1      -2.738  13.211  23.732  0.00  0.00    +0.000 NA
ATOM     22  C   UNL     1      -4.130  12.968  24.177  0.00  0.00    +0.000 C 
ATOM     23  C   UNL     1      -5.063  14.147  23.829  0.00  0.00    +0.000 C 
ENDBRANCH  16  21
ENDBRANCH  10  16
ENDBRANCH   1  13
BRANCH   7  24
ATOM     24  C   UNL     1       5.025   5.619  16.955  0.00  0.00    +0.000 A 
ATOM     25  C   UNL     1       4.825   4.366  16.350  0.00  0.00    +0.000 A 
ATOM     26  C   UNL     1       5.806   3.827  15.519  0.00  0.00    +0.000 A 
ATOM     27  C   UNL     1       6.985   4.538  15.296  0.00  0.00    +0.000 A 
ATOM     28  N   UNL     1       7.168   5.749  15.882  0.00  0.00    +0.000 NA
ATOM     29  C   UNL     1       6.228   6.301  16.693  0.00  0.00    +0.000 A 
ENDBRANCH   7  24
TORSDOF 4
ENDMDL
MODEL 4
REMARK VINA RESULT:      -7.8      1.264      1.885
REMARK  Name = 
REMARK  5 active torsions:
REMARK  status: ('A' for Active; 'I' for Inactive)
REMARK    1  A    between atoms: C_1  and  N_2
REMARK    2  A    between atoms: N_5  and  C_6
REMARK    3  A    between atoms: C_6  and  C_7
REMARK    4  A    between atoms: C_10  and  C_11
REMARK    5  A    between atoms: C_17  and  C_18
REMARK                            x       y       z     vdW  Elec       q    Type
REMARK                         _______ _______ _______ _____ _____    ______ ____
ROOT
ATOM      1  C   UNL     1       0.946   8.706  20.815  0.00  0.00    +0.000 C 
ATOM      2  O   UNL     1       1.126   7.760  21.571  0.00  0.00    +0.000 OA
ATOM      3  N   UNL     1       1.572   8.729  19.603  0.00  0.00    +0.000 N 
ATOM      4  C   UNL     1       2.405   7.687  19.124  0.00  0.00    +0.000 A 
ATOM      5  N   UNL     1       2.551   6.477  19.710  0.00  0.00    +0.000 NA
ATOM      6  C   UNL     1       3.420   5.688  19.025  0.00  0.00    +0.000 A 
ATOM      7  C   UNL     1       3.983   6.284  17.893  0.00  0.00    +0.000 A 
ATOM      8  S   UNL     1       3.334   7.831  17.742  0.00  0.00    +0.000 S 
ATOM      9  H   UNL     1       1.473   9.537  18.980  0.00  0.00    +0.000 HD
ENDROOT
BRANCH   1  13
ATOM     10  C   UNL     1      -1.652  11.882  22.203  0.00  0.00    +0.000 A 
ATOM     11  C   UNL     1      -1.173  10.886  23.074  0.00  0.00    +0.000 A 
ATOM     12  C   UNL     1      -0.327   9.882  22.612  0.00  0.00    +0.000 A 
ATOM     13  C   UNL     1       0.049   9.817  21.260  0.00  0.00    +0.000 A 
ATOM     14  C   UNL     1      -0.457  10.799  20.380  0.00  0.00    +0.000 A 
ATOM     15  C   UNL     1      -1.293  11.814  20.849  0.00  0.00    +0.000 A 
BRANCH  10  16
ATOM     16  C   UNL     1      -2.538  13.029  22.649  0.00  0.00    +0.000 C 
BRANCH  16  21
ATOM     17  C   UNL     1      -4.624  16.755  24.953  0.00  0.00    +0.000 C 
ATOM     18  N   UNL     1      -3.421  16.275  24.258  0.00  0.00    +0.000 NA
ATOM     19  C   UNL     1      -3.762  15.923  22.874  0.00  0.00    +0.000 C 
ATOM     20  C   UNL     1      -2.504  15.472  22.134  0.00  0.00    +0.000 C 
ATOM     21  N   UNL     1      -1.830  14.325  22.791  0.00  0.00    +0.000 NA
ATOM     22  C   UNL     1      -1.562  14.655  24.210  0.00  0.00    +0.000 C 
ATOM     23  C   UNL     1      -2.838  15.111  24.949  0.00  0.00    +0.000 C 
ENDBRANCH  16  21
ENDBRANCH  10  16
ENDBRANCH   1  13
BRANCH   7  24
ATOM     24  C   UNL     1       4.995   5.708  16.973  0.00  0.00    +0.000 A 
ATOM     25  C   UNL     1       4.774   4.495  16.299  0.00  0.00    +0.000 A 
ATOM     26  C   UNL     1       5.758   3.972  15.460  0.00  0.00    +0.000 A 
ATOM     27  C   UNL     1       6.960   4.660  15.299  0.00  0.00    +0.000 A 
ATOM     28  N   UNL     1       7.163   5.834  15.951  0.00  0.00    +0.000 NA
ATOM     29  C   UNL     1       6.221   6.369  16.771  0.00  0.00    +0.000 A 
ENDBRANCH   7  24
TORSDOF 4
ENDMDL
MODEL 5
REMARK VINA RESULT:      -7.8      1.352      1.736
REMARK  Name = 
REMARK  5 active torsions:
REMARK  status: ('A' for Active; 'I' for Inactive)
REMARK    1  A    between atoms: C_1  and  N_2
REMARK    2  A    between atoms: N_5  and  C_6
REMARK    3  A    between atoms: C_6  and  C_7
REMARK    4  A    between atoms: C_10  and  C_11
REMARK    5  A    between atoms: C_17  and  C_18
REMARK                            x       y       z     vdW  Elec       q    Type
REMARK                         _______ _______ _______ _____ _____    ______ ____
ROOT
ATOM      1  C   UNL     1       0.630   9.219  21.075  0.00  0.00    +0.000 C 
ATOM      2  O   UNL     1       1.010   8.424  21.925  0.00  0.00    +0.000 OA
ATOM      3  N   UNL     1       1.061   9.088  19.788  0.00  0.00    +0.000 N 
ATOM      4  C   UNL     1       1.908   8.041  19.340  0.00  0.00    +0.000 A 
ATOM      5  N   UNL     1       2.253   6.957  20.070  0.00  0.00    +0.000 NA
ATOM      6  C   UNL     1       3.079   6.128  19.378  0.00  0.00    +0.000 A 
ATOM      7  C   UNL     1       3.406   6.569  18.092  0.00  0.00    +0.000 A 
ATOM      8  S   UNL     1       2.600   8.022  17.820  0.00  0.00    +0.000 S 
ATOM      9  H   UNL     1       0.794   9.775  19.075  0.00  0.00    +0.000 HD
ENDROOT
BRANCH   1  13
ATOM     10  C   UNL     1      -2.030  12.455  22.177  0.00  0.00    +0.000 A 
ATOM     11  C   UNL     1      -1.551  12.309  20.863  0.00  0.00    +0.000 A 
ATOM     12  C   UNL     1      -0.709  11.254  20.524  0.00  0.00    +0.000 A 
ATOM     13  C   UNL     1      -0.290  10.324  21.490  0.00  0.00    +0.000 A 
ATOM     14  C   UNL     1      -0.747  10.488  22.816  0.00  0.00    +0.000 A 
ATOM     15  C   UNL     1      -1.604  11.539  23.149  0.00  0.00    +0.000 A 
BRANCH  10  16
ATOM     16  C   UNL     1      -2.986  13.553  22.603  0.00  0.00    +0.000 C 
BRANCH  16  21
ATOM     17  C   UNL     1      -7.552  14.243  24.092  0.00  0.00    +0.000 C 
ATOM     18  N   UNL     1      -6.642  14.206  22.938  0.00  0.00    +0.000 NA
ATOM     19  C   UNL     1      -6.053  12.867  22.821  0.00  0.00    +0.000 C 
ATOM     20  C   UNL     1      -5.145  12.810  21.594  0.00  0.00    +0.000 C 
ATOM     21  N   UNL     1      -4.068  13.830  21.627  0.00  0.00    +0.000 NA
ATOM     22  C   UNL     1      -4.663  15.172  21.827  0.00  0.00    +0.000 C 
ATOM     23  C   UNL     1      -5.578  15.219  23.069  0.00  0.00    +0.000 C 
ENDBRANCH  16  21
ENDBRANCH  10  16
ENDBRANCH   1  13
BRANCH   7  24
ATOM     24  C   UNL     1       4.318   5.922  17.116  0.00  0.00    +0.000 A 
ATOM     25  C   UNL     1       4.434   4.524  17.029  0.00  0.00    +0.000 A 
ATOM     26  C   UNL     1       5.319   3.953  16.116  0.00  0.00    +0.000 A 
ATOM     27  C   UNL     1       6.087   4.777  15.295  0.00  0.00    +0.000 A 
ATOM     28  N   UNL     1       5.965   6.126  15.383  0.00  0.00    +0.000 NA
ATOM     29  C   UNL     1       5.108   6.711  16.260  0.00  0.00    +0.000 A 
ENDBRANCH   7  24
TORSDOF 4
ENDMDL
MODEL 6
REMARK VINA RESULT:      -7.7      1.037      1.493
REMARK  Name = 
REMARK  5 active torsions:
REMARK  status: ('A' for Active; 'I' for Inactive)
REMARK    1  A    between atoms: C_1  and  N_2
REMARK    2  A    between atoms: N_5  and  C_6
REMARK    3  A    between atoms: C_6  and  C_7
REMARK    4  A    between atoms: C_10  and  C_11
REMARK    5  A    between atoms: C_17  and  C_18
REMARK                            x       y       z     vdW  Elec       q    Type
REMARK                         _______ _______ _______ _____ _____    ______ ____
ROOT
ATOM      1  C   UNL     1       0.784   8.986  20.809  0.00  0.00    +0.000 C 
ATOM      2  O   UNL     1       0.974   8.092  21.624  0.00  0.00    +0.000 OA
ATOM      3  N   UNL     1       1.389   8.925  19.588  0.00  0.00    +0.000 N 
ATOM      4  C   UNL     1       2.211   7.849  19.166  0.00  0.00    +0.000 A 
ATOM      5  N   UNL     1       2.363   6.681  19.830  0.00  0.00    +0.000 NA
ATOM      6  C   UNL     1       3.218   5.844  19.185  0.00  0.00    +0.000 A 
ATOM      7  C   UNL     1       3.763   6.360  18.005  0.00  0.00    +0.000 A 
ATOM      8  S   UNL     1       3.116   7.896  17.762  0.00  0.00    +0.000 S 
ATOM      9  H   UNL     1       1.282   9.690  18.914  0.00  0.00    +0.000 HD
ENDROOT
BRANCH   1  13
ATOM     10  C   UNL     1      -1.773  12.263  22.026  0.00  0.00    +0.000 A 
ATOM     11  C   UNL     1      -1.220  11.371  22.963  0.00  0.00    +0.000 A 
ATOM     12  C   UNL     1      -0.389  10.333  22.554  0.00  0.00    +0.000 A 
ATOM     13  C   UNL     1      -0.102  10.129  21.195  0.00  0.00    +0.000 A 
ATOM     14  C   UNL     1      -0.682  11.006  20.252  0.00  0.00    +0.000 A 
ATOM     15  C   UNL     1      -1.503  12.055  20.666  0.00  0.00    +0.000 A 
BRANCH  10  16
ATOM     16  C   UNL     1      -2.649  13.442  22.407  0.00  0.00    +0.000 C 
BRANCH  16  21
ATOM     17  C   UNL     1      -6.514  16.146  23.540  0.00  0.00    +0.000 C 
ATOM     18  N   UNL     1      -5.596  15.090  23.990  0.00  0.00    +0.000 NA
ATOM     19  C   UNL     1      -4.228  15.622  24.043  0.00  0.00    +0.000 C 
ATOM     20  C   UNL     1      -3.277  14.542  24.558  0.00  0.00    +0.000 C 
ATOM     21  N   UNL     1      -3.304  13.310  23.731  0.00  0.00    +0.000 NA
ATOM     22  C   UNL     1      -4.699  12.824  23.612  0.00  0.00    +0.000 C 
ATOM     23  C   UNL     1      -5.651  13.922  23.092  0.00  0.00    +0.000 C 
ENDBRANCH  16  21
ENDBRANCH  10  16
ENDBRANCH   1  13
BRANCH   7  24
ATOM     24  C   UNL     1       4.757   5.720  17.109  0.00  0.00    +0.000 A 
ATOM     25  C   UNL     1       4.620   4.385  16.690  0.00  0.00    +0.000 A 
ATOM     26  C   UNL     1       5.587   3.810  15.867  0.00  0.00    +0.000 A 
ATOM     27  C   UNL     1       6.688   4.565  15.467  0.00  0.00    +0.000 A 
ATOM     28  N   UNL     1       6.810   5.855  15.873  0.00  0.00    +0.000 NA
ATOM     29  C   UNL     1       5.881   6.444  16.672  0.00  0.00    +0.000 A 
ENDBRANCH   7  24
TORSDOF 4
ENDMDL
MODEL 7
REMARK VINA RESULT:      -7.7      1.384      1.930
REMARK  Name = 
REMARK  5 active torsions:
REMARK  status: ('A' for Active; 'I' for Inactive)
REMARK    1  A    between atoms: C_1  and  N_2
REMARK    2  A    between atoms: N_5  and  C_6
REMARK    3  A    between atoms: C_6  and  C_7
REMARK    4  A    between atoms: C_10  and  C_11
REMARK    5  A    between atoms: C_17  and  C_18
REMARK                            x       y       z     vdW  Elec       q    Type
REMARK                         _______ _______ _______ _____ _____    ______ ____
ROOT
ATOM      1  C   UNL     1       1.058   8.409  20.778  0.00  0.00    +0.000 C 
ATOM      2  O   UNL     1       1.209   7.418  21.480  0.00  0.00    +0.000 OA
ATOM      3  N   UNL     1       1.694   8.486  19.574  0.00  0.00    +0.000 N 
ATOM      4  C   UNL     1       2.507   7.452  19.042  0.00  0.00    +0.000 A 
ATOM      5  N   UNL     1       2.619   6.208  19.560  0.00  0.00    +0.000 NA
ATOM      6  C   UNL     1       3.474   5.437  18.838  0.00  0.00    +0.000 A 
ATOM      7  C   UNL     1       4.060   6.083  17.744  0.00  0.00    +0.000 A 
ATOM      8  S   UNL     1       3.450   7.651  17.677  0.00  0.00    +0.000 S 
ATOM      9  H   UNL     1       1.620   9.330  18.997  0.00  0.00    +0.000 HD
ENDROOT
BRANCH   1  13
ATOM     10  C   UNL     1      -1.470  11.566  22.328  0.00  0.00    +0.000 A 
ATOM     11  C   UNL     1      -0.976  10.543  23.156  0.00  0.00    +0.000 A 
ATOM     12  C   UNL     1      -0.153   9.545  22.643  0.00  0.00    +0.000 A 
ATOM     13  C   UNL     1       0.184   9.515  21.280  0.00  0.00    +0.000 A 
ATOM     14  C   UNL     1      -0.337  10.526  20.442  0.00  0.00    +0.000 A 
ATOM     15  C   UNL     1      -1.150  11.534  20.963  0.00  0.00    +0.000 A 
BRANCH  10  16
ATOM     16  C   UNL     1      -2.332  12.708  22.830  0.00  0.00    +0.000 C 
BRANCH  16  21
ATOM     17  C   UNL     1      -2.800  17.451  21.916  0.00  0.00    +0.000 C 
ATOM     18  N   UNL     1      -2.182  16.434  22.780  0.00  0.00    +0.000 NA
ATOM     19  C   UNL     1      -1.318  15.565  21.973  0.00  0.00    +0.000 C 
ATOM     20  C   UNL     1      -0.634  14.539  22.875  0.00  0.00    +0.000 C 
ATOM     21  N   UNL     1      -1.601  13.713  23.641  0.00  0.00    +0.000 NA
ATOM     22  C   UNL     1      -2.524  14.597  24.390  0.00  0.00    +0.000 C 
ATOM     23  C   UNL     1      -3.208  15.630  23.470  0.00  0.00    +0.000 C 
ENDBRANCH  16  21
ENDBRANCH  10  16
ENDBRANCH   1  13
BRANCH   7  24
ATOM     24  C   UNL     1       5.065   5.535  16.800  0.00  0.00    +0.000 A 
ATOM     25  C   UNL     1       4.843   4.339  16.097  0.00  0.00    +0.000 A 
ATOM     26  C   UNL     1       5.821   3.843  15.236  0.00  0.00    +0.000 A 
ATOM     27  C   UNL     1       7.019   4.539  15.081  0.00  0.00    +0.000 A 
ATOM     28  N   UNL     1       7.223   5.697  15.762  0.00  0.00    +0.000 NA
ATOM     29  C   UNL     1       6.287   6.206  16.604  0.00  0.00    +0.000 A 
ENDBRANCH   7  24
TORSDOF 4
ENDMDL
MODEL 8
REMARK VINA RESULT:      -7.6      1.348      1.665
REMARK  Name = 
REMARK  5 active torsions:
REMARK  status: ('A' for Active; 'I' for Inactive)
REMARK    1  A    between atoms: C_1  and  N_2
REMARK    2  A    between atoms: N_5  and  C_6
REMARK    3  A    between atoms: C_6  and  C_7
REMARK    4  A    between atoms: C_10  and  C_11
REMARK    5  A    between atoms: C_17  and  C_18
REMARK                            x       y       z     vdW  Elec       q    Type
REMARK                         _______ _______ _______ _____ _____    ______ ____
ROOT
ATOM      1  C   UNL     1       1.132   8.418  20.817  0.00  0.00    +0.000 C 
ATOM      2  O   UNL     1       1.356   7.473  21.563  0.00  0.00    +0.000 OA
ATOM      3  N   UNL     1       1.717   8.459  19.585  0.00  0.00    +0.000 N 
ATOM      4  C   UNL     1       2.554   7.435  19.074  0.00  0.00    +0.000 A 
ATOM      5  N   UNL     1       2.743   6.226  19.650  0.00  0.00    +0.000 NA
ATOM      6  C   UNL     1       3.604   5.456  18.933  0.00  0.00    +0.000 A 
ATOM      7  C   UNL     1       4.116   6.067  17.784  0.00  0.00    +0.000 A 
ATOM      8  S   UNL     1       3.433   7.602  17.663  0.00  0.00    +0.000 S 
ATOM      9  H   UNL     1       1.581   9.267  18.970  0.00  0.00    +0.000 HD
ENDROOT
BRANCH   1  13
ATOM     10  C   UNL     1      -1.482  11.620  22.111  0.00  0.00    +0.000 A 
ATOM     11  C   UNL     1      -1.046  11.517  20.778  0.00  0.00    +0.000 A 
ATOM     12  C   UNL     1      -0.218  10.472  20.378  0.00  0.00    +0.000 A 
ATOM     13  C   UNL     1       0.229   9.510  21.298  0.00  0.00    +0.000 A 
ATOM     14  C   UNL     1      -0.184   9.632  22.643  0.00  0.00    +0.000 A 
ATOM     15  C   UNL     1      -1.027  10.672  23.038  0.00  0.00    +0.000 A 
BRANCH  10  16
ATOM     16  C   UNL     1      -2.420  12.705  22.604  0.00  0.00    +0.000 C 
BRANCH  16  21
ATOM     17  C   UNL     1      -2.529  16.605  25.488  0.00  0.00    +0.000 C 
ATOM     18  N   UNL     1      -2.274  16.104  24.130  0.00  0.00    +0.000 NA
ATOM     19  C   UNL     1      -3.498  15.494  23.595  0.00  0.00    +0.000 C 
ATOM     20  C   UNL     1      -3.252  15.018  22.164  0.00  0.00    +0.000 C 
ATOM     21  N   UNL     1      -2.126  14.055  22.065  0.00  0.00    +0.000 NA
ATOM     22  C   UNL     1      -0.915  14.645  22.680  0.00  0.00    +0.000 C 
ATOM     23  C   UNL     1      -1.173  15.123  24.124  0.00  0.00    +0.000 C 
ENDBRANCH  16  21
ENDBRANCH  10  16
ENDBRANCH   1  13
BRANCH   7  24
ATOM     24  C   UNL     1       5.108   5.516  16.828  0.00  0.00    +0.000 A 
ATOM     25  C   UNL     1       4.857   4.338  16.103  0.00  0.00    +0.000 A 
ATOM     26  C   UNL     1       5.823   3.836  15.232  0.00  0.00    +0.000 A 
ATOM     27  C   UNL     1       7.036   4.508  15.088  0.00  0.00    +0.000 A 
ATOM     28  N   UNL     1       7.267   5.647  15.789  0.00  0.00    +0.000 NA
ATOM     29  C   UNL     1       6.344   6.162  16.643  0.00  0.00    +0.000 A 
ENDBRANCH   7  24
TORSDOF 4
ENDMDL
MODEL 9
REMARK VINA RESULT:      -7.6      1.214      1.479
REMARK  Name = 
REMARK  5 active torsions:
REMARK  status: ('A' for Active; 'I' for Inactive)
REMARK    1  A    between atoms: C_1  and  N_2
REMARK    2  A    between atoms: N_5  and  C_6
REMARK    3  A    between atoms: C_6  and  C_7
REMARK    4  A    between atoms: C_10  and  C_11
REMARK    5  A    between atoms: C_17  and  C_18
REMARK                            x       y       z     vdW  Elec       q    Type
REMARK                         _______ _______ _______ _____ _____    ______ ____
ROOT
ATOM      1  C   UNL     1       0.823   9.081  20.982  0.00  0.00    +0.000 C 
ATOM      2  O   UNL     1       1.115   8.241  21.824  0.00  0.00    +0.000 OA
ATOM      3  N   UNL     1       1.290   8.949  19.707  0.00  0.00    +0.000 N 
ATOM      4  C   UNL     1       2.075   7.855  19.263  0.00  0.00    +0.000 A 
ATOM      5  N   UNL     1       2.317   6.732  19.976  0.00  0.00    +0.000 NA
ATOM      6  C   UNL     1       3.106   5.861  19.292  0.00  0.00    +0.000 A 
ATOM      7  C   UNL     1       3.509   6.307  18.030  0.00  0.00    +0.000 A 
ATOM      8  S   UNL     1       2.818   7.820  17.766  0.00  0.00    +0.000 S 
ATOM      9  H   UNL     1       1.097   9.669  19.004  0.00  0.00    +0.000 HD
ENDROOT
BRANCH   1  13
ATOM     10  C   UNL     1      -1.635  12.476  22.076  0.00  0.00    +0.000 A 
ATOM     11  C   UNL     1      -1.072  12.356  20.792  0.00  0.00    +0.000 A 
ATOM     12  C   UNL     1      -0.297  11.250  20.455  0.00  0.00    +0.000 A 
ATOM     13  C   UNL     1      -0.031  10.239  21.393  0.00  0.00    +0.000 A 
ATOM     14  C   UNL     1      -0.571  10.375  22.691  0.00  0.00    +0.000 A 
ATOM     15  C   UNL     1      -1.361  11.478  23.022  0.00  0.00    +0.000 A 
BRANCH  10  16
ATOM     16  C   UNL     1      -2.525  13.630  22.495  0.00  0.00    +0.000 C 
BRANCH  16  21
ATOM     17  C   UNL     1      -6.212  16.546  23.697  0.00  0.00    +0.000 C 
ATOM     18  N   UNL     1      -5.462  15.330  24.042  0.00  0.00    +0.000 NA
ATOM     19  C   UNL     1      -4.065  15.680  24.325  0.00  0.00    +0.000 C 
ATOM     20  C   UNL     1      -3.293  14.426  24.733  0.00  0.00    +0.000 C 
ATOM     21  N   UNL     1      -3.344  13.360  23.702  0.00  0.00    +0.000 NA
ATOM     22  C   UNL     1      -4.755  13.068  23.361  0.00  0.00    +0.000 C 
ATOM     23  C   UNL     1      -5.526  14.340  22.951  0.00  0.00    +0.000 C 
ENDBRANCH  16  21
ENDBRANCH  10  16
ENDBRANCH   1  13
BRANCH   7  24
ATOM     24  C   UNL     1       4.407   5.619  17.069  0.00  0.00    +0.000 A 
ATOM     25  C   UNL     1       5.071   6.321  16.048  0.00  0.00    +0.000 A 
ATOM     26  C   UNL     1       5.888   5.637  15.148  0.00  0.00    +0.000 A 
ATOM     27  C   UNL     1       6.038   4.256  15.269  0.00  0.00    +0.000 A 
ATOM     28  N   UNL     1       5.397   3.588  16.261  0.00  0.00    +0.000 NA
ATOM     29  C   UNL     1       4.597   4.228  17.154  0.00  0.00    +0.000 A 
ENDBRANCH   7  24
TORSDOF 4
ENDMDL
