MODEL 1
REMARK VINA RESULT:      -8.4      0.000      0.000
REMARK  Name = 
REMARK  1 active torsions:
REMARK  status: ('A' for Active; 'I' for Inactive)
REMARK    1  A    between atoms: C_5  and  C_6
REMARK                            x       y       z     vdW  Elec       q    Type
REMARK                         _______ _______ _______ _____ _____    ______ ____
ROOT
ATOM      1  C   UNL     1       5.112   4.531  18.549  0.00  0.00    +0.000 C 
ATOM      2  N   UNL     1       5.798   4.872  19.597  0.00  0.00    +0.000 NA
ATOM      3  O   UNL     1       7.151   5.231  19.487  0.00  0.00    +0.000 OA
ATOM      4  C   UNL     1       7.732   5.434  18.205  0.00  0.00    +0.000 C 
ATOM      5  C   UNL     1       6.967   4.956  17.018  0.00  0.00    +0.000 A 
ATOM      6  C   UNL     1       7.566   4.969  15.746  0.00  0.00    +0.000 A 
ATOM      7  C   UNL     1       6.836   4.610  14.616  0.00  0.00    +0.000 A 
ATOM      8  C   UNL     1       5.492   4.290  14.745  0.00  0.00    +0.000 A 
ATOM      9  C   UNL     1       4.889   4.305  16.005  0.00  0.00    +0.000 A 
ATOM     10  C   UNL     1       5.639   4.578  17.159  0.00  0.00    +0.000 A 
ENDROOT
BRANCH   1  15
ATOM     11  F   UNL     1      -0.139   2.683  19.465  0.00  0.00    +0.000 F 
ATOM     12  C   UNL     1       1.104   3.153  19.283  0.00  0.00    +0.000 A 
ATOM     13  C   UNL     1       1.443   3.692  18.048  0.00  0.00    +0.000 A 
ATOM     14  C   UNL     1       2.749   4.138  17.822  0.00  0.00    +0.000 A 
ATOM     15  C   UNL     1       3.714   4.057  18.843  0.00  0.00    +0.000 A 
ATOM     16  C   UNL     1       3.328   3.602  20.110  0.00  0.00    +0.000 A 
ATOM     17  C   UNL     1       2.039   3.109  20.314  0.00  0.00    +0.000 A 
ATOM     18 CL   UNL     1       1.636   2.420  21.840  0.00  0.00    +0.000 Cl
ENDBRANCH   1  15
TORSDOF 1
ENDMDL
MODEL 2
REMARK VINA RESULT:      -8.3      3.852      4.923
REMARK  Name = 
REMARK  1 active torsions:
REMARK  status: ('A' for Active; 'I' for Inactive)
REMARK    1  A    between atoms: C_5  and  C_6
REMARK                            x       y       z     vdW  Elec       q    Type
REMARK                         _______ _______ _______ _____ _____    ______ ____
ROOT
ATOM      1  C   UNL     1       3.271   6.128  17.936  0.00  0.00    +0.000 C 
ATOM      2  N   UNL     1       4.404   6.437  17.385  0.00  0.00    +0.000 NA
ATOM      3  O   UNL     1       5.282   5.438  16.932  0.00  0.00    +0.000 OA
ATOM      4  C   UNL     1       4.851   4.084  16.874  0.00  0.00    +0.000 C 
ATOM      5  C   UNL     1       3.591   3.731  17.588  0.00  0.00    +0.000 A 
ATOM      6  C   UNL     1       3.211   2.383  17.715  0.00  0.00    +0.000 A 
ATOM      7  C   UNL     1       1.994   2.043  18.300  0.00  0.00    +0.000 A 
ATOM      8  C   UNL     1       1.130   3.047  18.711  0.00  0.00    +0.000 A 
ATOM      9  C   UNL     1       1.495   4.387  18.559  0.00  0.00    +0.000 A 
ATOM     10  C   UNL     1       2.755   4.737  18.053  0.00  0.00    +0.000 A 
ENDROOT
BRANCH   1  15
ATOM     11  F   UNL     1       0.270  10.527  19.799  0.00  0.00    +0.000 F 
ATOM     12  C   UNL     1       1.017   9.492  19.387  0.00  0.00    +0.000 A 
ATOM     13  C   UNL     1       1.392   9.425  18.051  0.00  0.00    +0.000 A 
ATOM     14  C   UNL     1       2.126   8.327  17.592  0.00  0.00    +0.000 A 
ATOM     15  C   UNL     1       2.498   7.300  18.478  0.00  0.00    +0.000 A 
ATOM     16  C   UNL     1       2.195   7.432  19.839  0.00  0.00    +0.000 A 
ATOM     17  C   UNL     1       1.418   8.502  20.282  0.00  0.00    +0.000 A 
ATOM     18 CL   UNL     1       0.937   8.563  21.935  0.00  0.00    +0.000 Cl
ENDBRANCH   1  15
TORSDOF 1
ENDMDL
MODEL 3
REMARK VINA RESULT:      -8.3      1.045      1.082
REMARK  Name = 
REMARK  1 active torsions:
REMARK  status: ('A' for Active; 'I' for Inactive)
REMARK    1  A    between atoms: C_5  and  C_6
REMARK                            x       y       z     vdW  Elec       q    Type
REMARK                         _______ _______ _______ _____ _____    ______ ____
ROOT
ATOM      1  C   UNL     1       5.205   4.199  18.173  0.00  0.00    +0.000 C 
ATOM      2  N   UNL     1       5.908   4.404  19.244  0.00  0.00    +0.000 NA
ATOM      3  O   UNL     1       7.262   4.770  19.160  0.00  0.00    +0.000 OA
ATOM      4  C   UNL     1       7.825   5.130  17.904  0.00  0.00    +0.000 C 
ATOM      5  C   UNL     1       7.040   4.805  16.679  0.00  0.00    +0.000 A 
ATOM      6  C   UNL     1       7.621   4.975  15.410  0.00  0.00    +0.000 A 
ATOM      7  C   UNL     1       6.873   4.762  14.254  0.00  0.00    +0.000 A 
ATOM      8  C   UNL     1       5.530   4.432  14.363  0.00  0.00    +0.000 A 
ATOM      9  C   UNL     1       4.945   4.292  15.624  0.00  0.00    +0.000 A 
ATOM     10  C   UNL     1       5.712   4.417  16.791  0.00  0.00    +0.000 A 
ENDROOT
BRANCH   1  15
ATOM     11  F   UNL     1       0.045   2.128  19.123  0.00  0.00    +0.000 F 
ATOM     12  C   UNL     1       1.252   2.659  18.880  0.00  0.00    +0.000 A 
ATOM     13  C   UNL     1       2.125   1.983  18.038  0.00  0.00    +0.000 A 
ATOM     14  C   UNL     1       3.408   2.494  17.814  0.00  0.00    +0.000 A 
ATOM     15  C   UNL     1       3.809   3.696  18.426  0.00  0.00    +0.000 A 
ATOM     16  C   UNL     1       2.883   4.413  19.193  0.00  0.00    +0.000 A 
ATOM     17  C   UNL     1       1.624   3.872  19.456  0.00  0.00    +0.000 A 
ATOM     18 CL   UNL     1       0.558   4.705  20.521  0.00  0.00    +0.000 Cl
ENDBRANCH   1  15
TORSDOF 1
ENDMDL
MODEL 4
REMARK VINA RESULT:      -8.2      3.871      6.122
REMARK  Name = 
REMARK  1 active torsions:
REMARK  status: ('A' for Active; 'I' for Inactive)
REMARK    1  A    between atoms: C_5  and  C_6
REMARK                            x       y       z     vdW  Elec       q    Type
REMARK                         _______ _______ _______ _____ _____    ______ ____
ROOT
ATOM      1  C   UNL     1       3.862   3.507  17.938  0.00  0.00    +0.000 C 
ATOM      2  N   UNL     1       3.699   2.220  17.980  0.00  0.00    +0.000 NA
ATOM      3  O   UNL     1       2.829   1.634  18.915  0.00  0.00    +0.000 OA
ATOM      4  C   UNL     1       1.954   2.451  19.683  0.00  0.00    +0.000 C 
ATOM      5  C   UNL     1       2.212   3.919  19.692  0.00  0.00    +0.000 A 
ATOM      6  C   UNL     1       1.495   4.752  20.569  0.00  0.00    +0.000 A 
ATOM      7  C   UNL     1       1.660   6.134  20.527  0.00  0.00    +0.000 A 
ATOM      8  C   UNL     1       2.500   6.692  19.574  0.00  0.00    +0.000 A 
ATOM      9  C   UNL     1       3.191   5.866  18.684  0.00  0.00    +0.000 A 
ATOM     10  C   UNL     1       3.100   4.470  18.777  0.00  0.00    +0.000 A 
ENDROOT
BRANCH   1  15
ATOM     11  F   UNL     1       7.945   5.216  14.441  0.00  0.00    +0.000 F 
ATOM     12  C   UNL     1       6.943   4.834  15.247  0.00  0.00    +0.000 A 
ATOM     13  C   UNL     1       7.025   5.127  16.602  0.00  0.00    +0.000 A 
ATOM     14  C   UNL     1       6.016   4.691  17.467  0.00  0.00    +0.000 A 
ATOM     15  C   UNL     1       4.914   3.973  16.968  0.00  0.00    +0.000 A 
ATOM     16  C   UNL     1       4.801   3.773  15.587  0.00  0.00    +0.000 A 
ATOM     17  C   UNL     1       5.835   4.162  14.736  0.00  0.00    +0.000 A 
ATOM     18 CL   UNL     1       5.736   3.773  13.061  0.00  0.00    +0.000 Cl
ENDBRANCH   1  15
TORSDOF 1
ENDMDL
MODEL 5
REMARK VINA RESULT:      -8.1      1.209      1.384
REMARK  Name = 
REMARK  1 active torsions:
REMARK  status: ('A' for Active; 'I' for Inactive)
REMARK    1  A    between atoms: C_5  and  C_6
REMARK                            x       y       z     vdW  Elec       q    Type
REMARK                         _______ _______ _______ _____ _____    ______ ____
ROOT
ATOM      1  C   UNL     1       5.296   4.747  18.745  0.00  0.00    +0.000 C 
ATOM      2  N   UNL     1       6.130   4.981  19.712  0.00  0.00    +0.000 NA
ATOM      3  O   UNL     1       7.507   5.100  19.462  0.00  0.00    +0.000 OA
ATOM      4  C   UNL     1       7.984   5.179  18.125  0.00  0.00    +0.000 C 
ATOM      5  C   UNL     1       7.035   4.820  17.032  0.00  0.00    +0.000 A 
ATOM      6  C   UNL     1       7.499   4.709  15.710  0.00  0.00    +0.000 A 
ATOM      7  C   UNL     1       6.610   4.462  14.666  0.00  0.00    +0.000 A 
ATOM      8  C   UNL     1       5.251   4.380  14.933  0.00  0.00    +0.000 A 
ATOM      9  C   UNL     1       4.787   4.520  16.243  0.00  0.00    +0.000 A 
ATOM     10  C   UNL     1       5.683   4.679  17.311  0.00  0.00    +0.000 A 
ENDROOT
BRANCH   1  15
ATOM     11  F   UNL     1      -0.068   4.113  20.376  0.00  0.00    +0.000 F 
ATOM     12  C   UNL     1       1.218   4.223  20.010  0.00  0.00    +0.000 A 
ATOM     13  C   UNL     1       1.934   5.345  20.406  0.00  0.00    +0.000 A 
ATOM     14  C   UNL     1       3.260   5.504  19.990  0.00  0.00    +0.000 A 
ATOM     15  C   UNL     1       3.873   4.525  19.186  0.00  0.00    +0.000 A 
ATOM     16  C   UNL     1       3.168   3.356  18.878  0.00  0.00    +0.000 A 
ATOM     17  C   UNL     1       1.829   3.227  19.251  0.00  0.00    +0.000 A 
ATOM     18 CL   UNL     1       0.943   1.845  18.734  0.00  0.00    +0.000 Cl
ENDBRANCH   1  15
TORSDOF 1
ENDMDL
MODEL 6
REMARK VINA RESULT:      -8.0      3.761      5.931
REMARK  Name = 
REMARK  1 active torsions:
REMARK  status: ('A' for Active; 'I' for Inactive)
REMARK    1  A    between atoms: C_5  and  C_6
REMARK                            x       y       z     vdW  Elec       q    Type
REMARK                         _______ _______ _______ _____ _____    ______ ____
ROOT
ATOM      1  C   UNL     1       4.054   4.143  18.984  0.00  0.00    +0.000 C 
ATOM      2  N   UNL     1       4.056   2.961  19.521  0.00  0.00    +0.000 NA
ATOM      3  O   UNL     1       3.259   2.677  20.642  0.00  0.00    +0.000 OA
ATOM      4  C   UNL     1       2.280   3.614  21.075  0.00  0.00    +0.000 C 
ATOM      5  C   UNL     1       2.349   4.993  20.513  0.00  0.00    +0.000 A 
ATOM      6  C   UNL     1       1.523   6.004  21.034  0.00  0.00    +0.000 A 
ATOM      7  C   UNL     1       1.511   7.274  20.461  0.00  0.00    +0.000 A 
ATOM      8  C   UNL     1       2.283   7.521  19.335  0.00  0.00    +0.000 A 
ATOM      9  C   UNL     1       3.082   6.507  18.800  0.00  0.00    +0.000 A 
ATOM     10  C   UNL     1       3.168   5.254  19.423  0.00  0.00    +0.000 A 
ENDROOT
BRANCH   1  15
ATOM     11  F   UNL     1       7.919   4.746  14.919  0.00  0.00    +0.000 F 
ATOM     12  C   UNL     1       6.974   4.636  15.865  0.00  0.00    +0.000 A 
ATOM     13  C   UNL     1       7.327   4.844  17.192  0.00  0.00    +0.000 A 
ATOM     14  C   UNL     1       6.368   4.682  18.197  0.00  0.00    +0.000 A 
ATOM     15  C   UNL     1       5.048   4.325  17.868  0.00  0.00    +0.000 A 
ATOM     16  C   UNL     1       4.688   4.215  16.520  0.00  0.00    +0.000 A 
ATOM     17  C   UNL     1       5.659   4.325  15.525  0.00  0.00    +0.000 A 
ATOM     18 CL   UNL     1       5.218   4.041  13.885  0.00  0.00    +0.000 Cl
ENDBRANCH   1  15
TORSDOF 1
ENDMDL
MODEL 7
REMARK VINA RESULT:      -8.0      4.007      5.478
REMARK  Name = 
REMARK  1 active torsions:
REMARK  status: ('A' for Active; 'I' for Inactive)
REMARK    1  A    between atoms: C_5  and  C_6
REMARK                            x       y       z     vdW  Elec       q    Type
REMARK                         _______ _______ _______ _____ _____    ______ ____
ROOT
ATOM      1  C   UNL     1       3.193   6.129  19.025  0.00  0.00    +0.000 C 
ATOM      2  N   UNL     1       4.307   6.246  18.369  0.00  0.00    +0.000 NA
ATOM      3  O   UNL     1       5.226   5.185  18.312  0.00  0.00    +0.000 OA
ATOM      4  C   UNL     1       4.856   3.898  18.791  0.00  0.00    +0.000 C 
ATOM      5  C   UNL     1       3.620   3.798  19.619  0.00  0.00    +0.000 A 
ATOM      6  C   UNL     1       3.305   2.590  20.264  0.00  0.00    +0.000 A 
ATOM      7  C   UNL     1       2.110   2.453  20.967  0.00  0.00    +0.000 A 
ATOM      8  C   UNL     1       1.204   3.504  20.981  0.00  0.00    +0.000 A 
ATOM      9  C   UNL     1       1.505   4.695  20.316  0.00  0.00    +0.000 A 
ATOM     10  C   UNL     1       2.743   4.872  19.682  0.00  0.00    +0.000 A 
ENDROOT
BRANCH   1  15
ATOM     11  F   UNL     1       0.042  10.807  19.105  0.00  0.00    +0.000 F 
ATOM     12  C   UNL     1       0.819   9.714  19.118  0.00  0.00    +0.000 A 
ATOM     13  C   UNL     1       1.416   9.302  17.934  0.00  0.00    +0.000 A 
ATOM     14  C   UNL     1       2.188   8.135  17.917  0.00  0.00    +0.000 A 
ATOM     15  C   UNL     1       2.372   7.388  19.095  0.00  0.00    +0.000 A 
ATOM     16  C   UNL     1       1.843   7.872  20.298  0.00  0.00    +0.000 A 
ATOM     17  C   UNL     1       1.031   9.007  20.300  0.00  0.00    +0.000 A 
ATOM     18 CL   UNL     1       0.275   9.496  21.767  0.00  0.00    +0.000 Cl
ENDBRANCH   1  15
TORSDOF 1
ENDMDL
MODEL 8
REMARK VINA RESULT:      -7.9      1.436      1.561
REMARK  Name = 
REMARK  1 active torsions:
REMARK  status: ('A' for Active; 'I' for Inactive)
REMARK    1  A    between atoms: C_5  and  C_6
REMARK                            x       y       z     vdW  Elec       q    Type
REMARK                         _______ _______ _______ _____ _____    ______ ____
ROOT
ATOM      1  C   UNL     1       5.527   4.646  18.866  0.00  0.00    +0.000 C 
ATOM      2  N   UNL     1       6.438   4.973  19.731  0.00  0.00    +0.000 NA
ATOM      3  O   UNL     1       7.761   5.218  19.326  0.00  0.00    +0.000 OA
ATOM      4  C   UNL     1       8.074   5.321  17.942  0.00  0.00    +0.000 C 
ATOM      5  C   UNL     1       7.047   4.858  16.966  0.00  0.00    +0.000 A 
ATOM      6  C   UNL     1       7.367   4.771  15.600  0.00  0.00    +0.000 A 
ATOM      7  C   UNL     1       6.394   4.426  14.665  0.00  0.00    +0.000 A 
ATOM      8  C   UNL     1       5.088   4.220  15.085  0.00  0.00    +0.000 A 
ATOM      9  C   UNL     1       4.763   4.335  16.439  0.00  0.00    +0.000 A 
ATOM     10  C   UNL     1       5.754   4.594  17.397  0.00  0.00    +0.000 A 
ENDROOT
BRANCH   1  15
ATOM     11  F   UNL     1       0.607   3.190  21.213  0.00  0.00    +0.000 F 
ATOM     12  C   UNL     1       1.753   3.558  20.621  0.00  0.00    +0.000 A 
ATOM     13  C   UNL     1       2.648   2.574  20.221  0.00  0.00    +0.000 A 
ATOM     14  C   UNL     1       3.871   2.940  19.650  0.00  0.00    +0.000 A 
ATOM     15  C   UNL     1       4.191   4.298  19.467  0.00  0.00    +0.000 A 
ATOM     16  C   UNL     1       3.237   5.272  19.786  0.00  0.00    +0.000 A 
ATOM     17  C   UNL     1       2.041   4.904  20.403  0.00  0.00    +0.000 A 
ATOM     18 CL   UNL     1       0.950   6.132  20.918  0.00  0.00    +0.000 Cl
ENDBRANCH   1  15
TORSDOF 1
ENDMDL
MODEL 9
REMARK VINA RESULT:      -7.9      3.672      6.020
REMARK  Name = 
REMARK  1 active torsions:
REMARK  status: ('A' for Active; 'I' for Inactive)
REMARK    1  A    between atoms: C_5  and  C_6
REMARK                            x       y       z     vdW  Elec       q    Type
REMARK                         _______ _______ _______ _____ _____    ______ ____
ROOT
ATOM      1  C   UNL     1       3.794   5.793  18.603  0.00  0.00    +0.000 C 
ATOM      2  N   UNL     1       3.223   6.959  18.615  0.00  0.00    +0.000 NA
ATOM      3  O   UNL     1       2.145   7.224  19.475  0.00  0.00    +0.000 OA
ATOM      4  C   UNL     1       1.802   6.294  20.495  0.00  0.00    +0.000 C 
ATOM      5  C   UNL     1       2.400   4.931  20.414  0.00  0.00    +0.000 A 
ATOM      6  C   UNL     1       1.962   3.920  21.287  0.00  0.00    +0.000 A 
ATOM      7  C   UNL     1       2.572   2.668  21.284  0.00  0.00    +0.000 A 
ATOM      8  C   UNL     1       3.655   2.439  20.448  0.00  0.00    +0.000 A 
ATOM      9  C   UNL     1       4.109   3.453  19.601  0.00  0.00    +0.000 A 
ATOM     10  C   UNL     1       3.445   4.686  19.533  0.00  0.00    +0.000 A 
ENDROOT
BRANCH   1  15
ATOM     11  F   UNL     1       7.891   5.134  14.781  0.00  0.00    +0.000 F 
ATOM     12  C   UNL     1       6.892   5.314  15.657  0.00  0.00    +0.000 A 
ATOM     13  C   UNL     1       7.155   5.981  16.846  0.00  0.00    +0.000 A 
ATOM     14  C   UNL     1       6.139   6.133  17.796  0.00  0.00    +0.000 A 
ATOM     15  C   UNL     1       4.851   5.625  17.544  0.00  0.00    +0.000 A 
ATOM     16  C   UNL     1       4.580   5.042  16.301  0.00  0.00    +0.000 A 
ATOM     17  C   UNL     1       5.609   4.846  15.379  0.00  0.00    +0.000 A 
ATOM     18 CL   UNL     1       5.279   3.995  13.920  0.00  0.00    +0.000 Cl
ENDBRANCH   1  15
TORSDOF 1
ENDMDL
