MODEL 1
REMARK VINA RESULT:      -6.9      0.000      0.000
REMARK  Name = 
REMARK  6 active torsions:
REMARK  status: ('A' for Active; 'I' for Inactive)
REMARK    1  A    between atoms: C_1  and  C_2
REMARK    2  A    between atoms: C_4  and  C_5
REMARK    3  A    between atoms: C_7  and  C_8
REMARK    4  A    between atoms: C_8  and  N_9
REMARK    5  A    between atoms: N_12  and  C_13
REMARK    6  A    between atoms: C_14  and  C_15
REMARK                            x       y       z     vdW  Elec       q    Type
REMARK                         _______ _______ _______ _____ _____    ______ ____
ROOT
ATOM      1  C   UNL     1       6.325   3.879  14.158  0.00  0.00    +0.000 C 
ATOM      2  C   UNL     1       5.495   4.315  15.329  0.00  0.00    +0.000 A 
ATOM      3  C   UNL     1       5.834   5.441  16.082  0.00  0.00    +0.000 A 
ATOM      4  C   UNL     1       5.084   5.861  17.215  0.00  0.00    +0.000 A 
ATOM      5  C   UNL     1       5.619   7.098  17.884  0.00  0.00    +0.000 C 
ATOM      6  C   UNL     1       3.923   5.147  17.601  0.00  0.00    +0.000 A 
ATOM      7  C   UNL     1       2.982   5.445  18.724  0.00  0.00    +0.000 A 
ATOM      8  C   UNL     1       1.931   4.623  18.904  0.00  0.00    +0.000 A 
ATOM      9  C   UNL     1       1.631   3.440  18.093  0.00  0.00    +0.000 A 
ATOM     10  O   UNL     1       0.655   2.747  18.343  0.00  0.00    +0.000 OA
ATOM     11  O   UNL     1       2.506   3.180  17.069  0.00  0.00    +0.000 OA
ATOM     12  C   UNL     1       3.620   4.012  16.814  0.00  0.00    +0.000 A 
ATOM     13  C   UNL     1       4.377   3.593  15.711  0.00  0.00    +0.000 A 
ENDROOT
BRANCH   7  14
ATOM     14  C   UNL     1       3.055   6.648  19.637  0.00  0.00    +0.000 C 
BRANCH  14  15
ATOM     15  N   UNL     1       2.229   7.773  19.149  0.00  0.00    +0.000 N 
ATOM     16  C   UNL     1       2.055   8.160  17.825  0.00  0.00    +0.000 A 
ATOM     17  C   UNL     1       1.300   9.296  17.833  0.00  0.00    +0.000 A 
ATOM     18  N   UNL     1       1.033   9.586  19.159  0.00  0.00    +0.000 N 
ATOM     19  C   UNL     1       0.371  10.803  19.629  0.00  0.00    +0.000 C 
ATOM     20  C   UNL     1       1.463   8.571  19.939  0.00  0.00    +0.000 A 
ATOM     21  C   UNL     1       1.151   8.371  21.388  0.00  0.00    +0.000 C 
ENDBRANCH  14  15
ENDBRANCH   7  14
TORSDOF 2
ENDMDL
MODEL 2
REMARK VINA RESULT:      -6.8      2.666      3.848
REMARK  Name = 
REMARK  6 active torsions:
REMARK  status: ('A' for Active; 'I' for Inactive)
REMARK    1  A    between atoms: C_1  and  C_2
REMARK    2  A    between atoms: C_4  and  C_5
REMARK    3  A    between atoms: C_7  and  C_8
REMARK    4  A    between atoms: C_8  and  N_9
REMARK    5  A    between atoms: N_12  and  C_13
REMARK    6  A    between atoms: C_14  and  C_15
REMARK                            x       y       z     vdW  Elec       q    Type
REMARK                         _______ _______ _______ _____ _____    ______ ____
ROOT
ATOM      1  C   UNL     1       6.465   3.608  12.555  0.00  0.00    +0.000 C 
ATOM      2  C   UNL     1       6.178   4.086  13.947  0.00  0.00    +0.000 A 
ATOM      3  C   UNL     1       5.090   3.601  14.674  0.00  0.00    +0.000 A 
ATOM      4  C   UNL     1       4.776   4.059  15.984  0.00  0.00    +0.000 A 
ATOM      5  C   UNL     1       3.561   3.407  16.589  0.00  0.00    +0.000 C 
ATOM      6  C   UNL     1       5.601   5.021  16.616  0.00  0.00    +0.000 A 
ATOM      7  C   UNL     1       5.470   5.595  17.990  0.00  0.00    +0.000 A 
ATOM      8  C   UNL     1       6.383   6.502  18.386  0.00  0.00    +0.000 A 
ATOM      9  C   UNL     1       7.499   6.992  17.574  0.00  0.00    +0.000 A 
ATOM     10  O   UNL     1       8.272   7.829  18.019  0.00  0.00    +0.000 OA
ATOM     11  O   UNL     1       7.603   6.456  16.315  0.00  0.00    +0.000 OA
ATOM     12  C   UNL     1       6.690   5.487  15.843  0.00  0.00    +0.000 A 
ATOM     13  C   UNL     1       6.979   5.045  14.544  0.00  0.00    +0.000 A 
ENDROOT
BRANCH   7  14
ATOM     14  C   UNL     1       4.443   5.184  19.021  0.00  0.00    +0.000 C 
BRANCH  14  15
ATOM     15  N   UNL     1       3.378   6.196  19.185  0.00  0.00    +0.000 N 
ATOM     16  C   UNL     1       3.132   7.283  18.353  0.00  0.00    +0.000 A 
ATOM     17  C   UNL     1       2.128   8.008  18.923  0.00  0.00    +0.000 A 
ATOM     18  N   UNL     1       1.785   7.358  20.095  0.00  0.00    +0.000 N 
ATOM     19  C   UNL     1       0.846   7.876  21.091  0.00  0.00    +0.000 C 
ATOM     20  C   UNL     1       2.434   6.177  20.164  0.00  0.00    +0.000 A 
ATOM     21  C   UNL     1       2.162   5.068  21.130  0.00  0.00    +0.000 C 
ENDBRANCH  14  15
ENDBRANCH   7  14
TORSDOF 2
ENDMDL
MODEL 3
REMARK VINA RESULT:      -6.6      3.372      4.704
REMARK  Name = 
REMARK  6 active torsions:
REMARK  status: ('A' for Active; 'I' for Inactive)
REMARK    1  A    between atoms: C_1  and  C_2
REMARK    2  A    between atoms: C_4  and  C_5
REMARK    3  A    between atoms: C_7  and  C_8
REMARK    4  A    between atoms: C_8  and  N_9
REMARK    5  A    between atoms: N_12  and  C_13
REMARK    6  A    between atoms: C_14  and  C_15
REMARK                            x       y       z     vdW  Elec       q    Type
REMARK                         _______ _______ _______ _____ _____    ______ ____
ROOT
ATOM      1  C   UNL     1       6.536   3.865  12.572  0.00  0.00    +0.000 C 
ATOM      2  C   UNL     1       6.424   4.190  14.032  0.00  0.00    +0.000 A 
ATOM      3  C   UNL     1       5.640   3.418  14.891  0.00  0.00    +0.000 A 
ATOM      4  C   UNL     1       5.489   3.721  16.273  0.00  0.00    +0.000 A 
ATOM      5  C   UNL     1       4.600   2.763  17.020  0.00  0.00    +0.000 C 
ATOM      6  C   UNL     1       6.177   4.823  16.837  0.00  0.00    +0.000 A 
ATOM      7  C   UNL     1       6.187   5.280  18.260  0.00  0.00    +0.000 A 
ATOM      8  C   UNL     1       6.924   6.363  18.572  0.00  0.00    +0.000 A 
ATOM      9  C   UNL     1       7.718   7.150  17.624  0.00  0.00    +0.000 A 
ATOM     10  O   UNL     1       8.347   8.127  18.003  0.00  0.00    +0.000 OA
ATOM     11  O   UNL     1       7.696   6.717  16.322  0.00  0.00    +0.000 OA
ATOM     12  C   UNL     1       6.957   5.579  15.930  0.00  0.00    +0.000 A 
ATOM     13  C   UNL     1       7.082   5.286  14.565  0.00  0.00    +0.000 A 
ENDROOT
BRANCH   7  14
ATOM     14  C   UNL     1       5.503   4.581  19.413  0.00  0.00    +0.000 C 
BRANCH  14  15
ATOM     15  N   UNL     1       4.048   4.842  19.443  0.00  0.00    +0.000 N 
ATOM     16  C   UNL     1       3.395   5.958  18.931  0.00  0.00    +0.000 A 
ATOM     17  C   UNL     1       2.077   5.839  19.259  0.00  0.00    +0.000 A 
ATOM     18  N   UNL     1       1.949   4.660  19.970  0.00  0.00    +0.000 N 
ATOM     19  C   UNL     1       0.724   4.218  20.637  0.00  0.00    +0.000 C 
ATOM     20  C   UNL     1       3.117   3.983  19.938  0.00  0.00    +0.000 A 
ATOM     21  C   UNL     1       3.335   2.567  20.364  0.00  0.00    +0.000 C 
ENDBRANCH  14  15
ENDBRANCH   7  14
TORSDOF 2
ENDMDL
MODEL 4
REMARK VINA RESULT:      -6.5      2.424      5.642
REMARK  Name = 
REMARK  6 active torsions:
REMARK  status: ('A' for Active; 'I' for Inactive)
REMARK    1  A    between atoms: C_1  and  C_2
REMARK    2  A    between atoms: C_4  and  C_5
REMARK    3  A    between atoms: C_7  and  C_8
REMARK    4  A    between atoms: C_8  and  N_9
REMARK    5  A    between atoms: N_12  and  C_13
REMARK    6  A    between atoms: C_14  and  C_15
REMARK                            x       y       z     vdW  Elec       q    Type
REMARK                         _______ _______ _______ _____ _____    ______ ____
ROOT
ATOM      1  C   UNL     1       0.402   9.303  21.611  0.00  0.00    +0.000 C 
ATOM      2  C   UNL     1       1.070   8.190  20.859  0.00  0.00    +0.000 A 
ATOM      3  C   UNL     1       1.770   8.429  19.675  0.00  0.00    +0.000 A 
ATOM      4  C   UNL     1       2.386   7.389  18.924  0.00  0.00    +0.000 A 
ATOM      5  C   UNL     1       3.089   7.862  17.680  0.00  0.00    +0.000 C 
ATOM      6  C   UNL     1       2.333   6.052  19.389  0.00  0.00    +0.000 A 
ATOM      7  C   UNL     1       2.946   4.834  18.777  0.00  0.00    +0.000 A 
ATOM      8  C   UNL     1       2.768   3.655  19.402  0.00  0.00    +0.000 A 
ATOM      9  C   UNL     1       2.006   3.456  20.637  0.00  0.00    +0.000 A 
ATOM     10  O   UNL     1       1.891   2.340  21.123  0.00  0.00    +0.000 OA
ATOM     11  O   UNL     1       1.449   4.584  21.184  0.00  0.00    +0.000 OA
ATOM     12  C   UNL     1       1.612   5.856  20.589  0.00  0.00    +0.000 A 
ATOM     13  C   UNL     1       0.989   6.884  21.311  0.00  0.00    +0.000 A 
ENDROOT
BRANCH   7  14
ATOM     14  C   UNL     1       3.830   4.816  17.550  0.00  0.00    +0.000 C 
BRANCH  14  15
ATOM     15  N   UNL     1       5.182   5.346  17.826  0.00  0.00    +0.000 N 
ATOM     16  C   UNL     1       5.981   5.050  18.925  0.00  0.00    +0.000 A 
ATOM     17  C   UNL     1       7.097   5.828  18.833  0.00  0.00    +0.000 A 
ATOM     18  N   UNL     1       6.958   6.589  17.687  0.00  0.00    +0.000 N 
ATOM     19  C   UNL     1       7.866   7.664  17.284  0.00  0.00    +0.000 C 
ATOM     20  C   UNL     1       5.873   6.175  16.998  0.00  0.00    +0.000 A 
ATOM     21  C   UNL     1       5.509   6.557  15.599  0.00  0.00    +0.000 C 
ENDBRANCH  14  15
ENDBRANCH   7  14
TORSDOF 2
ENDMDL
MODEL 5
REMARK VINA RESULT:      -6.3      3.819      6.021
REMARK  Name = 
REMARK  6 active torsions:
REMARK  status: ('A' for Active; 'I' for Inactive)
REMARK    1  A    between atoms: C_1  and  C_2
REMARK    2  A    between atoms: C_4  and  C_5
REMARK    3  A    between atoms: C_7  and  C_8
REMARK    4  A    between atoms: C_8  and  N_9
REMARK    5  A    between atoms: N_12  and  C_13
REMARK    6  A    between atoms: C_14  and  C_15
REMARK                            x       y       z     vdW  Elec       q    Type
REMARK                         _______ _______ _______ _____ _____    ______ ____
ROOT
ATOM      1  C   UNL     1       3.267   5.350  19.763  0.00  0.00    +0.000 C 
ATOM      2  C   UNL     1       2.507   6.642  19.821  0.00  0.00    +0.000 A 
ATOM      3  C   UNL     1       2.373   7.458  18.696  0.00  0.00    +0.000 A 
ATOM      4  C   UNL     1       1.685   8.703  18.729  0.00  0.00    +0.000 A 
ATOM      5  C   UNL     1       1.657   9.426  17.409  0.00  0.00    +0.000 C 
ATOM      6  C   UNL     1       1.073   9.144  19.928  0.00  0.00    +0.000 A 
ATOM      7  C   UNL     1       0.275  10.387  20.158  0.00  0.00    +0.000 A 
ATOM      8  C   UNL     1      -0.220  10.601  21.392  0.00  0.00    +0.000 A 
ATOM      9  C   UNL     1      -0.033   9.718  22.545  0.00  0.00    +0.000 A 
ATOM     10  O   UNL     1      -0.515  10.005  23.632  0.00  0.00    +0.000 OA
ATOM     11  O   UNL     1       0.702   8.582  22.316  0.00  0.00    +0.000 OA
ATOM     12  C   UNL     1       1.237   8.289  21.042  0.00  0.00    +0.000 A 
ATOM     13  C   UNL     1       1.934   7.073  21.005  0.00  0.00    +0.000 A 
ENDROOT
BRANCH   7  14
ATOM     14  C   UNL     1      -0.102  11.399  19.100  0.00  0.00    +0.000 C 
BRANCH  14  15
ATOM     15  N   UNL     1      -1.414  11.104  18.486  0.00  0.00    +0.000 N 
ATOM     16  C   UNL     1      -1.683  10.130  17.531  0.00  0.00    +0.000 A 
ATOM     17  C   UNL     1      -2.992  10.267  17.172  0.00  0.00    +0.000 A 
ATOM     18  N   UNL     1      -3.497  11.325  17.908  0.00  0.00    +0.000 N 
ATOM     19  C   UNL     1      -4.828  11.904  17.728  0.00  0.00    +0.000 C 
ATOM     20  C   UNL     1      -2.581  11.721  18.817  0.00  0.00    +0.000 A 
ATOM     21  C   UNL     1      -2.811  12.656  19.961  0.00  0.00    +0.000 C 
ENDBRANCH  14  15
ENDBRANCH   7  14
TORSDOF 2
ENDMDL
MODEL 6
REMARK VINA RESULT:      -6.2      2.262      6.276
REMARK  Name = 
REMARK  6 active torsions:
REMARK  status: ('A' for Active; 'I' for Inactive)
REMARK    1  A    between atoms: C_1  and  C_2
REMARK    2  A    between atoms: C_4  and  C_5
REMARK    3  A    between atoms: C_7  and  C_8
REMARK    4  A    between atoms: C_8  and  N_9
REMARK    5  A    between atoms: N_12  and  C_13
REMARK    6  A    between atoms: C_14  and  C_15
REMARK                            x       y       z     vdW  Elec       q    Type
REMARK                         _______ _______ _______ _____ _____    ______ ____
ROOT
ATOM      1  C   UNL     1      -0.564  10.484  21.961  0.00  0.00    +0.000 C 
ATOM      2  C   UNL     1       0.284   9.585  21.110  0.00  0.00    +0.000 A 
ATOM      3  C   UNL     1       0.815  10.020  19.895  0.00  0.00    +0.000 A 
ATOM      4  C   UNL     1       1.595   9.180  19.053  0.00  0.00    +0.000 A 
ATOM      5  C   UNL     1       2.069   9.844  17.789  0.00  0.00    +0.000 C 
ATOM      6  C   UNL     1       1.890   7.853  19.453  0.00  0.00    +0.000 A 
ATOM      7  C   UNL     1       2.720   6.834  18.740  0.00  0.00    +0.000 A 
ATOM      8  C   UNL     1       2.870   5.626  19.316  0.00  0.00    +0.000 A 
ATOM      9  C   UNL     1       2.273   5.213  20.589  0.00  0.00    +0.000 A 
ATOM     10  O   UNL     1       2.459   4.086  21.026  0.00  0.00    +0.000 OA
ATOM     11  O   UNL     1       1.514   6.161  21.229  0.00  0.00    +0.000 OA
ATOM     12  C   UNL     1       1.330   7.453  20.688  0.00  0.00    +0.000 A 
ATOM     13  C   UNL     1       0.544   8.282  21.501  0.00  0.00    +0.000 A 
ENDROOT
BRANCH   7  14
ATOM     14  C   UNL     1       3.485   7.064  17.456  0.00  0.00    +0.000 C 
BRANCH  14  15
ATOM     15  N   UNL     1       4.471   5.994  17.193  0.00  0.00    +0.000 N 
ATOM     16  C   UNL     1       4.201   4.718  16.711  0.00  0.00    +0.000 A 
ATOM     17  C   UNL     1       5.378   4.029  16.712  0.00  0.00    +0.000 A 
ATOM     18  N   UNL     1       6.343   4.892  17.201  0.00  0.00    +0.000 N 
ATOM     19  C   UNL     1       7.723   4.513  17.503  0.00  0.00    +0.000 C 
ATOM     20  C   UNL     1       5.817   6.128  17.338  0.00  0.00    +0.000 A 
ATOM     21  C   UNL     1       6.573   7.392  17.596  0.00  0.00    +0.000 C 
ENDBRANCH  14  15
ENDBRANCH   7  14
TORSDOF 2
ENDMDL
MODEL 7
REMARK VINA RESULT:      -6.2      3.080      6.452
REMARK  Name = 
REMARK  6 active torsions:
REMARK  status: ('A' for Active; 'I' for Inactive)
REMARK    1  A    between atoms: C_1  and  C_2
REMARK    2  A    between atoms: C_4  and  C_5
REMARK    3  A    between atoms: C_7  and  C_8
REMARK    4  A    between atoms: C_8  and  N_9
REMARK    5  A    between atoms: N_12  and  C_13
REMARK    6  A    between atoms: C_14  and  C_15
REMARK                            x       y       z     vdW  Elec       q    Type
REMARK                         _______ _______ _______ _____ _____    ______ ____
ROOT
ATOM      1  C   UNL     1       1.157   2.519  22.412  0.00  0.00    +0.000 C 
ATOM      2  C   UNL     1       1.755   3.009  21.126  0.00  0.00    +0.000 A 
ATOM      3  C   UNL     1       2.274   2.122  20.181  0.00  0.00    +0.000 A 
ATOM      4  C   UNL     1       2.875   2.559  18.968  0.00  0.00    +0.000 A 
ATOM      5  C   UNL     1       3.371   1.442  18.089  0.00  0.00    +0.000 C 
ATOM      6  C   UNL     1       2.934   3.941  18.663  0.00  0.00    +0.000 A 
ATOM      7  C   UNL     1       3.480   4.597  17.436  0.00  0.00    +0.000 A 
ATOM      8  C   UNL     1       3.427   5.940  17.359  0.00  0.00    +0.000 A 
ATOM      9  C   UNL     1       2.886   6.827  18.392  0.00  0.00    +0.000 A 
ATOM     10  O   UNL     1       2.892   8.040  18.235  0.00  0.00    +0.000 OA
ATOM     11  O   UNL     1       2.391   6.209  19.512  0.00  0.00    +0.000 OA
ATOM     12  C   UNL     1       2.400   4.802  19.649  0.00  0.00    +0.000 A 
ATOM     13  C   UNL     1       1.829   4.364  20.852  0.00  0.00    +0.000 A 
ENDROOT
BRANCH   7  14
ATOM     14  C   UNL     1       4.018   3.877  16.219  0.00  0.00    +0.000 C 
BRANCH  14  15
ATOM     15  N   UNL     1       5.403   4.282  15.896  0.00  0.00    +0.000 N 
ATOM     16  C   UNL     1       6.400   4.623  16.803  0.00  0.00    +0.000 A 
ATOM     17  C   UNL     1       7.484   5.024  16.079  0.00  0.00    +0.000 A 
ATOM     18  N   UNL     1       7.129   4.927  14.746  0.00  0.00    +0.000 N 
ATOM     19  C   UNL     1       7.949   5.396  13.629  0.00  0.00    +0.000 C 
ATOM     20  C   UNL     1       5.925   4.325  14.641  0.00  0.00    +0.000 A 
ATOM     21  C   UNL     1       5.296   3.809  13.386  0.00  0.00    +0.000 C 
ENDBRANCH  14  15
ENDBRANCH   7  14
TORSDOF 2
ENDMDL
MODEL 8
REMARK VINA RESULT:      -6.2      3.895      6.129
REMARK  Name = 
REMARK  6 active torsions:
REMARK  status: ('A' for Active; 'I' for Inactive)
REMARK    1  A    between atoms: C_1  and  C_2
REMARK    2  A    between atoms: C_4  and  C_5
REMARK    3  A    between atoms: C_7  and  C_8
REMARK    4  A    between atoms: C_8  and  N_9
REMARK    5  A    between atoms: N_12  and  C_13
REMARK    6  A    between atoms: C_14  and  C_15
REMARK                            x       y       z     vdW  Elec       q    Type
REMARK                         _______ _______ _______ _____ _____    ______ ____
ROOT
ATOM      1  C   UNL     1       3.087   5.197  19.850  0.00  0.00    +0.000 C 
ATOM      2  C   UNL     1       2.403   6.531  19.902  0.00  0.00    +0.000 A 
ATOM      3  C   UNL     1       2.350   7.366  18.785  0.00  0.00    +0.000 A 
ATOM      4  C   UNL     1       1.735   8.649  18.814  0.00  0.00    +0.000 A 
ATOM      5  C   UNL     1       1.789   9.387  17.503  0.00  0.00    +0.000 C 
ATOM      6  C   UNL     1       1.114   9.110  20.000  0.00  0.00    +0.000 A 
ATOM      7  C   UNL     1       0.384  10.396  20.224  0.00  0.00    +0.000 A 
ATOM      8  C   UNL     1      -0.135  10.624  21.445  0.00  0.00    +0.000 A 
ATOM      9  C   UNL     1      -0.035   9.718  22.592  0.00  0.00    +0.000 A 
ATOM     10  O   UNL     1      -0.532  10.020  23.667  0.00  0.00    +0.000 OA
ATOM     11  O   UNL     1       0.639   8.544  22.369  0.00  0.00    +0.000 OA
ATOM     12  C   UNL     1       1.194   8.234  21.107  0.00  0.00    +0.000 A 
ATOM     13  C   UNL     1       1.821   6.981  21.075  0.00  0.00    +0.000 A 
ENDROOT
BRANCH   7  14
ATOM     14  C   UNL     1       0.098  11.440  19.168  0.00  0.00    +0.000 C 
BRANCH  14  15
ATOM     15  N   UNL     1      -1.348  11.717  19.032  0.00  0.00    +0.000 N 
ATOM     16  C   UNL     1      -2.061  12.731  19.663  0.00  0.00    +0.000 A 
ATOM     17  C   UNL     1      -3.374  12.563  19.336  0.00  0.00    +0.000 A 
ATOM     18  N   UNL     1      -3.442  11.449  18.519  0.00  0.00    +0.000 N 
ATOM     19  C   UNL     1      -4.683  10.829  18.055  0.00  0.00    +0.000 C 
ATOM     20  C   UNL     1      -2.193  11.039  18.210  0.00  0.00    +0.000 A 
ATOM     21  C   UNL     1      -1.820  10.036  17.165  0.00  0.00    +0.000 C 
ENDBRANCH  14  15
ENDBRANCH   7  14
TORSDOF 2
ENDMDL
MODEL 9
REMARK VINA RESULT:      -5.9      3.461      4.987
REMARK  Name = 
REMARK  6 active torsions:
REMARK  status: ('A' for Active; 'I' for Inactive)
REMARK    1  A    between atoms: C_1  and  C_2
REMARK    2  A    between atoms: C_4  and  C_5
REMARK    3  A    between atoms: C_7  and  C_8
REMARK    4  A    between atoms: C_8  and  N_9
REMARK    5  A    between atoms: N_12  and  C_13
REMARK    6  A    between atoms: C_14  and  C_15
REMARK                            x       y       z     vdW  Elec       q    Type
REMARK                         _______ _______ _______ _____ _____    ______ ____
ROOT
ATOM      1  C   UNL     1       6.521   3.276  12.786  0.00  0.00    +0.000 C 
ATOM      2  C   UNL     1       6.128   3.965  14.059  0.00  0.00    +0.000 A 
ATOM      3  C   UNL     1       4.887   3.736  14.658  0.00  0.00    +0.000 A 
ATOM      4  C   UNL     1       4.475   4.399  15.847  0.00  0.00    +0.000 A 
ATOM      5  C   UNL     1       3.102   4.009  16.325  0.00  0.00    +0.000 C 
ATOM      6  C   UNL     1       5.350   5.308  16.492  0.00  0.00    +0.000 A 
ATOM      7  C   UNL     1       5.126   6.067  17.760  0.00  0.00    +0.000 A 
ATOM      8  C   UNL     1       6.109   6.879  18.193  0.00  0.00    +0.000 A 
ATOM      9  C   UNL     1       7.389   7.098  17.514  0.00  0.00    +0.000 A 
ATOM     10  O   UNL     1       8.217   7.867  17.981  0.00  0.00    +0.000 OA
ATOM     11  O   UNL     1       7.576   6.395  16.350  0.00  0.00    +0.000 OA
ATOM     12  C   UNL     1       6.593   5.512  15.850  0.00  0.00    +0.000 A 
ATOM     13  C   UNL     1       6.982   4.870  14.666  0.00  0.00    +0.000 A 
ENDROOT
BRANCH   7  14
ATOM     14  C   UNL     1       3.917   5.941  18.659  0.00  0.00    +0.000 C 
BRANCH  14  15
ATOM     15  N   UNL     1       3.899   4.661  19.398  0.00  0.00    +0.000 N 
ATOM     16  C   UNL     1       4.877   3.673  19.369  0.00  0.00    +0.000 A 
ATOM     17  C   UNL     1       4.415   2.627  20.112  0.00  0.00    +0.000 A 
ATOM     18  N   UNL     1       3.163   2.989  20.574  0.00  0.00    +0.000 N 
ATOM     19  C   UNL     1       2.251   2.101  21.294  0.00  0.00    +0.000 C 
ATOM     20  C   UNL     1       2.927   4.284  20.272  0.00  0.00    +0.000 A 
ATOM     21  C   UNL     1       1.813   5.130  20.798  0.00  0.00    +0.000 C 
ENDBRANCH  14  15
ENDBRANCH   7  14
TORSDOF 2
ENDMDL
