MODEL 1
REMARK VINA RESULT:      -8.5      0.000      0.000
REMARK  Name = 
REMARK  4 active torsions:
REMARK  status: ('A' for Active; 'I' for Inactive)
REMARK    1  A    between atoms: C_1  and  C_2
REMARK    2  A    between atoms: C_7  and  C_8
REMARK    3  A    between atoms: C_11  and  N_12
REMARK    4  A    between atoms: C_13  and  C_15
REMARK                            x       y       z     vdW  Elec       q    Type
REMARK                         _______ _______ _______ _____ _____    ______ ____
ROOT
ATOM      1  C   UNL     1       1.617   8.111  19.820  0.00  0.00    +0.000 A 
ATOM      2  C   UNL     1       1.156   9.238  19.128  0.00  0.00    +0.000 A 
ATOM      3  C   UNL     1       0.369  10.206  19.758  0.00  0.00    +0.000 A 
ATOM      4  C   UNL     1       0.032  10.087  21.105  0.00  0.00    +0.000 A 
ATOM      5  C   UNL     1       0.542   9.011  21.831  0.00  0.00    +0.000 A 
ATOM      6  C   UNL     1       1.315   8.032  21.192  0.00  0.00    +0.000 A 
ENDROOT
BRANCH   1  13
ATOM      7  C   UNL     1       6.283   3.679  15.238  0.00  0.00    +0.000 C 
ATOM      8  C   UNL     1       5.455   4.671  15.999  0.00  0.00    +0.000 A 
ATOM      9  C   UNL     1       5.433   6.020  15.641  0.00  0.00    +0.000 A 
ATOM     10  C   UNL     1       4.645   6.926  16.357  0.00  0.00    +0.000 A 
ATOM     11  C   UNL     1       3.871   6.525  17.434  0.00  0.00    +0.000 A 
ATOM     12  N   UNL     1       3.136   7.438  18.089  0.00  0.00    +0.000 NA
ATOM     13  C   UNL     1       2.380   7.043  19.144  0.00  0.00    +0.000 A 
ATOM     14  C   UNL     1       2.356   5.717  19.571  0.00  0.00    +0.000 A 
ATOM     15  C   UNL     1       3.117   4.772  18.893  0.00  0.00    +0.000 A 
ATOM     16  C   UNL     1       3.894   5.166  17.800  0.00  0.00    +0.000 A 
ATOM     17  C   UNL     1       4.683   4.249  17.085  0.00  0.00    +0.000 A 
ENDBRANCH   1  13
BRANCH   4  18
ATOM     18  N   UNL     1      -0.790  11.019  21.773  0.00  0.00    +0.000 N 
ATOM     19  C   UNL     1      -0.418  12.309  22.114  0.00  0.00    +0.000 C 
ATOM     20  O   UNL     1       0.632  12.861  21.800  0.00  0.00    +0.000 OA
ATOM     21  H   UNL     1      -1.729  10.709  21.976  0.00  0.00    +0.000 HD
BRANCH  19  22
ATOM     22  C   UNL     1      -1.378  13.090  22.944  0.00  0.00    +0.000 A 
ATOM     23  C   UNL     1      -0.974  14.378  23.341  0.00  0.00    +0.000 A 
ATOM     24  C   UNL     1      -1.802  15.165  24.137  0.00  0.00    +0.000 A 
ATOM     25  C   UNL     1      -3.036  14.668  24.530  0.00  0.00    +0.000 A 
ATOM     26  F   UNL     1      -3.832  15.418  25.304  0.00  0.00    +0.000 F 
ATOM     27  C   UNL     1      -3.464  13.406  24.128  0.00  0.00    +0.000 A 
ATOM     28  C   UNL     1      -2.638  12.613  23.327  0.00  0.00    +0.000 A 
ENDBRANCH  19  22
ENDBRANCH   4  18
TORSDOF 3
ENDMDL
MODEL 2
REMARK VINA RESULT:      -8.2      0.817      1.539
REMARK  Name = 
REMARK  4 active torsions:
REMARK  status: ('A' for Active; 'I' for Inactive)
REMARK    1  A    between atoms: C_1  and  C_2
REMARK    2  A    between atoms: C_7  and  C_8
REMARK    3  A    between atoms: C_11  and  N_12
REMARK    4  A    between atoms: C_13  and  C_15
REMARK                            x       y       z     vdW  Elec       q    Type
REMARK                         _______ _______ _______ _____ _____    ______ ____
ROOT
ATOM      1  C   UNL     1       1.719   8.092  19.600  0.00  0.00    +0.000 A 
ATOM      2  C   UNL     1       1.357   8.003  20.951  0.00  0.00    +0.000 A 
ATOM      3  C   UNL     1       0.699   9.054  21.597  0.00  0.00    +0.000 A 
ATOM      4  C   UNL     1       0.369  10.220  20.910  0.00  0.00    +0.000 A 
ATOM      5  C   UNL     1       0.655  10.300  19.547  0.00  0.00    +0.000 A 
ATOM      6  C   UNL     1       1.331   9.253  18.906  0.00  0.00    +0.000 A 
ENDROOT
BRANCH   1  13
ATOM      7  C   UNL     1       6.414   3.652  15.056  0.00  0.00    +0.000 C 
ATOM      8  C   UNL     1       5.581   4.645  15.809  0.00  0.00    +0.000 A 
ATOM      9  C   UNL     1       5.563   5.994  15.450  0.00  0.00    +0.000 A 
ATOM     10  C   UNL     1       4.771   6.901  16.160  0.00  0.00    +0.000 A 
ATOM     11  C   UNL     1       3.989   6.502  17.232  0.00  0.00    +0.000 A 
ATOM     12  N   UNL     1       3.250   7.416  17.881  0.00  0.00    +0.000 NA
ATOM     13  C   UNL     1       2.485   7.023  18.930  0.00  0.00    +0.000 A 
ATOM     14  C   UNL     1       2.457   5.698  19.358  0.00  0.00    +0.000 A 
ATOM     15  C   UNL     1       3.221   4.751  18.686  0.00  0.00    +0.000 A 
ATOM     16  C   UNL     1       4.007   5.143  17.599  0.00  0.00    +0.000 A 
ATOM     17  C   UNL     1       4.800   4.225  16.890  0.00  0.00    +0.000 A 
ENDBRANCH   1  13
BRANCH   4  18
ATOM     18  N   UNL     1      -0.261  11.320  21.530  0.00  0.00    +0.000 N 
ATOM     19  C   UNL     1      -0.888  11.288  22.764  0.00  0.00    +0.000 C 
ATOM     20  O   UNL     1      -0.901  10.338  23.540  0.00  0.00    +0.000 OA
ATOM     21  H   UNL     1      -0.206  12.196  21.029  0.00  0.00    +0.000 HD
BRANCH  19  22
ATOM     22  C   UNL     1      -1.619  12.519  23.181  0.00  0.00    +0.000 A 
ATOM     23  C   UNL     1      -2.973  12.367  23.527  0.00  0.00    +0.000 A 
ATOM     24  C   UNL     1      -3.736  13.470  23.906  0.00  0.00    +0.000 A 
ATOM     25  C   UNL     1      -3.141  14.722  23.945  0.00  0.00    +0.000 A 
ATOM     26  F   UNL     1      -3.872  15.787  24.298  0.00  0.00    +0.000 F 
ATOM     27  C   UNL     1      -1.796  14.890  23.629  0.00  0.00    +0.000 A 
ATOM     28  C   UNL     1      -1.026  13.786  23.251  0.00  0.00    +0.000 A 
ENDBRANCH  19  22
ENDBRANCH   4  18
TORSDOF 3
ENDMDL
MODEL 3
REMARK VINA RESULT:      -8.2      1.978      3.218
REMARK  Name = 
REMARK  4 active torsions:
REMARK  status: ('A' for Active; 'I' for Inactive)
REMARK    1  A    between atoms: C_1  and  C_2
REMARK    2  A    between atoms: C_7  and  C_8
REMARK    3  A    between atoms: C_11  and  N_12
REMARK    4  A    between atoms: C_13  and  C_15
REMARK                            x       y       z     vdW  Elec       q    Type
REMARK                         _______ _______ _______ _____ _____    ______ ____
ROOT
ATOM      1  C   UNL     1       0.522   9.553  20.943  0.00  0.00    +0.000 A 
ATOM      2  C   UNL     1       0.135   9.358  22.275  0.00  0.00    +0.000 A 
ATOM      3  C   UNL     1      -0.502  10.367  23.002  0.00  0.00    +0.000 A 
ATOM      4  C   UNL     1      -0.785  11.600  22.416  0.00  0.00    +0.000 A 
ATOM      5  C   UNL     1      -0.475  11.790  21.069  0.00  0.00    +0.000 A 
ATOM      6  C   UNL     1       0.180  10.782  20.348  0.00  0.00    +0.000 A 
ENDROOT
BRANCH   1  13
ATOM      7  C   UNL     1       4.074   3.036  18.238  0.00  0.00    +0.000 C 
ATOM      8  C   UNL     1       3.352   4.167  18.907  0.00  0.00    +0.000 A 
ATOM      9  C   UNL     1       2.765   4.007  20.164  0.00  0.00    +0.000 A 
ATOM     10  C   UNL     1       2.106   5.078  20.774  0.00  0.00    +0.000 A 
ATOM     11  C   UNL     1       2.009   6.318  20.163  0.00  0.00    +0.000 A 
ATOM     12  N   UNL     1       1.360   7.310  20.793  0.00  0.00    +0.000 NA
ATOM     13  C   UNL     1       1.267   8.523  20.192  0.00  0.00    +0.000 A 
ATOM     14  C   UNL     1       1.815   8.760  18.934  0.00  0.00    +0.000 A 
ATOM     15  C   UNL     1       2.487   7.733  18.281  0.00  0.00    +0.000 A 
ATOM     16  C   UNL     1       2.596   6.481  18.894  0.00  0.00    +0.000 A 
ATOM     17  C   UNL     1       3.261   5.410  18.274  0.00  0.00    +0.000 A 
ENDBRANCH   1  13
BRANCH   4  18
ATOM     18  N   UNL     1      -1.393  12.660  23.121  0.00  0.00    +0.000 N 
ATOM     19  C   UNL     1      -2.757  12.880  23.211  0.00  0.00    +0.000 C 
ATOM     20  O   UNL     1      -3.635  12.138  22.781  0.00  0.00    +0.000 OA
ATOM     21  H   UNL     1      -0.763  13.272  23.620  0.00  0.00    +0.000 HD
BRANCH  19  22
ATOM     22  C   UNL     1      -3.195  14.137  23.882  0.00  0.00    +0.000 A 
ATOM     23  C   UNL     1      -4.488  14.601  23.583  0.00  0.00    +0.000 A 
ATOM     24  C   UNL     1      -4.966  15.780  24.150  0.00  0.00    +0.000 A 
ATOM     25  C   UNL     1      -4.154  16.490  25.022  0.00  0.00    +0.000 A 
ATOM     26  F   UNL     1      -4.605  17.630  25.562  0.00  0.00    +0.000 F 
ATOM     27  C   UNL     1      -2.879  16.035  25.350  0.00  0.00    +0.000 A 
ATOM     28  C   UNL     1      -2.396  14.851  24.785  0.00  0.00    +0.000 A 
ENDBRANCH  19  22
ENDBRANCH   4  18
TORSDOF 3
ENDMDL
MODEL 4
REMARK VINA RESULT:      -8.2      4.194     10.785
REMARK  Name = 
REMARK  4 active torsions:
REMARK  status: ('A' for Active; 'I' for Inactive)
REMARK    1  A    between atoms: C_1  and  C_2
REMARK    2  A    between atoms: C_7  and  C_8
REMARK    3  A    between atoms: C_11  and  N_12
REMARK    4  A    between atoms: C_13  and  C_15
REMARK                            x       y       z     vdW  Elec       q    Type
REMARK                         _______ _______ _______ _____ _____    ______ ____
ROOT
ATOM      1  C   UNL     1       0.316   9.955  20.466  0.00  0.00    +0.000 A 
ATOM      2  C   UNL     1       1.004   8.870  21.024  0.00  0.00    +0.000 A 
ATOM      3  C   UNL     1       1.848   8.069  20.250  0.00  0.00    +0.000 A 
ATOM      4  C   UNL     1       2.042   8.336  18.896  0.00  0.00    +0.000 A 
ATOM      5  C   UNL     1       1.425   9.455  18.337  0.00  0.00    +0.000 A 
ATOM      6  C   UNL     1       0.565  10.246  19.111  0.00  0.00    +0.000 A 
ENDROOT
BRANCH   1  13
ATOM      7  C   UNL     1      -5.254  14.865  23.163  0.00  0.00    +0.000 C 
ATOM      8  C   UNL     1      -4.239  14.003  22.474  0.00  0.00    +0.000 A 
ATOM      9  C   UNL     1      -4.045  14.077  21.094  0.00  0.00    +0.000 A 
ATOM     10  C   UNL     1      -3.086  13.271  20.474  0.00  0.00    +0.000 A 
ATOM     11  C   UNL     1      -2.306  12.381  21.195  0.00  0.00    +0.000 A 
ATOM     12  N   UNL     1      -1.402  11.629  20.547  0.00  0.00    +0.000 NA
ATOM     13  C   UNL     1      -0.639  10.758  21.255  0.00  0.00    +0.000 A 
ATOM     14  C   UNL     1      -0.781  10.615  22.633  0.00  0.00    +0.000 A 
ATOM     15  C   UNL     1      -1.716  11.395  23.304  0.00  0.00    +0.000 A 
ATOM     16  C   UNL     1      -2.502  12.301  22.586  0.00  0.00    +0.000 A 
ATOM     17  C   UNL     1      -3.464  13.108  23.217  0.00  0.00    +0.000 A 
ENDBRANCH   1  13
BRANCH   4  18
ATOM     18  N   UNL     1       2.855   7.534  18.067  0.00  0.00    +0.000 N 
ATOM     19  C   UNL     1       2.925   6.151  18.117  0.00  0.00    +0.000 C 
ATOM     20  O   UNL     1       2.225   5.420  18.810  0.00  0.00    +0.000 OA
ATOM     21  H   UNL     1       3.392   8.028  17.369  0.00  0.00    +0.000 HD
BRANCH  19  22
ATOM     22  C   UNL     1       3.951   5.497  17.256  0.00  0.00    +0.000 A 
ATOM     23  C   UNL     1       4.788   6.344  16.509  0.00  0.00    +0.000 A 
ATOM     24  C   UNL     1       5.758   5.814  15.661  0.00  0.00    +0.000 A 
ATOM     25  C   UNL     1       5.895   4.437  15.568  0.00  0.00    +0.000 A 
ATOM     26  F   UNL     1       6.820   3.922  14.746  0.00  0.00    +0.000 F 
ATOM     27  C   UNL     1       5.093   3.581  16.317  0.00  0.00    +0.000 A 
ATOM     28  C   UNL     1       4.120   4.109  17.171  0.00  0.00    +0.000 A 
ENDBRANCH  19  22
ENDBRANCH   4  18
TORSDOF 3
ENDMDL
MODEL 5
REMARK VINA RESULT:      -8.2      4.572     10.934
REMARK  Name = 
REMARK  4 active torsions:
REMARK  status: ('A' for Active; 'I' for Inactive)
REMARK    1  A    between atoms: C_1  and  C_2
REMARK    2  A    between atoms: C_7  and  C_8
REMARK    3  A    between atoms: C_11  and  N_12
REMARK    4  A    between atoms: C_13  and  C_15
REMARK                            x       y       z     vdW  Elec       q    Type
REMARK                         _______ _______ _______ _____ _____    ______ ____
ROOT
ATOM      1  C   UNL     1       1.578   8.404  19.950  0.00  0.00    +0.000 A 
ATOM      2  C   UNL     1       2.084   7.140  20.280  0.00  0.00    +0.000 A 
ATOM      3  C   UNL     1       2.792   6.376  19.349  0.00  0.00    +0.000 A 
ATOM      4  C   UNL     1       3.030   6.857  18.062  0.00  0.00    +0.000 A 
ATOM      5  C   UNL     1       2.599   8.142  17.736  0.00  0.00    +0.000 A 
ATOM      6  C   UNL     1       1.873   8.899  18.666  0.00  0.00    +0.000 A 
ENDROOT
BRANCH   1  13
ATOM      7  C   UNL     1      -3.314  13.402  23.623  0.00  0.00    +0.000 C 
ATOM      8  C   UNL     1      -2.435  12.547  22.762  0.00  0.00    +0.000 A 
ATOM      9  C   UNL     1      -2.338  12.764  21.387  0.00  0.00    +0.000 A 
ATOM     10  C   UNL     1      -1.503  11.960  20.604  0.00  0.00    +0.000 A 
ATOM     11  C   UNL     1      -0.755  10.933  21.156  0.00  0.00    +0.000 A 
ATOM     12  N   UNL     1       0.028  10.190  20.356  0.00  0.00    +0.000 NA
ATOM     13  C   UNL     1       0.760   9.184  20.899  0.00  0.00    +0.000 A 
ATOM     14  C   UNL     1       0.709   8.896  22.261  0.00  0.00    +0.000 A 
ATOM     15  C   UNL     1      -0.100   9.666  23.089  0.00  0.00    +0.000 A 
ATOM     16  C   UNL     1      -0.852  10.709  22.542  0.00  0.00    +0.000 A 
ATOM     17  C   UNL     1      -1.689  11.512  23.335  0.00  0.00    +0.000 A 
ENDBRANCH   1  13
BRANCH   4  18
ATOM     18  N   UNL     1       3.707   6.106  17.078  0.00  0.00    +0.000 N 
ATOM     19  C   UNL     1       5.079   6.093  16.889  0.00  0.00    +0.000 C 
ATOM     20  O   UNL     1       5.909   6.647  17.603  0.00  0.00    +0.000 OA
ATOM     21  H   UNL     1       3.127   5.512  16.503  0.00  0.00    +0.000 HD
BRANCH  19  22
ATOM     22  C   UNL     1       5.589   5.347  15.704  0.00  0.00    +0.000 A 
ATOM     23  C   UNL     1       6.911   5.614  15.305  0.00  0.00    +0.000 A 
ATOM     24  C   UNL     1       7.458   4.976  14.193  0.00  0.00    +0.000 A 
ATOM     25  C   UNL     1       6.685   4.066  13.487  0.00  0.00    +0.000 A 
ATOM     26  F   UNL     1       7.202   3.458  12.411  0.00  0.00    +0.000 F 
ATOM     27  C   UNL     1       5.382   3.770  13.880  0.00  0.00    +0.000 A 
ATOM     28  C   UNL     1       4.830   4.406  14.996  0.00  0.00    +0.000 A 
ENDBRANCH  19  22
ENDBRANCH   4  18
TORSDOF 3
ENDMDL
MODEL 6
REMARK VINA RESULT:      -8.2      1.885      2.816
REMARK  Name = 
REMARK  4 active torsions:
REMARK  status: ('A' for Active; 'I' for Inactive)
REMARK    1  A    between atoms: C_1  and  C_2
REMARK    2  A    between atoms: C_7  and  C_8
REMARK    3  A    between atoms: C_11  and  N_12
REMARK    4  A    between atoms: C_13  and  C_15
REMARK                            x       y       z     vdW  Elec       q    Type
REMARK                         _______ _______ _______ _____ _____    ______ ____
ROOT
ATOM      1  C   UNL     1       0.855   8.930  20.755  0.00  0.00    +0.000 A 
ATOM      2  C   UNL     1       0.490  10.048  19.993  0.00  0.00    +0.000 A 
ATOM      3  C   UNL     1      -0.224  11.109  20.556  0.00  0.00    +0.000 A 
ATOM      4  C   UNL     1      -0.585  11.093  21.902  0.00  0.00    +0.000 A 
ATOM      5  C   UNL     1      -0.169  10.024  22.696  0.00  0.00    +0.000 A 
ATOM      6  C   UNL     1       0.531   8.953  22.124  0.00  0.00    +0.000 A 
ENDROOT
BRANCH   1  13
ATOM      7  C   UNL     1       3.865   1.875  18.864  0.00  0.00    +0.000 C 
ATOM      8  C   UNL     1       3.221   3.127  19.381  0.00  0.00    +0.000 A 
ATOM      9  C   UNL     1       2.520   3.134  20.588  0.00  0.00    +0.000 A 
ATOM     10  C   UNL     1       1.937   4.314  21.057  0.00  0.00    +0.000 A 
ATOM     11  C   UNL     1       2.029   5.503  20.350  0.00  0.00    +0.000 A 
ATOM     12  N   UNL     1       1.447   6.607  20.845  0.00  0.00    +0.000 NA
ATOM     13  C   UNL     1       1.538   7.769  20.151  0.00  0.00    +0.000 A 
ATOM     14  C   UNL     1       2.209   7.842  18.933  0.00  0.00    +0.000 A 
ATOM     15  C   UNL     1       2.813   6.700  18.421  0.00  0.00    +0.000 A 
ATOM     16  C   UNL     1       2.732   5.499  19.131  0.00  0.00    +0.000 A 
ATOM     17  C   UNL     1       3.322   4.316  18.653  0.00  0.00    +0.000 A 
ENDBRANCH   1  13
BRANCH   4  18
ATOM     18  N   UNL     1      -1.338  12.123  22.504  0.00  0.00    +0.000 N 
ATOM     19  C   UNL     1      -0.844  13.366  22.865  0.00  0.00    +0.000 C 
ATOM     20  O   UNL     1       0.283  13.788  22.626  0.00  0.00    +0.000 OA
ATOM     21  H   UNL     1      -2.320  11.927  22.639  0.00  0.00    +0.000 HD
BRANCH  19  22
ATOM     22  C   UNL     1      -1.764  14.264  23.619  0.00  0.00    +0.000 A 
ATOM     23  C   UNL     1      -3.121  14.236  23.253  0.00  0.00    +0.000 A 
ATOM     24  C   UNL     1      -4.044  15.061  23.892  0.00  0.00    +0.000 A 
ATOM     25  C   UNL     1      -3.610  15.908  24.901  0.00  0.00    +0.000 A 
ATOM     26  F   UNL     1      -4.492  16.711  25.512  0.00  0.00    +0.000 F 
ATOM     27  C   UNL     1      -2.275  15.934  25.294  0.00  0.00    +0.000 A 
ATOM     28  C   UNL     1      -1.345  15.106  24.658  0.00  0.00    +0.000 A 
ENDBRANCH  19  22
ENDBRANCH   4  18
TORSDOF 3
ENDMDL
MODEL 7
REMARK VINA RESULT:      -8.2      4.237     10.847
REMARK  Name = 
REMARK  4 active torsions:
REMARK  status: ('A' for Active; 'I' for Inactive)
REMARK    1  A    between atoms: C_1  and  C_2
REMARK    2  A    between atoms: C_7  and  C_8
REMARK    3  A    between atoms: C_11  and  N_12
REMARK    4  A    between atoms: C_13  and  C_15
REMARK                            x       y       z     vdW  Elec       q    Type
REMARK                         _______ _______ _______ _____ _____    ______ ____
ROOT
ATOM      1  C   UNL     1       0.496   9.662  20.304  0.00  0.00    +0.000 A 
ATOM      2  C   UNL     1       1.144   8.522  20.800  0.00  0.00    +0.000 A 
ATOM      3  C   UNL     1       1.916   7.706  19.969  0.00  0.00    +0.000 A 
ATOM      4  C   UNL     1       2.079   8.010  18.619  0.00  0.00    +0.000 A 
ATOM      5  C   UNL     1       1.504   9.180  18.121  0.00  0.00    +0.000 A 
ATOM      6  C   UNL     1       0.715   9.986  18.952  0.00  0.00    +0.000 A 
ENDROOT
BRANCH   1  13
ATOM      7  C   UNL     1      -4.678  14.785  23.367  0.00  0.00    +0.000 C 
ATOM      8  C   UNL     1      -3.737  13.894  22.613  0.00  0.00    +0.000 A 
ATOM      9  C   UNL     1      -3.567  14.023  21.234  0.00  0.00    +0.000 A 
ATOM     10  C   UNL     1      -2.676  13.188  20.553  0.00  0.00    +0.000 A 
ATOM     11  C   UNL     1      -1.943  12.214  21.211  0.00  0.00    +0.000 A 
ATOM     12  N   UNL     1      -1.104  11.438  20.506  0.00  0.00    +0.000 NA
ATOM     13  C   UNL     1      -0.387  10.484  21.153  0.00  0.00    +0.000 A 
ATOM     14  C   UNL     1      -0.509  10.284  22.526  0.00  0.00    +0.000 A 
ATOM     15  C   UNL     1      -1.376  11.089  23.256  0.00  0.00    +0.000 A 
ATOM     16  C   UNL     1      -2.114  12.079  22.602  0.00  0.00    +0.000 A 
ATOM     17  C   UNL     1      -3.007  12.914  23.293  0.00  0.00    +0.000 A 
ENDBRANCH   1  13
BRANCH   4  18
ATOM     18  N   UNL     1       2.818   7.196  17.736  0.00  0.00    +0.000 N 
ATOM     19  C   UNL     1       3.798   6.293  18.114  0.00  0.00    +0.000 C 
ATOM     20  O   UNL     1       4.095   5.996  19.267  0.00  0.00    +0.000 OA
ATOM     21  H   UNL     1       2.571   7.271  16.759  0.00  0.00    +0.000 HD
BRANCH  19  22
ATOM     22  C   UNL     1       4.564   5.632  17.020  0.00  0.00    +0.000 A 
ATOM     23  C   UNL     1       4.643   4.228  17.057  0.00  0.00    +0.000 A 
ATOM     24  C   UNL     1       5.359   3.533  16.085  0.00  0.00    +0.000 A 
ATOM     25  C   UNL     1       5.990   4.242  15.073  0.00  0.00    +0.000 A 
ATOM     26  F   UNL     1       6.688   3.579  14.142  0.00  0.00    +0.000 F 
ATOM     27  C   UNL     1       5.904   5.630  15.006  0.00  0.00    +0.000 A 
ATOM     28  C   UNL     1       5.185   6.332  15.977  0.00  0.00    +0.000 A 
ENDBRANCH  19  22
ENDBRANCH   4  18
TORSDOF 3
ENDMDL
MODEL 8
REMARK VINA RESULT:      -8.1      1.858      2.918
REMARK  Name = 
REMARK  4 active torsions:
REMARK  status: ('A' for Active; 'I' for Inactive)
REMARK    1  A    between atoms: C_1  and  C_2
REMARK    2  A    between atoms: C_7  and  C_8
REMARK    3  A    between atoms: C_11  and  N_12
REMARK    4  A    between atoms: C_13  and  C_15
REMARK                            x       y       z     vdW  Elec       q    Type
REMARK                         _______ _______ _______ _____ _____    ______ ____
ROOT
ATOM      1  C   UNL     1       0.780   9.681  20.702  0.00  0.00    +0.000 A 
ATOM      2  C   UNL     1       0.677  10.994  20.223  0.00  0.00    +0.000 A 
ATOM      3  C   UNL     1       0.002  11.980  20.947  0.00  0.00    +0.000 A 
ATOM      4  C   UNL     1      -0.578  11.691  22.180  0.00  0.00    +0.000 A 
ATOM      5  C   UNL     1      -0.424  10.410  22.710  0.00  0.00    +0.000 A 
ATOM      6  C   UNL     1       0.237   9.417  21.974  0.00  0.00    +0.000 A 
ENDROOT
BRANCH   1  13
ATOM      7  C   UNL     1       3.905   3.013  17.844  0.00  0.00    +0.000 C 
ATOM      8  C   UNL     1       3.280   4.178  18.550  0.00  0.00    +0.000 A 
ATOM      9  C   UNL     1       2.838   4.071  19.870  0.00  0.00    +0.000 A 
ATOM     10  C   UNL     1       2.268   5.174  20.513  0.00  0.00    +0.000 A 
ATOM     11  C   UNL     1       2.121   6.394  19.873  0.00  0.00    +0.000 A 
ATOM     12  N   UNL     1       1.563   7.419  20.538  0.00  0.00    +0.000 NA
ATOM     13  C   UNL     1       1.420   8.613  19.909  0.00  0.00    +0.000 A 
ATOM     14  C   UNL     1       1.825   8.798  18.589  0.00  0.00    +0.000 A 
ATOM     15  C   UNL     1       2.403   7.737  17.902  0.00  0.00    +0.000 A 
ATOM     16  C   UNL     1       2.563   6.505  18.541  0.00  0.00    +0.000 A 
ATOM     17  C   UNL     1       3.137   5.401  17.888  0.00  0.00    +0.000 A 
ENDBRANCH   1  13
BRANCH   4  18
ATOM     18  N   UNL     1      -1.300  12.645  22.928  0.00  0.00    +0.000 N 
ATOM     19  C   UNL     1      -2.605  13.035  22.675  0.00  0.00    +0.000 C 
ATOM     20  O   UNL     1      -3.353  12.543  21.837  0.00  0.00    +0.000 OA
ATOM     21  H   UNL     1      -0.817  13.033  23.726  0.00  0.00    +0.000 HD
BRANCH  19  22
ATOM     22  C   UNL     1      -3.141  14.161  23.491  0.00  0.00    +0.000 A 
ATOM     23  C   UNL     1      -4.446  14.595  23.196  0.00  0.00    +0.000 A 
ATOM     24  C   UNL     1      -5.014  15.657  23.896  0.00  0.00    +0.000 A 
ATOM     25  C   UNL     1      -4.281  16.279  24.896  0.00  0.00    +0.000 A 
ATOM     26  F   UNL     1      -4.819  17.307  25.565  0.00  0.00    +0.000 F 
ATOM     27  C   UNL     1      -2.997  15.849  25.219  0.00  0.00    +0.000 A 
ATOM     28  C   UNL     1      -2.423  14.782  24.522  0.00  0.00    +0.000 A 
ENDBRANCH  19  22
ENDBRANCH   4  18
TORSDOF 3
ENDMDL
MODEL 9
REMARK VINA RESULT:      -8.1      2.037      2.845
REMARK  Name = 
REMARK  4 active torsions:
REMARK  status: ('A' for Active; 'I' for Inactive)
REMARK    1  A    between atoms: C_1  and  C_2
REMARK    2  A    between atoms: C_7  and  C_8
REMARK    3  A    between atoms: C_11  and  N_12
REMARK    4  A    between atoms: C_13  and  C_15
REMARK                            x       y       z     vdW  Elec       q    Type
REMARK                         _______ _______ _______ _____ _____    ______ ____
ROOT
ATOM      1  C   UNL     1       0.878   8.935  20.997  0.00  0.00    +0.000 A 
ATOM      2  C   UNL     1       0.862  10.227  20.454  0.00  0.00    +0.000 A 
ATOM      3  C   UNL     1       0.207  11.278  21.100  0.00  0.00    +0.000 A 
ATOM      4  C   UNL     1      -0.440  11.077  22.317  0.00  0.00    +0.000 A 
ATOM      5  C   UNL     1      -0.374   9.817  22.912  0.00  0.00    +0.000 A 
ATOM      6  C   UNL     1       0.268   8.760  22.253  0.00  0.00    +0.000 A 
ENDROOT
BRANCH   1  13
ATOM      7  C   UNL     1       3.535   1.941  18.462  0.00  0.00    +0.000 C 
ATOM      8  C   UNL     1       2.958   3.171  19.096  0.00  0.00    +0.000 A 
ATOM      9  C   UNL     1       2.286   3.108  20.317  0.00  0.00    +0.000 A 
ATOM     10  C   UNL     1       1.765   4.269  20.895  0.00  0.00    +0.000 A 
ATOM     11  C   UNL     1       1.893   5.507  20.285  0.00  0.00    +0.000 A 
ATOM     12  N   UNL     1       1.370   6.590  20.884  0.00  0.00    +0.000 NA
ATOM     13  C   UNL     1       1.497   7.801  20.284  0.00  0.00    +0.000 A 
ATOM     14  C   UNL     1       2.144   7.946  19.059  0.00  0.00    +0.000 A 
ATOM     15  C   UNL     1       2.686   6.825  18.440  0.00  0.00    +0.000 A 
ATOM     16  C   UNL     1       2.568   5.574  19.052  0.00  0.00    +0.000 A 
ATOM     17  C   UNL     1       3.095   4.411  18.465  0.00  0.00    +0.000 A 
ENDBRANCH   1  13
BRANCH   4  18
ATOM     18  N   UNL     1      -1.145  12.100  22.987  0.00  0.00    +0.000 N 
ATOM     19  C   UNL     1      -2.350  12.642  22.571  0.00  0.00    +0.000 C 
ATOM     20  O   UNL     1      -3.027  12.250  21.626  0.00  0.00    +0.000 OA
ATOM     21  H   UNL     1      -0.735  12.420  23.853  0.00  0.00    +0.000 HD
BRANCH  19  22
ATOM     22  C   UNL     1      -2.862  13.813  23.337  0.00  0.00    +0.000 A 
ATOM     23  C   UNL     1      -1.952  14.463  24.189  0.00  0.00    +0.000 A 
ATOM     24  C   UNL     1      -2.355  15.552  24.959  0.00  0.00    +0.000 A 
ATOM     25  C   UNL     1      -3.667  15.994  24.870  0.00  0.00    +0.000 A 
ATOM     26  F   UNL     1      -4.062  17.035  25.616  0.00  0.00    +0.000 F 
ATOM     27  C   UNL     1      -4.577  15.379  24.015  0.00  0.00    +0.000 A 
ATOM     28  C   UNL     1      -4.177  14.288  23.239  0.00  0.00    +0.000 A 
ENDBRANCH  19  22
ENDBRANCH   4  18
TORSDOF 3
ENDMDL
