MODEL 1
REMARK VINA RESULT:      -7.9      0.000      0.000
REMARK  Name = 
REMARK  8 active torsions:
REMARK  status: ('A' for Active; 'I' for Inactive)
REMARK    1  A    between atoms: C_1  and  O_2
REMARK    2  A    between atoms: O_2  and  C_3
REMARK    3  A    between atoms: C_6  and  C_7
REMARK    4  A    between atoms: C_7  and  C_8
REMARK    5  A    between atoms: C_8  and  S_9
REMARK    6  A    between atoms: S_9  and  N_12
REMARK    7  A    between atoms: C_21  and  C_22
REMARK    8  A    between atoms: N_24  and  O_25
REMARK                            x       y       z     vdW  Elec       q    Type
REMARK                         _______ _______ _______ _____ _____    ______ ____
ROOT
ATOM      1  N   UNL     1       5.530   4.704  17.281  0.00  0.00    +0.000 NA
ATOM      2  C   UNL     1       6.827   5.081  16.615  0.00  0.00    +0.000 C 
ATOM      3  C   UNL     1       6.887   4.868  15.128  0.00  0.00    +0.000 A 
ATOM      4  N   UNL     1       7.886   5.488  14.445  0.00  0.00    +0.000 NA
ATOM      5  C   UNL     1       7.909   5.273  13.112  0.00  0.00    +0.000 A 
ATOM      6  C   UNL     1       6.991   4.455  12.483  0.00  0.00    +0.000 A 
ATOM      7  N   UNL     1       6.005   3.823  13.160  0.00  0.00    +0.000 NA
ATOM      8  C   UNL     1       5.965   4.043  14.499  0.00  0.00    +0.000 A 
ATOM      9  C   UNL     1       4.810   3.468  15.260  0.00  0.00    +0.000 C 
ATOM     10  C   UNL     1       5.045   3.361  16.785  0.00  0.00    +0.000 C 
ENDROOT
BRANCH  10  11
ATOM     11  C   UNL     1       3.711   2.856  17.354  0.00  0.00    +0.000 C 
ATOM     12  O   UNL     1       2.617   3.359  17.085  0.00  0.00    +0.000 OA
ATOM     13  N   UNL     1       3.787   1.732  18.159  0.00  0.00    +0.000 N 
ATOM     14  H   UNL     1       4.534   1.695  18.851  0.00  0.00    +0.000 HD
BRANCH  13  15
ATOM     15  O   UNL     1       2.522   1.320  18.664  0.00  0.00    +0.000 OA
ATOM     16  H   UNL     1       2.756   0.923  19.535  0.00  0.00    +0.000 HD
ENDBRANCH  13  15
ENDBRANCH  10  11
BRANCH   1  17
ATOM     17  S   UNL     1       5.582   4.940  18.967  0.00  0.00    +0.000 S 
ATOM     18  O   UNL     1       6.660   5.869  19.220  0.00  0.00    +0.000 OA
ATOM     19  O   UNL     1       5.584   3.639  19.598  0.00  0.00    +0.000 OA
BRANCH  17  20
ATOM     20  C   UNL     1       4.007   5.724  19.295  0.00  0.00    +0.000 C 
BRANCH  20  21
ATOM     21  C   UNL     1       3.541   6.557  18.112  0.00  0.00    +0.000 C 
BRANCH  21  25
ATOM     22  C   UNL     1       0.817   9.639  19.455  0.00  0.00    +0.000 A 
ATOM     23  C   UNL     1       1.306   9.646  18.148  0.00  0.00    +0.000 A 
ATOM     24  C   UNL     1       2.165   8.637  17.705  0.00  0.00    +0.000 A 
ATOM     25  C   UNL     1       2.559   7.611  18.570  0.00  0.00    +0.000 A 
ATOM     26  C   UNL     1       2.076   7.614  19.885  0.00  0.00    +0.000 A 
ATOM     27  C   UNL     1       1.209   8.620  20.324  0.00  0.00    +0.000 A 
BRANCH  22  29
ATOM     28  C   UNL     1      -1.120  10.893  18.938  0.00  0.00    +0.000 C 
ATOM     29  O   UNL     1       0.006  10.689  19.785  0.00  0.00    +0.000 OA
ENDBRANCH  22  29
ENDBRANCH  21  25
ENDBRANCH  20  21
ENDBRANCH  17  20
ENDBRANCH   1  17
TORSDOF 7
ENDMDL
MODEL 2
REMARK VINA RESULT:      -7.8      3.080      6.321
REMARK  Name = 
REMARK  8 active torsions:
REMARK  status: ('A' for Active; 'I' for Inactive)
REMARK    1  A    between atoms: C_1  and  O_2
REMARK    2  A    between atoms: O_2  and  C_3
REMARK    3  A    between atoms: C_6  and  C_7
REMARK    4  A    between atoms: C_7  and  C_8
REMARK    5  A    between atoms: C_8  and  S_9
REMARK    6  A    between atoms: S_9  and  N_12
REMARK    7  A    between atoms: C_21  and  C_22
REMARK    8  A    between atoms: N_24  and  O_25
REMARK                            x       y       z     vdW  Elec       q    Type
REMARK                         _______ _______ _______ _____ _____    ______ ____
ROOT
ATOM      1  N   UNL     1       2.994   5.255  18.923  0.00  0.00    +0.000 NA
ATOM      2  C   UNL     1       2.779   6.306  17.867  0.00  0.00    +0.000 C 
ATOM      3  C   UNL     1       2.279   7.636  18.358  0.00  0.00    +0.000 A 
ATOM      4  N   UNL     1       2.385   8.696  17.512  0.00  0.00    +0.000 NA
ATOM      5  C   UNL     1       1.925   9.874  17.986  0.00  0.00    +0.000 A 
ATOM      6  C   UNL     1       1.359   9.991  19.241  0.00  0.00    +0.000 A 
ATOM      7  N   UNL     1       1.237   8.937  20.079  0.00  0.00    +0.000 NA
ATOM      8  C   UNL     1       1.708   7.750  19.618  0.00  0.00    +0.000 A 
ATOM      9  C   UNL     1       1.711   6.591  20.566  0.00  0.00    +0.000 C 
ATOM     10  C   UNL     1       1.825   5.210  19.880  0.00  0.00    +0.000 C 
ENDROOT
BRANCH  10  11
ATOM     11  C   UNL     1       1.916   4.203  21.035  0.00  0.00    +0.000 C 
ATOM     12  O   UNL     1       2.695   4.318  21.985  0.00  0.00    +0.000 OA
ATOM     13  N   UNL     1       1.009   3.158  20.996  0.00  0.00    +0.000 N 
ATOM     14  H   UNL     1       0.857   2.696  20.101  0.00  0.00    +0.000 HD
BRANCH  13  15
ATOM     15  O   UNL     1       1.150   2.254  22.086  0.00  0.00    +0.000 OA
ATOM     16  H   UNL     1       0.339   2.429  22.618  0.00  0.00    +0.000 HD
ENDBRANCH  13  15
ENDBRANCH  10  11
BRANCH   1  17
ATOM     17  S   UNL     1       3.516   3.775  18.261  0.00  0.00    +0.000 S 
ATOM     18  O   UNL     1       2.324   3.003  17.988  0.00  0.00    +0.000 OA
ATOM     19  O   UNL     1       4.544   3.239  19.125  0.00  0.00    +0.000 OA
BRANCH  17  20
ATOM     20  C   UNL     1       4.280   4.287  16.726  0.00  0.00    +0.000 C 
BRANCH  20  21
ATOM     21  C   UNL     1       5.774   4.010  16.726  0.00  0.00    +0.000 C 
BRANCH  21  25
ATOM     22  C   UNL     1       8.005   7.331  18.372  0.00  0.00    +0.000 A 
ATOM     23  C   UNL     1       7.186   7.512  17.257  0.00  0.00    +0.000 A 
ATOM     24  C   UNL     1       6.444   6.446  16.740  0.00  0.00    +0.000 A 
ATOM     25  C   UNL     1       6.523   5.178  17.325  0.00  0.00    +0.000 A 
ATOM     26  C   UNL     1       7.357   4.998  18.436  0.00  0.00    +0.000 A 
ATOM     27  C   UNL     1       8.092   6.068  18.958  0.00  0.00    +0.000 A 
BRANCH  22  29
ATOM     28  C   UNL     1       8.383   9.650  18.101  0.00  0.00    +0.000 C 
ATOM     29  O   UNL     1       8.703   8.437  18.774  0.00  0.00    +0.000 OA
ENDBRANCH  22  29
ENDBRANCH  21  25
ENDBRANCH  20  21
ENDBRANCH  17  20
ENDBRANCH   1  17
TORSDOF 7
ENDMDL
MODEL 3
REMARK VINA RESULT:      -7.8      0.438      1.024
REMARK  Name = 
REMARK  8 active torsions:
REMARK  status: ('A' for Active; 'I' for Inactive)
REMARK    1  A    between atoms: C_1  and  O_2
REMARK    2  A    between atoms: O_2  and  C_3
REMARK    3  A    between atoms: C_6  and  C_7
REMARK    4  A    between atoms: C_7  and  C_8
REMARK    5  A    between atoms: C_8  and  S_9
REMARK    6  A    between atoms: S_9  and  N_12
REMARK    7  A    between atoms: C_21  and  C_22
REMARK    8  A    between atoms: N_24  and  O_25
REMARK                            x       y       z     vdW  Elec       q    Type
REMARK                         _______ _______ _______ _____ _____    ______ ____
ROOT
ATOM      1  N   UNL     1       5.164   4.574  17.550  0.00  0.00    +0.000 NA
ATOM      2  C   UNL     1       6.517   4.886  16.966  0.00  0.00    +0.000 C 
ATOM      3  C   UNL     1       6.636   4.744  15.474  0.00  0.00    +0.000 A 
ATOM      4  N   UNL     1       7.711   5.321  14.874  0.00  0.00    +0.000 NA
ATOM      5  C   UNL     1       7.785   5.173  13.533  0.00  0.00    +0.000 A 
ATOM      6  C   UNL     1       6.844   4.457  12.820  0.00  0.00    +0.000 A 
ATOM      7  N   UNL     1       5.782   3.867  13.414  0.00  0.00    +0.000 NA
ATOM      8  C   UNL     1       5.690   4.022  14.760  0.00  0.00    +0.000 A 
ATOM      9  C   UNL     1       4.460   3.497  15.435  0.00  0.00    +0.000 C 
ATOM     10  C   UNL     1       4.609   3.297  16.961  0.00  0.00    +0.000 C 
ENDROOT
BRANCH  10  11
ATOM     11  C   UNL     1       3.215   2.866  17.440  0.00  0.00    +0.000 C 
ATOM     12  O   UNL     1       2.174   3.450  17.131  0.00  0.00    +0.000 OA
ATOM     13  N   UNL     1       3.172   1.713  18.205  0.00  0.00    +0.000 N 
ATOM     14  H   UNL     1       3.876   1.602  18.934  0.00  0.00    +0.000 HD
BRANCH  13  15
ATOM     15  O   UNL     1       1.857   1.371  18.626  0.00  0.00    +0.000 OA
ATOM     16  H   UNL     1       1.329   2.152  18.340  0.00  0.00    +0.000 HD
ENDBRANCH  13  15
ENDBRANCH  10  11
BRANCH   1  17
ATOM     17  S   UNL     1       5.147   4.721  19.246  0.00  0.00    +0.000 S 
ATOM     18  O   UNL     1       6.307   5.508  19.603  0.00  0.00    +0.000 OA
ATOM     19  O   UNL     1       4.970   3.399  19.805  0.00  0.00    +0.000 OA
BRANCH  17  20
ATOM     20  C   UNL     1       3.654   5.662  19.538  0.00  0.00    +0.000 C 
BRANCH  20  21
ATOM     21  C   UNL     1       3.287   6.514  18.334  0.00  0.00    +0.000 C 
BRANCH  21  25
ATOM     22  C   UNL     1       0.652   9.734  19.520  0.00  0.00    +0.000 A 
ATOM     23  C   UNL     1       1.068   8.781  20.450  0.00  0.00    +0.000 A 
ATOM     24  C   UNL     1       1.940   7.755  20.075  0.00  0.00    +0.000 A 
ATOM     25  C   UNL     1       2.398   7.661  18.756  0.00  0.00    +0.000 A 
ATOM     26  C   UNL     1       1.967   8.612  17.823  0.00  0.00    +0.000 A 
ATOM     27  C   UNL     1       1.101   9.644  18.202  0.00  0.00    +0.000 A 
BRANCH  22  29
ATOM     28  C   UNL     1      -1.230  11.098  19.080  0.00  0.00    +0.000 C 
ATOM     29  O   UNL     1      -0.222  10.675  19.992  0.00  0.00    +0.000 OA
ENDBRANCH  22  29
ENDBRANCH  21  25
ENDBRANCH  20  21
ENDBRANCH  17  20
ENDBRANCH   1  17
TORSDOF 7
ENDMDL
MODEL 4
REMARK VINA RESULT:      -7.5      4.191      6.371
REMARK  Name = 
REMARK  8 active torsions:
REMARK  status: ('A' for Active; 'I' for Inactive)
REMARK    1  A    between atoms: C_1  and  O_2
REMARK    2  A    between atoms: O_2  and  C_3
REMARK    3  A    between atoms: C_6  and  C_7
REMARK    4  A    between atoms: C_7  and  C_8
REMARK    5  A    between atoms: C_8  and  S_9
REMARK    6  A    between atoms: S_9  and  N_12
REMARK    7  A    between atoms: C_21  and  C_22
REMARK    8  A    between atoms: N_24  and  O_25
REMARK                            x       y       z     vdW  Elec       q    Type
REMARK                         _______ _______ _______ _____ _____    ______ ____
ROOT
ATOM      1  N   UNL     1       5.511   4.610  18.272  0.00  0.00    +0.000 NA
ATOM      2  C   UNL     1       4.646   4.683  19.502  0.00  0.00    +0.000 C 
ATOM      3  C   UNL     1       3.283   4.059  19.384  0.00  0.00    +0.000 A 
ATOM      4  N   UNL     1       2.607   3.807  20.537  0.00  0.00    +0.000 NA
ATOM      5  C   UNL     1       1.387   3.247  20.393  0.00  0.00    +0.000 A 
ATOM      6  C   UNL     1       0.847   2.971  19.152  0.00  0.00    +0.000 A 
ATOM      7  N   UNL     1       1.508   3.235  18.002  0.00  0.00    +0.000 NA
ATOM      8  C   UNL     1       2.742   3.785  18.136  0.00  0.00    +0.000 A 
ATOM      9  C   UNL     1       3.557   3.969  16.893  0.00  0.00    +0.000 C 
ATOM     10  C   UNL     1       4.719   4.979  17.038  0.00  0.00    +0.000 C 
ENDROOT
BRANCH  10  11
ATOM     11  C   UNL     1       5.463   4.919  15.696  0.00  0.00    +0.000 C 
ATOM     12  O   UNL     1       5.692   5.907  14.995  0.00  0.00    +0.000 OA
ATOM     13  N   UNL     1       5.940   3.672  15.329  0.00  0.00    +0.000 N 
ATOM     14  H   UNL     1       5.322   2.872  15.457  0.00  0.00    +0.000 HD
BRANCH  13  15
ATOM     15  O   UNL     1       6.610   3.678  14.073  0.00  0.00    +0.000 OA
ATOM     16  H   UNL     1       7.210   4.456  14.153  0.00  0.00    +0.000 HD
ENDBRANCH  13  15
ENDBRANCH  10  11
BRANCH   1  17
ATOM     17  S   UNL     1       7.012   5.384  18.494  0.00  0.00    +0.000 S 
ATOM     18  O   UNL     1       7.906   4.841  17.497  0.00  0.00    +0.000 OA
ATOM     19  O   UNL     1       7.353   5.297  19.896  0.00  0.00    +0.000 OA
BRANCH  17  20
ATOM     20  C   UNL     1       6.628   7.089  18.111  0.00  0.00    +0.000 C 
BRANCH  20  21
ATOM     21  C   UNL     1       7.696   7.718  17.232  0.00  0.00    +0.000 C 
BRANCH  21  25
ATOM     22  C   UNL     1       9.216  11.264  19.192  0.00  0.00    +0.000 A 
ATOM     23  C   UNL     1       9.337  10.013  19.798  0.00  0.00    +0.000 A 
ATOM     24  C   UNL     1       8.870   8.863  19.155  0.00  0.00    +0.000 A 
ATOM     25  C   UNL     1       8.261   8.951  17.898  0.00  0.00    +0.000 A 
ATOM     26  C   UNL     1       8.130  10.210  17.300  0.00  0.00    +0.000 A 
ATOM     27  C   UNL     1       8.606  11.359  17.940  0.00  0.00    +0.000 A 
BRANCH  22  29
ATOM     28  C   UNL     1      11.094  12.374  20.104  0.00  0.00    +0.000 C 
ATOM     29  O   UNL     1       9.683  12.320  19.924  0.00  0.00    +0.000 OA
ENDBRANCH  22  29
ENDBRANCH  21  25
ENDBRANCH  20  21
ENDBRANCH  17  20
ENDBRANCH   1  17
TORSDOF 7
ENDMDL
MODEL 5
REMARK VINA RESULT:      -7.5      4.309      6.306
REMARK  Name = 
REMARK  8 active torsions:
REMARK  status: ('A' for Active; 'I' for Inactive)
REMARK    1  A    between atoms: C_1  and  O_2
REMARK    2  A    between atoms: O_2  and  C_3
REMARK    3  A    between atoms: C_6  and  C_7
REMARK    4  A    between atoms: C_7  and  C_8
REMARK    5  A    between atoms: C_8  and  S_9
REMARK    6  A    between atoms: S_9  and  N_12
REMARK    7  A    between atoms: C_21  and  C_22
REMARK    8  A    between atoms: N_24  and  O_25
REMARK                            x       y       z     vdW  Elec       q    Type
REMARK                         _______ _______ _______ _____ _____    ______ ____
ROOT
ATOM      1  N   UNL     1       5.693   4.780  18.316  0.00  0.00    +0.000 NA
ATOM      2  C   UNL     1       4.642   5.095  19.347  0.00  0.00    +0.000 C 
ATOM      3  C   UNL     1       3.298   4.455  19.130  0.00  0.00    +0.000 A 
ATOM      4  N   UNL     1       2.436   4.436  20.181  0.00  0.00    +0.000 NA
ATOM      5  C   UNL     1       1.239   3.855  19.950  0.00  0.00    +0.000 A 
ATOM      6  C   UNL     1       0.901   3.335  18.716  0.00  0.00    +0.000 A 
ATOM      7  N   UNL     1       1.749   3.366  17.662  0.00  0.00    +0.000 NA
ATOM      8  C   UNL     1       2.960   3.936  17.888  0.00  0.00    +0.000 A 
ATOM      9  C   UNL     1       3.972   3.870  16.786  0.00  0.00    +0.000 C 
ATOM     10  C   UNL     1       5.124   4.893  16.920  0.00  0.00    +0.000 C 
ENDROOT
BRANCH  10  11
ATOM     11  C   UNL     1       6.076   4.568  15.759  0.00  0.00    +0.000 C 
ATOM     12  O   UNL     1       6.311   3.422  15.366  0.00  0.00    +0.000 OA
ATOM     13  N   UNL     1       6.625   5.659  15.108  0.00  0.00    +0.000 N 
ATOM     14  H   UNL     1       6.974   6.426  15.682  0.00  0.00    +0.000 HD
BRANCH  13  15
ATOM     15  O   UNL     1       7.505   5.295  14.051  0.00  0.00    +0.000 OA
ATOM     16  H   UNL     1       7.912   4.462  14.386  0.00  0.00    +0.000 HD
ENDBRANCH  13  15
ENDBRANCH  10  11
BRANCH   1  17
ATOM     17  S   UNL     1       7.160   5.587  18.627  0.00  0.00    +0.000 S 
ATOM     18  O   UNL     1       8.122   5.073  17.678  0.00  0.00    +0.000 OA
ATOM     19  O   UNL     1       7.424   5.499  20.046  0.00  0.00    +0.000 OA
BRANCH  17  20
ATOM     20  C   UNL     1       6.757   7.286  18.232  0.00  0.00    +0.000 C 
BRANCH  20  21
ATOM     21  C   UNL     1       7.834   7.930  17.375  0.00  0.00    +0.000 C 
BRANCH  21  25
ATOM     22  C   UNL     1       9.294  11.599  19.142  0.00  0.00    +0.000 A 
ATOM     23  C   UNL     1       8.606  11.623  17.929  0.00  0.00    +0.000 A 
ATOM     24  C   UNL     1       8.110  10.442  17.369  0.00  0.00    +0.000 A 
ATOM     25  C   UNL     1       8.310   9.215  18.012  0.00  0.00    +0.000 A 
ATOM     26  C   UNL     1       9.013   9.195  19.223  0.00  0.00    +0.000 A 
ATOM     27  C   UNL     1       9.501  10.379  19.786  0.00  0.00    +0.000 A 
BRANCH  22  29
ATOM     28  C   UNL     1      10.012  13.778  18.568  0.00  0.00    +0.000 C 
ATOM     29  O   UNL     1       9.756  12.810  19.580  0.00  0.00    +0.000 OA
ENDBRANCH  22  29
ENDBRANCH  21  25
ENDBRANCH  20  21
ENDBRANCH  17  20
ENDBRANCH   1  17
TORSDOF 7
ENDMDL
MODEL 6
REMARK VINA RESULT:      -7.5      1.217      2.816
REMARK  Name = 
REMARK  8 active torsions:
REMARK  status: ('A' for Active; 'I' for Inactive)
REMARK    1  A    between atoms: C_1  and  O_2
REMARK    2  A    between atoms: O_2  and  C_3
REMARK    3  A    between atoms: C_6  and  C_7
REMARK    4  A    between atoms: C_7  and  C_8
REMARK    5  A    between atoms: C_8  and  S_9
REMARK    6  A    between atoms: S_9  and  N_12
REMARK    7  A    between atoms: C_21  and  C_22
REMARK    8  A    between atoms: N_24  and  O_25
REMARK                            x       y       z     vdW  Elec       q    Type
REMARK                         _______ _______ _______ _____ _____    ______ ____
ROOT
ATOM      1  N   UNL     1       5.657   4.307  17.019  0.00  0.00    +0.000 NA
ATOM      2  C   UNL     1       4.927   4.051  15.728  0.00  0.00    +0.000 C 
ATOM      3  C   UNL     1       5.749   4.173  14.474  0.00  0.00    +0.000 A 
ATOM      4  N   UNL     1       5.236   3.638  13.334  0.00  0.00    +0.000 NA
ATOM      5  C   UNL     1       6.000   3.768  12.228  0.00  0.00    +0.000 A 
ATOM      6  C   UNL     1       7.215   4.425  12.248  0.00  0.00    +0.000 A 
ATOM      7  N   UNL     1       7.722   4.973  13.376  0.00  0.00    +0.000 NA
ATOM      8  C   UNL     1       6.968   4.837  14.496  0.00  0.00    +0.000 A 
ATOM      9  C   UNL     1       7.555   5.313  15.788  0.00  0.00    +0.000 C 
ATOM     10  C   UNL     1       6.517   5.546  16.911  0.00  0.00    +0.000 C 
ENDROOT
BRANCH  10  11
ATOM     11  C   UNL     1       7.350   5.918  18.146  0.00  0.00    +0.000 C 
ATOM     12  O   UNL     1       7.552   7.078  18.512  0.00  0.00    +0.000 OA
ATOM     13  N   UNL     1       7.825   4.854  18.894  0.00  0.00    +0.000 N 
ATOM     14  H   UNL     1       8.224   4.062  18.391  0.00  0.00    +0.000 HD
BRANCH  13  15
ATOM     15  O   UNL     1       8.597   5.261  20.018  0.00  0.00    +0.000 OA
ATOM     16  H   UNL     1       9.020   6.093  19.699  0.00  0.00    +0.000 HD
ENDBRANCH  13  15
ENDBRANCH  10  11
BRANCH   1  17
ATOM     17  S   UNL     1       4.630   4.188  18.372  0.00  0.00    +0.000 S 
ATOM     18  O   UNL     1       5.413   3.596  19.433  0.00  0.00    +0.000 OA
ATOM     19  O   UNL     1       3.400   3.560  17.943  0.00  0.00    +0.000 OA
BRANCH  17  20
ATOM     20  C   UNL     1       4.286   5.904  18.748  0.00  0.00    +0.000 C 
BRANCH  20  21
ATOM     21  C   UNL     1       3.224   6.476  17.823  0.00  0.00    +0.000 C 
BRANCH  21  25
ATOM     22  C   UNL     1       0.898   9.434  19.959  0.00  0.00    +0.000 A 
ATOM     23  C   UNL     1       1.151   9.582  18.595  0.00  0.00    +0.000 A 
ATOM     24  C   UNL     1       1.880   8.615  17.897  0.00  0.00    +0.000 A 
ATOM     25  C   UNL     1       2.379   7.489  18.561  0.00  0.00    +0.000 A 
ATOM     26  C   UNL     1       2.134   7.351  19.933  0.00  0.00    +0.000 A 
ATOM     27  C   UNL     1       1.397   8.315  20.628  0.00  0.00    +0.000 A 
BRANCH  22  29
ATOM     28  C   UNL     1      -0.566  11.266  19.657  0.00  0.00    +0.000 C 
ATOM     29  O   UNL     1       0.199  10.455  20.542  0.00  0.00    +0.000 OA
ENDBRANCH  22  29
ENDBRANCH  21  25
ENDBRANCH  20  21
ENDBRANCH  17  20
ENDBRANCH   1  17
TORSDOF 7
ENDMDL
MODEL 7
REMARK VINA RESULT:      -7.4      1.294      2.996
REMARK  Name = 
REMARK  8 active torsions:
REMARK  status: ('A' for Active; 'I' for Inactive)
REMARK    1  A    between atoms: C_1  and  O_2
REMARK    2  A    between atoms: O_2  and  C_3
REMARK    3  A    between atoms: C_6  and  C_7
REMARK    4  A    between atoms: C_7  and  C_8
REMARK    5  A    between atoms: C_8  and  S_9
REMARK    6  A    between atoms: S_9  and  N_12
REMARK    7  A    between atoms: C_21  and  C_22
REMARK    8  A    between atoms: N_24  and  O_25
REMARK                            x       y       z     vdW  Elec       q    Type
REMARK                         _______ _______ _______ _____ _____    ______ ____
ROOT
ATOM      1  N   UNL     1       5.683   4.261  17.006  0.00  0.00    +0.000 NA
ATOM      2  C   UNL     1       4.966   3.993  15.710  0.00  0.00    +0.000 C 
ATOM      3  C   UNL     1       5.788   4.151  14.461  0.00  0.00    +0.000 A 
ATOM      4  N   UNL     1       5.296   3.610  13.314  0.00  0.00    +0.000 NA
ATOM      5  C   UNL     1       6.060   3.772  12.213  0.00  0.00    +0.000 A 
ATOM      6  C   UNL     1       7.255   4.465  12.242  0.00  0.00    +0.000 A 
ATOM      7  N   UNL     1       7.741   5.018  13.377  0.00  0.00    +0.000 NA
ATOM      8  C   UNL     1       6.987   4.850  14.493  0.00  0.00    +0.000 A 
ATOM      9  C   UNL     1       7.555   5.333  15.792  0.00  0.00    +0.000 C 
ATOM     10  C   UNL     1       6.506   5.525  16.912  0.00  0.00    +0.000 C 
ENDROOT
BRANCH  10  11
ATOM     11  C   UNL     1       7.323   5.912  18.154  0.00  0.00    +0.000 C 
ATOM     12  O   UNL     1       7.464   7.072  18.547  0.00  0.00    +0.000 OA
ATOM     13  N   UNL     1       7.857   4.857  18.874  0.00  0.00    +0.000 N 
ATOM     14  H   UNL     1       8.296   4.100  18.351  0.00  0.00    +0.000 HD
BRANCH  13  15
ATOM     15  O   UNL     1       8.611   5.278  20.005  0.00  0.00    +0.000 OA
ATOM     16  H   UNL     1       9.461   5.570  19.601  0.00  0.00    +0.000 HD
ENDBRANCH  13  15
ENDBRANCH  10  11
BRANCH   1  17
ATOM     17  S   UNL     1       4.655   4.100  18.354  0.00  0.00    +0.000 S 
ATOM     18  O   UNL     1       5.463   3.569  19.428  0.00  0.00    +0.000 OA
ATOM     19  O   UNL     1       3.467   3.396  17.926  0.00  0.00    +0.000 OA
BRANCH  17  20
ATOM     20  C   UNL     1       4.209   5.797  18.704  0.00  0.00    +0.000 C 
BRANCH  20  21
ATOM     21  C   UNL     1       2.917   5.882  19.501  0.00  0.00    +0.000 C 
BRANCH  21  25
ATOM     22  C   UNL     1       1.053   9.761  19.051  0.00  0.00    +0.000 A 
ATOM     23  C   UNL     1       1.050   9.113  20.287  0.00  0.00    +0.000 A 
ATOM     24  C   UNL     1       1.674   7.872  20.441  0.00  0.00    +0.000 A 
ATOM     25  C   UNL     1       2.301   7.254  19.353  0.00  0.00    +0.000 A 
ATOM     26  C   UNL     1       2.290   7.902  18.111  0.00  0.00    +0.000 A 
ATOM     27  C   UNL     1       1.672   9.148  17.961  0.00  0.00    +0.000 A 
BRANCH  22  29
ATOM     28  C   UNL     1       0.386  11.703  20.224  0.00  0.00    +0.000 C 
ATOM     29  O   UNL     1       0.389  10.956  19.012  0.00  0.00    +0.000 OA
ENDBRANCH  22  29
ENDBRANCH  21  25
ENDBRANCH  20  21
ENDBRANCH  17  20
ENDBRANCH   1  17
TORSDOF 7
ENDMDL
MODEL 8
REMARK VINA RESULT:      -7.2      4.550      6.531
REMARK  Name = 
REMARK  8 active torsions:
REMARK  status: ('A' for Active; 'I' for Inactive)
REMARK    1  A    between atoms: C_1  and  O_2
REMARK    2  A    between atoms: O_2  and  C_3
REMARK    3  A    between atoms: C_6  and  C_7
REMARK    4  A    between atoms: C_7  and  C_8
REMARK    5  A    between atoms: C_8  and  S_9
REMARK    6  A    between atoms: S_9  and  N_12
REMARK    7  A    between atoms: C_21  and  C_22
REMARK    8  A    between atoms: N_24  and  O_25
REMARK                            x       y       z     vdW  Elec       q    Type
REMARK                         _______ _______ _______ _____ _____    ______ ____
ROOT
ATOM      1  N   UNL     1       5.300   5.664  17.520  0.00  0.00    +0.000 NA
ATOM      2  C   UNL     1       3.907   5.373  17.029  0.00  0.00    +0.000 C 
ATOM      3  C   UNL     1       3.089   4.449  17.887  0.00  0.00    +0.000 A 
ATOM      4  N   UNL     1       1.746   4.419  17.672  0.00  0.00    +0.000 NA
ATOM      5  C   UNL     1       1.043   3.578  18.461  0.00  0.00    +0.000 A 
ATOM      6  C   UNL     1       1.651   2.779  19.409  0.00  0.00    +0.000 A 
ATOM      7  N   UNL     1       2.988   2.793  19.616  0.00  0.00    +0.000 NA
ATOM      8  C   UNL     1       3.703   3.645  18.838  0.00  0.00    +0.000 A 
ATOM      9  C   UNL     1       5.165   3.786  19.127  0.00  0.00    +0.000 C 
ATOM     10  C   UNL     1       5.987   4.394  17.967  0.00  0.00    +0.000 C 
ENDROOT
BRANCH  10  11
ATOM     11  C   UNL     1       7.410   4.539  18.526  0.00  0.00    +0.000 C 
ATOM     12  O   UNL     1       8.423   4.175  17.924  0.00  0.00    +0.000 OA
ATOM     13  N   UNL     1       7.513   5.178  19.750  0.00  0.00    +0.000 N 
ATOM     14  H   UNL     1       6.844   4.923  20.475  0.00  0.00    +0.000 HD
BRANCH  13  15
ATOM     15  O   UNL     1       8.853   5.272  20.220  0.00  0.00    +0.000 OA
ATOM     16  H   UNL     1       9.169   6.108  19.804  0.00  0.00    +0.000 HD
ENDBRANCH  13  15
ENDBRANCH  10  11
BRANCH   1  17
ATOM     17  S   UNL     1       6.158   6.680  16.456  0.00  0.00    +0.000 S 
ATOM     18  O   UNL     1       5.221   7.090  15.434  0.00  0.00    +0.000 OA
ATOM     19  O   UNL     1       7.382   6.006  16.087  0.00  0.00    +0.000 OA
BRANCH  17  20
ATOM     20  C   UNL     1       6.572   8.072  17.501  0.00  0.00    +0.000 C 
BRANCH  20  21
ATOM     21  C   UNL     1       8.053   8.090  17.846  0.00  0.00    +0.000 C 
BRANCH  21  25
ATOM     22  C   UNL     1       9.361  12.061  18.961  0.00  0.00    +0.000 A 
ATOM     23  C   UNL     1       8.568  11.868  17.829  0.00  0.00    +0.000 A 
ATOM     24  C   UNL     1       8.122  10.589  17.482  0.00  0.00    +0.000 A 
ATOM     25  C   UNL     1       8.477   9.481  18.258  0.00  0.00    +0.000 A 
ATOM     26  C   UNL     1       9.284   9.677  19.385  0.00  0.00    +0.000 A 
ATOM     27  C   UNL     1       9.722  10.958  19.736  0.00  0.00    +0.000 A 
BRANCH  22  29
ATOM     28  C   UNL     1      10.273  13.620  20.487  0.00  0.00    +0.000 C 
ATOM     29  O   UNL     1       9.759  13.349  19.187  0.00  0.00    +0.000 OA
ENDBRANCH  22  29
ENDBRANCH  21  25
ENDBRANCH  20  21
ENDBRANCH  17  20
ENDBRANCH   1  17
TORSDOF 7
ENDMDL
MODEL 9
REMARK VINA RESULT:      -7.1      1.384      3.250
REMARK  Name = 
REMARK  8 active torsions:
REMARK  status: ('A' for Active; 'I' for Inactive)
REMARK    1  A    between atoms: C_1  and  O_2
REMARK    2  A    between atoms: O_2  and  C_3
REMARK    3  A    between atoms: C_6  and  C_7
REMARK    4  A    between atoms: C_7  and  C_8
REMARK    5  A    between atoms: C_8  and  S_9
REMARK    6  A    between atoms: S_9  and  N_12
REMARK    7  A    between atoms: C_21  and  C_22
REMARK    8  A    between atoms: N_24  and  O_25
REMARK                            x       y       z     vdW  Elec       q    Type
REMARK                         _______ _______ _______ _____ _____    ______ ____
ROOT
ATOM      1  N   UNL     1       5.612   4.292  16.880  0.00  0.00    +0.000 NA
ATOM      2  C   UNL     1       4.817   4.057  15.623  0.00  0.00    +0.000 C 
ATOM      3  C   UNL     1       5.599   4.075  14.339  0.00  0.00    +0.000 A 
ATOM      4  N   UNL     1       5.004   3.550  13.235  0.00  0.00    +0.000 NA
ATOM      5  C   UNL     1       5.735   3.584  12.101  0.00  0.00    +0.000 A 
ATOM      6  C   UNL     1       6.999   4.139  12.057  0.00  0.00    +0.000 A 
ATOM      7  N   UNL     1       7.589   4.677  13.149  0.00  0.00    +0.000 NA
ATOM      8  C   UNL     1       6.868   4.637  14.298  0.00  0.00    +0.000 A 
ATOM      9  C   UNL     1       7.539   5.102  15.553  0.00  0.00    +0.000 C 
ATOM     10  C   UNL     1       6.564   5.452  16.702  0.00  0.00    +0.000 C 
ENDROOT
BRANCH  10  11
ATOM     11  C   UNL     1       7.469   5.791  17.896  0.00  0.00    +0.000 C 
ATOM     12  O   UNL     1       7.933   4.947  18.666  0.00  0.00    +0.000 OA
ATOM     13  N   UNL     1       7.806   7.127  18.034  0.00  0.00    +0.000 N 
ATOM     14  H   UNL     1       7.067   7.817  17.909  0.00  0.00    +0.000 HD
BRANCH  13  15
ATOM     15  O   UNL     1       8.636   7.379  19.162  0.00  0.00    +0.000 OA
ATOM     16  H   UNL     1       7.981   7.570  19.874  0.00  0.00    +0.000 HD
ENDBRANCH  13  15
ENDBRANCH  10  11
BRANCH   1  17
ATOM     17  S   UNL     1       4.628   4.298  18.271  0.00  0.00    +0.000 S 
ATOM     18  O   UNL     1       5.407   3.692  19.328  0.00  0.00    +0.000 OA
ATOM     19  O   UNL     1       3.343   3.743  17.909  0.00  0.00    +0.000 OA
BRANCH  17  20
ATOM     20  C   UNL     1       4.419   6.046  18.588  0.00  0.00    +0.000 C 
BRANCH  20  21
ATOM     21  C   UNL     1       3.291   6.634  17.756  0.00  0.00    +0.000 C 
BRANCH  21  25
ATOM     22  C   UNL     1       0.848   9.313  20.117  0.00  0.00    +0.000 A 
ATOM     23  C   UNL     1       1.407   8.172  20.693  0.00  0.00    +0.000 A 
ATOM     24  C   UNL     1       2.218   7.319  19.939  0.00  0.00    +0.000 A 
ATOM     25  C   UNL     1       2.470   7.590  18.590  0.00  0.00    +0.000 A 
ATOM     26  C   UNL     1       1.896   8.729  18.012  0.00  0.00    +0.000 A 
ATOM     27  C   UNL     1       1.091   9.587  18.771  0.00  0.00    +0.000 A 
BRANCH  22  29
ATOM     28  C   UNL     1      -0.285   9.457  22.188  0.00  0.00    +0.000 C 
ATOM     29  O   UNL     1       0.051  10.058  20.942  0.00  0.00    +0.000 OA
ENDBRANCH  22  29
ENDBRANCH  21  25
ENDBRANCH  20  21
ENDBRANCH  17  20
ENDBRANCH   1  17
TORSDOF 7
ENDMDL
