MODEL 1
REMARK VINA RESULT:      -7.5      0.000      0.000
REMARK  Name = 
REMARK  13 active torsions:
REMARK  status: ('A' for Active; 'I' for Inactive)
REMARK    1  A    between atoms: C_1  and  C_2
REMARK    2  A    between atoms: C_2  and  C_3
REMARK    3  A    between atoms: C_3  and  C_4
REMARK    4  A    between atoms: C_3  and  C_6
REMARK    5  A    between atoms: C_4  and  C_5
REMARK    6  A    between atoms: C_6  and  C_7
REMARK    7  A    between atoms: C_7  and  O_8
REMARK    8  A    between atoms: N_14  and  C_15
REMARK    9  A    between atoms: C_17  and  O_18
REMARK   10  A    between atoms: O_18  and  C_19
REMARK   11  A    between atoms: C_19  and  C_20
REMARK   12  A    between atoms: C_23  and  O_24
REMARK   13  A    between atoms: O_24  and  C_25
REMARK                            x       y       z     vdW  Elec       q    Type
REMARK                         _______ _______ _______ _____ _____    ______ ____
ROOT
ATOM      1  C   UNL     1       5.660   5.171  18.228  0.00  0.00    +0.000 C 
ATOM      2  C   UNL     1       5.488   6.369  17.270  0.00  0.00    +0.000 C 
ATOM      3  C   UNL     1       6.838   6.885  16.780  0.00  0.00    +0.000 C 
ATOM      4  N   UNL     1       7.690   7.236  17.909  0.00  0.00    +0.000 N 
ATOM      5  C   UNL     1       8.024   8.572  18.097  0.00  0.00    +0.000 C 
ATOM      6  O   UNL     1       7.529   9.467  17.414  0.00  0.00    +0.000 OA
ATOM      7  N   UNL     1       9.006   8.793  19.043  0.00  0.00    +0.000 N 
ATOM      8  C   UNL     1       7.940   6.133  18.840  0.00  0.00    +0.000 C 
ATOM      9  C   UNL     1       6.619   5.556  19.370  0.00  0.00    +0.000 C 
ATOM     10  H   UNL     1       9.694   8.057  19.064  0.00  0.00    +0.000 HD
ENDROOT
BRANCH   7  11
ATOM     11  C   UNL     1       9.486  10.090  19.343  0.00  0.00    +0.000 A 
ATOM     12  C   UNL     1      10.352  10.794  18.494  0.00  0.00    +0.000 A 
ATOM     13  C   UNL     1      10.835  12.061  18.851  0.00  0.00    +0.000 A 
ATOM     14  C   UNL     1      10.510  12.585  20.100  0.00  0.00    +0.000 A 
ATOM     15  C   UNL     1       9.677  11.870  20.958  0.00  0.00    +0.000 A 
ATOM     16  C   UNL     1       9.092  10.669  20.548  0.00  0.00    +0.000 A 
BRANCH  13  17
ATOM     17  O   UNL     1      11.621  12.673  17.909  0.00  0.00    +0.000 OA
BRANCH  17  18
ATOM     18  C   UNL     1      10.949  13.458  16.921  0.00  0.00    +0.000 C 
BRANCH  18  19
ATOM     19  C   UNL     1      11.391  14.905  17.040  0.00  0.00    +0.000 C 
ATOM     20  F   UNL     1      11.396  15.264  18.352  0.00  0.00    +0.000 F 
ENDBRANCH  18  19
ENDBRANCH  17  18
ENDBRANCH  13  17
BRANCH  15  21
ATOM     21  O   UNL     1       9.455  12.422  22.203  0.00  0.00    +0.000 OA
BRANCH  21  22
ATOM     22  C   UNL     1       8.185  12.865  22.517  0.00  0.00    +0.000 A 
ATOM     23  C   UNL     1       7.281  12.170  23.333  0.00  0.00    +0.000 A 
ATOM     24  C   UNL     1       5.997  12.678  23.540  0.00  0.00    +0.000 A 
ATOM     25  C   UNL     1       5.645  13.897  22.977  0.00  0.00    +0.000 A 
ATOM     26  F   UNL     1       4.408  14.378  23.166  0.00  0.00    +0.000 F 
ATOM     27  C   UNL     1       6.555  14.626  22.220  0.00  0.00    +0.000 A 
ATOM     28  C   UNL     1       7.831  14.110  21.991  0.00  0.00    +0.000 A 
ENDBRANCH  21  22
ENDBRANCH  15  21
ENDBRANCH   7  11
BRANCH   1  29
ATOM     29  O   UNL     1       6.261   4.108  17.486  0.00  0.00    +0.000 OA
ATOM     30  H   UNL     1       5.546   3.576  17.097  0.00  0.00    +0.000 HD
ENDBRANCH   1  29
BRANCH   1  31
ATOM     31  C   UNL     1       4.262   4.730  18.735  0.00  0.00    +0.000 C 
BRANCH  31  32
ATOM     32  C   UNL     1       3.810   3.253  18.536  0.00  0.00    +0.000 C 
BRANCH  32  34
ATOM     33  C   UNL     1       2.786   2.896  20.893  0.00  0.00    +0.000 C 
ATOM     34  C   UNL     1       3.895   2.535  19.911  0.00  0.00    +0.000 C 
ENDBRANCH  32  34
BRANCH  32  35
ATOM     35  C   UNL     1       2.431   3.073  17.868  0.00  0.00    +0.000 C 
ATOM     36  C   UNL     1       1.616   4.350  17.684  0.00  0.00    +0.000 C 
ENDBRANCH  32  35
ENDBRANCH  31  32
ENDBRANCH   1  31
TORSDOF 11
ENDMDL
MODEL 2
REMARK VINA RESULT:      -7.4      6.692     10.716
REMARK  Name = 
REMARK  13 active torsions:
REMARK  status: ('A' for Active; 'I' for Inactive)
REMARK    1  A    between atoms: C_1  and  C_2
REMARK    2  A    between atoms: C_2  and  C_3
REMARK    3  A    between atoms: C_3  and  C_4
REMARK    4  A    between atoms: C_3  and  C_6
REMARK    5  A    between atoms: C_4  and  C_5
REMARK    6  A    between atoms: C_6  and  C_7
REMARK    7  A    between atoms: C_7  and  O_8
REMARK    8  A    between atoms: N_14  and  C_15
REMARK    9  A    between atoms: C_17  and  O_18
REMARK   10  A    between atoms: O_18  and  C_19
REMARK   11  A    between atoms: C_19  and  C_20
REMARK   12  A    between atoms: C_23  and  O_24
REMARK   13  A    between atoms: O_24  and  C_25
REMARK                            x       y       z     vdW  Elec       q    Type
REMARK                         _______ _______ _______ _____ _____    ______ ____
ROOT
ATOM      1  C   UNL     1      -1.237  11.237  18.532  0.00  0.00    +0.000 C 
ATOM      2  C   UNL     1      -0.828  10.961  19.996  0.00  0.00    +0.000 C 
ATOM      3  C   UNL     1       0.674  10.726  20.117  0.00  0.00    +0.000 C 
ATOM      4  N   UNL     1       1.092   9.636  19.243  0.00  0.00    +0.000 N 
ATOM      5  C   UNL     1       1.558   8.463  19.824  0.00  0.00    +0.000 C 
ATOM      6  O   UNL     1       1.516   8.279  21.039  0.00  0.00    +0.000 OA
ATOM      7  N   UNL     1       2.139   7.574  18.941  0.00  0.00    +0.000 N 
ATOM      8  C   UNL     1       0.782   9.848  17.828  0.00  0.00    +0.000 C 
ATOM      9  C   UNL     1      -0.721  10.101  17.630  0.00  0.00    +0.000 C 
ATOM     10  H   UNL     1       2.631   8.038  18.193  0.00  0.00    +0.000 HD
ENDROOT
BRANCH   7  11
ATOM     11  C   UNL     1       2.690   6.341  19.364  0.00  0.00    +0.000 A 
ATOM     12  C   UNL     1       2.133   5.578  20.400  0.00  0.00    +0.000 A 
ATOM     13  C   UNL     1       2.737   4.382  20.815  0.00  0.00    +0.000 A 
ATOM     14  C   UNL     1       3.944   3.994  20.239  0.00  0.00    +0.000 A 
ATOM     15  C   UNL     1       4.515   4.771  19.234  0.00  0.00    +0.000 A 
ATOM     16  C   UNL     1       3.848   5.892  18.731  0.00  0.00    +0.000 A 
BRANCH  13  17
ATOM     17  O   UNL     1       2.062   3.695  21.791  0.00  0.00    +0.000 OA
BRANCH  17  18
ATOM     18  C   UNL     1       1.612   2.379  21.460  0.00  0.00    +0.000 C 
BRANCH  18  19
ATOM     19  C   UNL     1       1.383   2.287  19.962  0.00  0.00    +0.000 C 
ATOM     20  F   UNL     1       0.172   2.826  19.660  0.00  0.00    +0.000 F 
ENDBRANCH  18  19
ENDBRANCH  17  18
ENDBRANCH  13  17
BRANCH  15  21
ATOM     21  O   UNL     1       5.744   4.360  18.760  0.00  0.00    +0.000 OA
BRANCH  21  22
ATOM     22  C   UNL     1       5.992   4.432  17.403  0.00  0.00    +0.000 A 
ATOM     23  C   UNL     1       5.199   3.828  16.418  0.00  0.00    +0.000 A 
ATOM     24  C   UNL     1       5.571   3.913  15.075  0.00  0.00    +0.000 A 
ATOM     25  C   UNL     1       6.697   4.644  14.722  0.00  0.00    +0.000 A 
ATOM     26  F   UNL     1       7.062   4.716  13.434  0.00  0.00    +0.000 F 
ATOM     27  C   UNL     1       7.454   5.303  15.684  0.00  0.00    +0.000 A 
ATOM     28  C   UNL     1       7.099   5.200  17.030  0.00  0.00    +0.000 A 
ENDBRANCH  21  22
ENDBRANCH  15  21
ENDBRANCH   7  11
BRANCH   1  29
ATOM     29  O   UNL     1      -0.596  12.448  18.128  0.00  0.00    +0.000 OA
ATOM     30  H   UNL     1      -0.560  13.038  18.900  0.00  0.00    +0.000 HD
ENDBRANCH   1  29
BRANCH   1  31
ATOM     31  C   UNL     1      -2.776  11.412  18.466  0.00  0.00    +0.000 C 
BRANCH  31  32
ATOM     32  C   UNL     1      -3.556  10.839  17.247  0.00  0.00    +0.000 C 
BRANCH  32  34
ATOM     33  C   UNL     1      -5.850  10.730  18.454  0.00  0.00    +0.000 C 
ATOM     34  C   UNL     1      -5.022  11.346  17.332  0.00  0.00    +0.000 C 
ENDBRANCH  32  34
BRANCH  32  35
ATOM     35  C   UNL     1      -2.920  11.122  15.869  0.00  0.00    +0.000 C 
ATOM     36  C   UNL     1      -3.351  10.189  14.740  0.00  0.00    +0.000 C 
ENDBRANCH  32  35
ENDBRANCH  31  32
ENDBRANCH   1  31
TORSDOF 11
ENDMDL
MODEL 3
REMARK VINA RESULT:      -7.2      1.325      1.920
REMARK  Name = 
REMARK  13 active torsions:
REMARK  status: ('A' for Active; 'I' for Inactive)
REMARK    1  A    between atoms: C_1  and  C_2
REMARK    2  A    between atoms: C_2  and  C_3
REMARK    3  A    between atoms: C_3  and  C_4
REMARK    4  A    between atoms: C_3  and  C_6
REMARK    5  A    between atoms: C_4  and  C_5
REMARK    6  A    between atoms: C_6  and  C_7
REMARK    7  A    between atoms: C_7  and  O_8
REMARK    8  A    between atoms: N_14  and  C_15
REMARK    9  A    between atoms: C_17  and  O_18
REMARK   10  A    between atoms: O_18  and  C_19
REMARK   11  A    between atoms: C_19  and  C_20
REMARK   12  A    between atoms: C_23  and  O_24
REMARK   13  A    between atoms: O_24  and  C_25
REMARK                            x       y       z     vdW  Elec       q    Type
REMARK                         _______ _______ _______ _____ _____    ______ ____
ROOT
ATOM      1  C   UNL     1       5.666   4.915  18.269  0.00  0.00    +0.000 C 
ATOM      2  C   UNL     1       5.736   5.883  17.068  0.00  0.00    +0.000 C 
ATOM      3  C   UNL     1       7.171   6.328  16.799  0.00  0.00    +0.000 C 
ATOM      4  N   UNL     1       7.751   6.931  17.993  0.00  0.00    +0.000 N 
ATOM      5  C   UNL     1       8.056   8.287  17.968  0.00  0.00    +0.000 C 
ATOM      6  O   UNL     1       7.745   9.006  17.020  0.00  0.00    +0.000 OA
ATOM      7  N   UNL     1       8.802   8.729  19.043  0.00  0.00    +0.000 N 
ATOM      8  C   UNL     1       7.765   6.052  19.164  0.00  0.00    +0.000 C 
ATOM      9  C   UNL     1       6.348   5.557  19.491  0.00  0.00    +0.000 C 
ATOM     10  H   UNL     1       9.454   8.035  19.372  0.00  0.00    +0.000 HD
ENDROOT
BRANCH   7  11
ATOM     11  C   UNL     1       9.223  10.074  19.167  0.00  0.00    +0.000 A 
ATOM     12  C   UNL     1       9.688  10.826  18.079  0.00  0.00    +0.000 A 
ATOM     13  C   UNL     1      10.135  12.144  18.256  0.00  0.00    +0.000 A 
ATOM     14  C   UNL     1      10.188  12.678  19.541  0.00  0.00    +0.000 A 
ATOM     15  C   UNL     1       9.759  11.917  20.626  0.00  0.00    +0.000 A 
ATOM     16  C   UNL     1       9.192  10.654  20.435  0.00  0.00    +0.000 A 
BRANCH  13  17
ATOM     17  O   UNL     1      10.503  12.795  17.106  0.00  0.00    +0.000 OA
BRANCH  17  18
ATOM     18  C   UNL     1      11.707  13.563  17.158  0.00  0.00    +0.000 C 
BRANCH  18  19
ATOM     19  C   UNL     1      11.376  15.033  16.973  0.00  0.00    +0.000 C 
ATOM     20  F   UNL     1      11.894  15.742  18.012  0.00  0.00    +0.000 F 
ENDBRANCH  18  19
ENDBRANCH  17  18
ENDBRANCH  13  17
BRANCH  15  21
ATOM     21  O   UNL     1       9.905  12.488  21.875  0.00  0.00    +0.000 OA
BRANCH  21  22
ATOM     22  C   UNL     1       9.237  13.665  22.149  0.00  0.00    +0.000 A 
ATOM     23  C   UNL     1       9.860  14.905  22.344  0.00  0.00    +0.000 A 
ATOM     24  C   UNL     1       9.096  16.025  22.676  0.00  0.00    +0.000 A 
ATOM     25  C   UNL     1       7.715  15.911  22.757  0.00  0.00    +0.000 A 
ATOM     26  F   UNL     1       6.981  16.983  23.087  0.00  0.00    +0.000 F 
ATOM     27  C   UNL     1       7.080  14.701  22.500  0.00  0.00    +0.000 A 
ATOM     28  C   UNL     1       7.843  13.574  22.193  0.00  0.00    +0.000 A 
ENDBRANCH  21  22
ENDBRANCH  15  21
ENDBRANCH   7  11
BRANCH   1  29
ATOM     29  O   UNL     1       6.402   3.741  17.919  0.00  0.00    +0.000 OA
ATOM     30  H   UNL     1       7.089   3.610  18.595  0.00  0.00    +0.000 HD
ENDBRANCH   1  29
BRANCH   1  31
ATOM     31  C   UNL     1       4.183   4.545  18.528  0.00  0.00    +0.000 C 
BRANCH  31  32
ATOM     32  C   UNL     1       3.059   5.481  17.994  0.00  0.00    +0.000 C 
BRANCH  32  34
ATOM     33  C   UNL     1       1.985   3.123  17.868  0.00  0.00    +0.000 C 
ATOM     34  C   UNL     1       1.772   4.632  17.809  0.00  0.00    +0.000 C 
ENDBRANCH  32  34
BRANCH  32  35
ATOM     35  C   UNL     1       2.805   6.748  18.839  0.00  0.00    +0.000 C 
ATOM     36  C   UNL     1       2.086   7.886  18.120  0.00  0.00    +0.000 C 
ENDBRANCH  32  35
ENDBRANCH  31  32
ENDBRANCH   1  31
TORSDOF 11
ENDMDL
MODEL 4
REMARK VINA RESULT:      -7.1      6.804     10.026
REMARK  Name = 
REMARK  13 active torsions:
REMARK  status: ('A' for Active; 'I' for Inactive)
REMARK    1  A    between atoms: C_1  and  C_2
REMARK    2  A    between atoms: C_2  and  C_3
REMARK    3  A    between atoms: C_3  and  C_4
REMARK    4  A    between atoms: C_3  and  C_6
REMARK    5  A    between atoms: C_4  and  C_5
REMARK    6  A    between atoms: C_6  and  C_7
REMARK    7  A    between atoms: C_7  and  O_8
REMARK    8  A    between atoms: N_14  and  C_15
REMARK    9  A    between atoms: C_17  and  O_18
REMARK   10  A    between atoms: O_18  and  C_19
REMARK   11  A    between atoms: C_19  and  C_20
REMARK   12  A    between atoms: C_23  and  O_24
REMARK   13  A    between atoms: O_24  and  C_25
REMARK                            x       y       z     vdW  Elec       q    Type
REMARK                         _______ _______ _______ _____ _____    ______ ____
ROOT
ATOM      1  C   UNL     1      -0.641  10.408  19.448  0.00  0.00    +0.000 C 
ATOM      2  C   UNL     1      -0.249   9.236  20.374  0.00  0.00    +0.000 C 
ATOM      3  C   UNL     1       1.266   9.093  20.477  0.00  0.00    +0.000 C 
ATOM      4  N   UNL     1       1.855   8.933  19.153  0.00  0.00    +0.000 N 
ATOM      5  C   UNL     1       2.453   7.719  18.836  0.00  0.00    +0.000 C 
ATOM      6  O   UNL     1       2.395   6.750  19.593  0.00  0.00    +0.000 OA
ATOM      7  N   UNL     1       3.177   7.722  17.661  0.00  0.00    +0.000 N 
ATOM      8  C   UNL     1       1.568  10.033  18.230  0.00  0.00    +0.000 C 
ATOM      9  C   UNL     1       0.053  10.241  18.083  0.00  0.00    +0.000 C 
ATOM     10  H   UNL     1       3.627   8.607  17.487  0.00  0.00    +0.000 HD
ENDROOT
BRANCH   7  11
ATOM     11  C   UNL     1       3.872   6.579  17.199  0.00  0.00    +0.000 A 
ATOM     12  C   UNL     1       4.818   6.633  16.166  0.00  0.00    +0.000 A 
ATOM     13  C   UNL     1       5.453   5.467  15.713  0.00  0.00    +0.000 A 
ATOM     14  C   UNL     1       5.077   4.236  16.246  0.00  0.00    +0.000 A 
ATOM     15  C   UNL     1       4.111   4.181  17.248  0.00  0.00    +0.000 A 
ATOM     16  C   UNL     1       3.575   5.352  17.790  0.00  0.00    +0.000 A 
BRANCH  13  17
ATOM     17  O   UNL     1       6.405   5.659  14.745  0.00  0.00    +0.000 OA
BRANCH  17  18
ATOM     18  C   UNL     1       7.150   4.509  14.336  0.00  0.00    +0.000 C 
BRANCH  18  19
ATOM     19  C   UNL     1       6.654   4.043  12.980  0.00  0.00    +0.000 C 
ATOM     20  F   UNL     1       7.475   4.529  12.011  0.00  0.00    +0.000 F 
ENDBRANCH  18  19
ENDBRANCH  17  18
ENDBRANCH  13  17
BRANCH  15  21
ATOM     21  O   UNL     1       3.742   2.922  17.678  0.00  0.00    +0.000 OA
BRANCH  21  22
ATOM     22  C   UNL     1       2.942   2.811  18.800  0.00  0.00    +0.000 A 
ATOM     23  C   UNL     1       1.541   2.826  18.780  0.00  0.00    +0.000 A 
ATOM     24  C   UNL     1       0.826   2.766  19.978  0.00  0.00    +0.000 A 
ATOM     25  C   UNL     1       1.512   2.637  21.178  0.00  0.00    +0.000 A 
ATOM     26  F   UNL     1       0.827   2.592  22.329  0.00  0.00    +0.000 F 
ATOM     27  C   UNL     1       2.900   2.554  21.204  0.00  0.00    +0.000 A 
ATOM     28  C   UNL     1       3.618   2.639  20.011  0.00  0.00    +0.000 A 
ENDBRANCH  21  22
ENDBRANCH  15  21
ENDBRANCH   7  11
BRANCH   1  29
ATOM     29  O   UNL     1      -0.154  11.611  20.045  0.00  0.00    +0.000 OA
ATOM     30  H   UNL     1       0.612  11.911  19.526  0.00  0.00    +0.000 HD
ENDBRANCH   1  29
BRANCH   1  31
ATOM     31  C   UNL     1      -2.186  10.466  19.339  0.00  0.00    +0.000 C 
BRANCH  31  32
ATOM     32  C   UNL     1      -2.848  11.563  18.454  0.00  0.00    +0.000 C 
BRANCH  32  34
ATOM     33  C   UNL     1      -4.964  11.764  16.967  0.00  0.00    +0.000 C 
ATOM     34  C   UNL     1      -3.850  10.866  17.493  0.00  0.00    +0.000 C 
ENDBRANCH  32  34
BRANCH  32  35
ATOM     35  C   UNL     1      -3.497  12.729  19.230  0.00  0.00    +0.000 C 
ATOM     36  C   UNL     1      -4.315  12.331  20.454  0.00  0.00    +0.000 C 
ENDBRANCH  32  35
ENDBRANCH  31  32
ENDBRANCH   1  31
TORSDOF 11
ENDMDL
MODEL 5
REMARK VINA RESULT:      -7.0      1.190      1.462
REMARK  Name = 
REMARK  13 active torsions:
REMARK  status: ('A' for Active; 'I' for Inactive)
REMARK    1  A    between atoms: C_1  and  C_2
REMARK    2  A    between atoms: C_2  and  C_3
REMARK    3  A    between atoms: C_3  and  C_4
REMARK    4  A    between atoms: C_3  and  C_6
REMARK    5  A    between atoms: C_4  and  C_5
REMARK    6  A    between atoms: C_6  and  C_7
REMARK    7  A    between atoms: C_7  and  O_8
REMARK    8  A    between atoms: N_14  and  C_15
REMARK    9  A    between atoms: C_17  and  O_18
REMARK   10  A    between atoms: O_18  and  C_19
REMARK   11  A    between atoms: C_19  and  C_20
REMARK   12  A    between atoms: C_23  and  O_24
REMARK   13  A    between atoms: O_24  and  C_25
REMARK                            x       y       z     vdW  Elec       q    Type
REMARK                         _______ _______ _______ _____ _____    ______ ____
ROOT
ATOM      1  C   UNL     1       5.974   5.036  17.930  0.00  0.00    +0.000 C 
ATOM      2  C   UNL     1       5.900   6.165  16.880  0.00  0.00    +0.000 C 
ATOM      3  C   UNL     1       7.277   6.763  16.610  0.00  0.00    +0.000 C 
ATOM      4  N   UNL     1       7.878   7.240  17.850  0.00  0.00    +0.000 N 
ATOM      5  C   UNL     1       8.076   8.607  18.007  0.00  0.00    +0.000 C 
ATOM      6  O   UNL     1       7.655   9.422  17.188  0.00  0.00    +0.000 OA
ATOM      7  N   UNL     1       8.846   8.956  19.099  0.00  0.00    +0.000 N 
ATOM      8  C   UNL     1       8.028   6.211  18.881  0.00  0.00    +0.000 C 
ATOM      9  C   UNL     1       6.675   5.557  19.199  0.00  0.00    +0.000 C 
ATOM     10  H   UNL     1       9.568   8.281  19.294  0.00  0.00    +0.000 HD
ENDROOT
BRANCH   7  11
ATOM     11  C   UNL     1       9.169  10.302  19.395  0.00  0.00    +0.000 A 
ATOM     12  C   UNL     1       9.541  11.227  18.410  0.00  0.00    +0.000 A 
ATOM     13  C   UNL     1       9.892  12.540  18.754  0.00  0.00    +0.000 A 
ATOM     14  C   UNL     1       9.946  12.900  20.099  0.00  0.00    +0.000 A 
ATOM     15  C   UNL     1       9.610  11.969  21.080  0.00  0.00    +0.000 A 
ATOM     16  C   UNL     1       9.135  10.702  20.730  0.00  0.00    +0.000 A 
BRANCH  13  17
ATOM     17  O   UNL     1      10.173  13.366  17.696  0.00  0.00    +0.000 OA
BRANCH  17  18
ATOM     18  C   UNL     1      10.646  14.678  18.011  0.00  0.00    +0.000 C 
BRANCH  18  19
ATOM     19  C   UNL     1      11.561  15.164  16.900  0.00  0.00    +0.000 C 
ATOM     20  F   UNL     1      10.854  15.958  16.053  0.00  0.00    +0.000 F 
ENDBRANCH  18  19
ENDBRANCH  17  18
ENDBRANCH  13  17
BRANCH  15  21
ATOM     21  O   UNL     1       9.753  12.377  22.390  0.00  0.00    +0.000 OA
BRANCH  21  22
ATOM     22  C   UNL     1       8.617  12.588  23.148  0.00  0.00    +0.000 A 
ATOM     23  C   UNL     1       7.959  11.594  23.885  0.00  0.00    +0.000 A 
ATOM     24  C   UNL     1       6.782  11.899  24.571  0.00  0.00    +0.000 A 
ATOM     25  C   UNL     1       6.303  13.202  24.562  0.00  0.00    +0.000 A 
ATOM     26  F   UNL     1       5.167  13.493  25.211  0.00  0.00    +0.000 F 
ATOM     27  C   UNL     1       6.985  14.211  23.890  0.00  0.00    +0.000 A 
ATOM     28  C   UNL     1       8.147  13.904  23.182  0.00  0.00    +0.000 A 
ENDBRANCH  21  22
ENDBRANCH  15  21
ENDBRANCH   7  11
BRANCH   1  29
ATOM     29  O   UNL     1       6.777   3.989  17.381  0.00  0.00    +0.000 OA
ATOM     30  H   UNL     1       7.250   3.562  18.116  0.00  0.00    +0.000 HD
ENDBRANCH   1  29
BRANCH   1  31
ATOM     31  C   UNL     1       4.542   4.509  18.201  0.00  0.00    +0.000 C 
BRANCH  31  32
ATOM     32  C   UNL     1       4.164   4.030  19.634  0.00  0.00    +0.000 C 
BRANCH  32  34
ATOM     33  C   UNL     1       2.675   6.154  19.624  0.00  0.00    +0.000 C 
ATOM     34  C   UNL     1       2.812   4.688  20.021  0.00  0.00    +0.000 C 
ENDBRANCH  32  34
BRANCH  32  35
ATOM     35  C   UNL     1       4.145   2.498  19.830  0.00  0.00    +0.000 C 
ATOM     36  C   UNL     1       3.562   1.693  18.672  0.00  0.00    +0.000 C 
ENDBRANCH  32  35
ENDBRANCH  31  32
ENDBRANCH   1  31
TORSDOF 11
ENDMDL
MODEL 6
REMARK VINA RESULT:      -7.0      1.156      1.648
REMARK  Name = 
REMARK  13 active torsions:
REMARK  status: ('A' for Active; 'I' for Inactive)
REMARK    1  A    between atoms: C_1  and  C_2
REMARK    2  A    between atoms: C_2  and  C_3
REMARK    3  A    between atoms: C_3  and  C_4
REMARK    4  A    between atoms: C_3  and  C_6
REMARK    5  A    between atoms: C_4  and  C_5
REMARK    6  A    between atoms: C_6  and  C_7
REMARK    7  A    between atoms: C_7  and  O_8
REMARK    8  A    between atoms: N_14  and  C_15
REMARK    9  A    between atoms: C_17  and  O_18
REMARK   10  A    between atoms: O_18  and  C_19
REMARK   11  A    between atoms: C_19  and  C_20
REMARK   12  A    between atoms: C_23  and  O_24
REMARK   13  A    between atoms: O_24  and  C_25
REMARK                            x       y       z     vdW  Elec       q    Type
REMARK                         _______ _______ _______ _____ _____    ______ ____
ROOT
ATOM      1  C   UNL     1       5.888   5.169  18.340  0.00  0.00    +0.000 C 
ATOM      2  C   UNL     1       5.631   6.371  17.406  0.00  0.00    +0.000 C 
ATOM      3  C   UNL     1       6.939   6.964  16.892  0.00  0.00    +0.000 C 
ATOM      4  N   UNL     1       7.800   7.342  18.005  0.00  0.00    +0.000 N 
ATOM      5  C   UNL     1       8.068   8.691  18.207  0.00  0.00    +0.000 C 
ATOM      6  O   UNL     1       7.511   9.569  17.550  0.00  0.00    +0.000 OA
ATOM      7  N   UNL     1       9.061   8.949  19.132  0.00  0.00    +0.000 N 
ATOM      8  C   UNL     1       8.130   6.240  18.912  0.00  0.00    +0.000 C 
ATOM      9  C   UNL     1       6.855   5.587  19.465  0.00  0.00    +0.000 C 
ATOM     10  H   UNL     1       9.786   8.250  19.125  0.00  0.00    +0.000 HD
ENDROOT
BRANCH   7  11
ATOM     11  C   UNL     1       9.480  10.265  19.441  0.00  0.00    +0.000 A 
ATOM     12  C   UNL     1      10.237  11.047  18.558  0.00  0.00    +0.000 A 
ATOM     13  C   UNL     1      10.666  12.332  18.923  0.00  0.00    +0.000 A 
ATOM     14  C   UNL     1      10.399  12.798  20.209  0.00  0.00    +0.000 A 
ATOM     15  C   UNL     1       9.676  12.006  21.098  0.00  0.00    +0.000 A 
ATOM     16  C   UNL     1       9.138  10.782  20.690  0.00  0.00    +0.000 A 
BRANCH  13  17
ATOM     17  O   UNL     1      11.343  13.020  17.950  0.00  0.00    +0.000 OA
BRANCH  17  18
ATOM     18  C   UNL     1      11.027  14.407  17.804  0.00  0.00    +0.000 C 
BRANCH  18  19
ATOM     19  C   UNL     1       9.532  14.564  17.588  0.00  0.00    +0.000 C 
ATOM     20  F   UNL     1       9.203  15.880  17.684  0.00  0.00    +0.000 F 
ENDBRANCH  18  19
ENDBRANCH  17  18
ENDBRANCH  13  17
BRANCH  15  21
ATOM     21  O   UNL     1       9.510  12.506  22.373  0.00  0.00    +0.000 OA
BRANCH  21  22
ATOM     22  C   UNL     1       8.578  13.505  22.579  0.00  0.00    +0.000 A 
ATOM     23  C   UNL     1       7.209  13.381  22.307  0.00  0.00    +0.000 A 
ATOM     24  C   UNL     1       6.359  14.473  22.496  0.00  0.00    +0.000 A 
ATOM     25  C   UNL     1       6.872  15.659  23.005  0.00  0.00    +0.000 A 
ATOM     26  F   UNL     1       6.059  16.711  23.175  0.00  0.00    +0.000 F 
ATOM     27  C   UNL     1       8.216  15.772  23.341  0.00  0.00    +0.000 A 
ATOM     28  C   UNL     1       9.073  14.691  23.130  0.00  0.00    +0.000 A 
ENDBRANCH  21  22
ENDBRANCH  15  21
ENDBRANCH   7  11
BRANCH   1  29
ATOM     29  O   UNL     1       6.526   4.151  17.567  0.00  0.00    +0.000 OA
ATOM     30  H   UNL     1       7.090   4.589  16.906  0.00  0.00    +0.000 HD
ENDBRANCH   1  29
BRANCH   1  31
ATOM     31  C   UNL     1       4.529   4.648  18.873  0.00  0.00    +0.000 C 
BRANCH  31  32
ATOM     32  C   UNL     1       3.239   5.481  18.616  0.00  0.00    +0.000 C 
BRANCH  32  34
ATOM     33  C   UNL     1       2.817   3.257  17.350  0.00  0.00    +0.000 C 
ATOM     34  C   UNL     1       2.302   4.649  17.699  0.00  0.00    +0.000 C 
ENDBRANCH  32  34
BRANCH  32  35
ATOM     35  C   UNL     1       2.518   5.982  19.886  0.00  0.00    +0.000 C 
ATOM     36  C   UNL     1       1.602   4.969  20.566  0.00  0.00    +0.000 C 
ENDBRANCH  32  35
ENDBRANCH  31  32
ENDBRANCH   1  31
TORSDOF 11
ENDMDL
MODEL 7
REMARK VINA RESULT:      -6.9      6.953      9.285
REMARK  Name = 
REMARK  13 active torsions:
REMARK  status: ('A' for Active; 'I' for Inactive)
REMARK    1  A    between atoms: C_1  and  C_2
REMARK    2  A    between atoms: C_2  and  C_3
REMARK    3  A    between atoms: C_3  and  C_4
REMARK    4  A    between atoms: C_3  and  C_6
REMARK    5  A    between atoms: C_4  and  C_5
REMARK    6  A    between atoms: C_6  and  C_7
REMARK    7  A    between atoms: C_7  and  O_8
REMARK    8  A    between atoms: N_14  and  C_15
REMARK    9  A    between atoms: C_17  and  O_18
REMARK   10  A    between atoms: O_18  and  C_19
REMARK   11  A    between atoms: C_19  and  C_20
REMARK   12  A    between atoms: C_23  and  O_24
REMARK   13  A    between atoms: O_24  and  C_25
REMARK                            x       y       z     vdW  Elec       q    Type
REMARK                         _______ _______ _______ _____ _____    ______ ____
ROOT
ATOM      1  C   UNL     1       3.949   5.412  17.545  0.00  0.00    +0.000 C 
ATOM      2  C   UNL     1       4.303   6.812  16.996  0.00  0.00    +0.000 C 
ATOM      3  C   UNL     1       4.063   7.895  18.044  0.00  0.00    +0.000 C 
ATOM      4  N   UNL     1       2.685   7.851  18.517  0.00  0.00    +0.000 N 
ATOM      5  C   UNL     1       1.848   8.920  18.220  0.00  0.00    +0.000 C 
ATOM      6  O   UNL     1       2.203   9.836  17.478  0.00  0.00    +0.000 OA
ATOM      7  N   UNL     1       0.639   8.909  18.887  0.00  0.00    +0.000 N 
ATOM      8  C   UNL     1       2.289   6.567  19.098  0.00  0.00    +0.000 C 
ATOM      9  C   UNL     1       2.511   5.423  18.097  0.00  0.00    +0.000 C 
ATOM     10  H   UNL     1       0.714   8.525  19.815  0.00  0.00    +0.000 HD
ENDROOT
BRANCH   7  11
ATOM     11  C   UNL     1      -0.323   9.935  18.723  0.00  0.00    +0.000 A 
ATOM     12  C   UNL     1      -1.096  10.070  17.561  0.00  0.00    +0.000 A 
ATOM     13  C   UNL     1      -2.008  11.127  17.426  0.00  0.00    +0.000 A 
ATOM     14  C   UNL     1      -2.084  12.093  18.427  0.00  0.00    +0.000 A 
ATOM     15  C   UNL     1      -1.290  11.976  19.565  0.00  0.00    +0.000 A 
ATOM     16  C   UNL     1      -0.478  10.855  19.759  0.00  0.00    +0.000 A 
BRANCH  13  17
ATOM     17  O   UNL     1      -2.750  11.113  16.273  0.00  0.00    +0.000 OA
BRANCH  17  18
ATOM     18  C   UNL     1      -2.857   9.862  15.590  0.00  0.00    +0.000 C 
BRANCH  18  19
ATOM     19  C   UNL     1      -3.478  10.084  14.223  0.00  0.00    +0.000 C 
ATOM     20  F   UNL     1      -2.576   9.745  13.263  0.00  0.00    +0.000 F 
ENDBRANCH  18  19
ENDBRANCH  17  18
ENDBRANCH  13  17
BRANCH  15  21
ATOM     21  O   UNL     1      -1.371  13.005  20.481  0.00  0.00    +0.000 OA
BRANCH  21  22
ATOM     22  C   UNL     1      -2.296  12.914  21.504  0.00  0.00    +0.000 A 
ATOM     23  C   UNL     1      -2.085  12.225  22.706  0.00  0.00    +0.000 A 
ATOM     24  C   UNL     1      -3.108  12.144  23.652  0.00  0.00    +0.000 A 
ATOM     25  C   UNL     1      -4.312  12.794  23.414  0.00  0.00    +0.000 A 
ATOM     26  F   UNL     1      -5.299  12.707  24.317  0.00  0.00    +0.000 F 
ATOM     27  C   UNL     1      -4.509  13.536  22.255  0.00  0.00    +0.000 A 
ATOM     28  C   UNL     1      -3.496  13.598  21.296  0.00  0.00    +0.000 A 
ENDBRANCH  21  22
ENDBRANCH  15  21
ENDBRANCH   7  11
BRANCH   1  29
ATOM     29  O   UNL     1       4.836   5.138  18.631  0.00  0.00    +0.000 OA
ATOM     30  H   UNL     1       4.297   4.871  19.395  0.00  0.00    +0.000 HD
ENDBRANCH   1  29
BRANCH   1  31
ATOM     31  C   UNL     1       4.159   4.366  16.421  0.00  0.00    +0.000 C 
BRANCH  31  32
ATOM     32  C   UNL     1       5.339   4.546  15.421  0.00  0.00    +0.000 C 
BRANCH  32  34
ATOM     33  C   UNL     1       7.501   4.549  16.855  0.00  0.00    +0.000 C 
ATOM     34  C   UNL     1       6.556   3.749  15.965  0.00  0.00    +0.000 C 
ENDBRANCH  32  34
BRANCH  32  35
ATOM     35  C   UNL     1       5.016   4.190  13.954  0.00  0.00    +0.000 C 
ATOM     36  C   UNL     1       6.183   3.642  13.137  0.00  0.00    +0.000 C 
ENDBRANCH  32  35
ENDBRANCH  31  32
ENDBRANCH   1  31
TORSDOF 11
ENDMDL
MODEL 8
REMARK VINA RESULT:      -6.8      1.393      4.339
REMARK  Name = 
REMARK  13 active torsions:
REMARK  status: ('A' for Active; 'I' for Inactive)
REMARK    1  A    between atoms: C_1  and  C_2
REMARK    2  A    between atoms: C_2  and  C_3
REMARK    3  A    between atoms: C_3  and  C_4
REMARK    4  A    between atoms: C_3  and  C_6
REMARK    5  A    between atoms: C_4  and  C_5
REMARK    6  A    between atoms: C_6  and  C_7
REMARK    7  A    between atoms: C_7  and  O_8
REMARK    8  A    between atoms: N_14  and  C_15
REMARK    9  A    between atoms: C_17  and  O_18
REMARK   10  A    between atoms: O_18  and  C_19
REMARK   11  A    between atoms: C_19  and  C_20
REMARK   12  A    between atoms: C_23  and  O_24
REMARK   13  A    between atoms: O_24  and  C_25
REMARK                            x       y       z     vdW  Elec       q    Type
REMARK                         _______ _______ _______ _____ _____    ______ ____
ROOT
ATOM      1  C   UNL     1       5.548   5.051  18.054  0.00  0.00    +0.000 C 
ATOM      2  C   UNL     1       5.504   6.180  17.001  0.00  0.00    +0.000 C 
ATOM      3  C   UNL     1       6.908   6.654  16.638  0.00  0.00    +0.000 C 
ATOM      4  N   UNL     1       7.628   7.080  17.832  0.00  0.00    +0.000 N 
ATOM      5  C   UNL     1       7.954   8.424  17.965  0.00  0.00    +0.000 C 
ATOM      6  O   UNL     1       7.553   9.271  17.167  0.00  0.00    +0.000 OA
ATOM      7  N   UNL     1       8.822   8.707  19.001  0.00  0.00    +0.000 N 
ATOM      8  C   UNL     1       7.754   6.044  18.860  0.00  0.00    +0.000 C 
ATOM      9  C   UNL     1       6.372   5.512  19.271  0.00  0.00    +0.000 C 
ATOM     10  H   UNL     1       9.493   7.972  19.154  0.00  0.00    +0.000 HD
ENDROOT
BRANCH   7  11
ATOM     11  C   UNL     1       9.279  10.021  19.264  0.00  0.00    +0.000 A 
ATOM     12  C   UNL     1       9.233  10.598  20.541  0.00  0.00    +0.000 A 
ATOM     13  C   UNL     1       9.660  11.918  20.748  0.00  0.00    +0.000 A 
ATOM     14  C   UNL     1      10.059  12.683  19.654  0.00  0.00    +0.000 A 
ATOM     15  C   UNL     1      10.071  12.119  18.380  0.00  0.00    +0.000 A 
ATOM     16  C   UNL     1       9.771  10.767  18.194  0.00  0.00    +0.000 A 
BRANCH  13  17
ATOM     17  O   UNL     1       9.626  12.345  22.050  0.00  0.00    +0.000 OA
BRANCH  17  18
ATOM     18  C   UNL     1       8.364  12.796  22.548  0.00  0.00    +0.000 C 
BRANCH  18  19
ATOM     19  C   UNL     1       7.822  11.781  23.540  0.00  0.00    +0.000 C 
ATOM     20  F   UNL     1       6.514  11.537  23.259  0.00  0.00    +0.000 F 
ENDBRANCH  18  19
ENDBRANCH  17  18
ENDBRANCH  13  17
BRANCH  15  21
ATOM     21  O   UNL     1      10.413  12.958  17.339  0.00  0.00    +0.000 OA
BRANCH  21  22
ATOM     22  C   UNL     1      10.618  14.298  17.605  0.00  0.00    +0.000 A 
ATOM     23  C   UNL     1      11.878  14.905  17.697  0.00  0.00    +0.000 A 
ATOM     24  C   UNL     1      11.977  16.258  18.030  0.00  0.00    +0.000 A 
ATOM     25  C   UNL     1      10.821  17.003  18.214  0.00  0.00    +0.000 A 
ATOM     26  F   UNL     1      10.916  18.299  18.544  0.00  0.00    +0.000 F 
ATOM     27  C   UNL     1       9.565  16.427  18.059  0.00  0.00    +0.000 A 
ATOM     28  C   UNL     1       9.462  15.070  17.752  0.00  0.00    +0.000 A 
ENDBRANCH  21  22
ENDBRANCH  15  21
ENDBRANCH   7  11
BRANCH   1  29
ATOM     29  O   UNL     1       6.218   3.936  17.464  0.00  0.00    +0.000 OA
ATOM     30  H   UNL     1       5.831   3.126  17.836  0.00  0.00    +0.000 HD
ENDBRANCH   1  29
BRANCH   1  31
ATOM     31  C   UNL     1       4.096   4.653  18.423  0.00  0.00    +0.000 C 
BRANCH  31  32
ATOM     32  C   UNL     1       3.834   3.840  19.725  0.00  0.00    +0.000 C 
BRANCH  32  34
ATOM     33  C   UNL     1       1.331   3.163  19.803  0.00  0.00    +0.000 C 
ATOM     34  C   UNL     1       2.399   4.169  20.218  0.00  0.00    +0.000 C 
ENDBRANCH  32  34
BRANCH  32  35
ATOM     35  C   UNL     1       4.078   2.320  19.610  0.00  0.00    +0.000 C 
ATOM     36  C   UNL     1       4.779   1.673  20.801  0.00  0.00    +0.000 C 
ENDBRANCH  32  35
ENDBRANCH  31  32
ENDBRANCH   1  31
TORSDOF 11
ENDMDL
MODEL 9
REMARK VINA RESULT:      -6.7      6.096     10.579
REMARK  Name = 
REMARK  13 active torsions:
REMARK  status: ('A' for Active; 'I' for Inactive)
REMARK    1  A    between atoms: C_1  and  C_2
REMARK    2  A    between atoms: C_2  and  C_3
REMARK    3  A    between atoms: C_3  and  C_4
REMARK    4  A    between atoms: C_3  and  C_6
REMARK    5  A    between atoms: C_4  and  C_5
REMARK    6  A    between atoms: C_6  and  C_7
REMARK    7  A    between atoms: C_7  and  O_8
REMARK    8  A    between atoms: N_14  and  C_15
REMARK    9  A    between atoms: C_17  and  O_18
REMARK   10  A    between atoms: O_18  and  C_19
REMARK   11  A    between atoms: C_19  and  C_20
REMARK   12  A    between atoms: C_23  and  O_24
REMARK   13  A    between atoms: O_24  and  C_25
REMARK                            x       y       z     vdW  Elec       q    Type
REMARK                         _______ _______ _______ _____ _____    ______ ____
ROOT
ATOM      1  C   UNL     1      -0.886  11.520  21.828  0.00  0.00    +0.000 C 
ATOM      2  C   UNL     1      -0.462  10.354  22.747  0.00  0.00    +0.000 C 
ATOM      3  C   UNL     1       0.983   9.939  22.485  0.00  0.00    +0.000 C 
ATOM      4  N   UNL     1       1.167   9.592  21.081  0.00  0.00    +0.000 N 
ATOM      5  C   UNL     1       1.453   8.271  20.757  0.00  0.00    +0.000 C 
ATOM      6  O   UNL     1       1.439   7.377  21.602  0.00  0.00    +0.000 OA
ATOM      7  N   UNL     1       1.832   8.069  19.445  0.00  0.00    +0.000 N 
ATOM      8  C   UNL     1       0.831  10.668  20.147  0.00  0.00    +0.000 C 
ATOM      9  C   UNL     1      -0.614  11.145  20.359  0.00  0.00    +0.000 C 
ATOM     10  H   UNL     1       2.360   8.842  19.071  0.00  0.00    +0.000 HD
ENDROOT
BRANCH   7  11
ATOM     11  C   UNL     1       2.184   6.791  18.949  0.00  0.00    +0.000 A 
ATOM     12  C   UNL     1       1.431   5.639  19.219  0.00  0.00    +0.000 A 
ATOM     13  C   UNL     1       1.840   4.386  18.741  0.00  0.00    +0.000 A 
ATOM     14  C   UNL     1       3.050   4.279  18.060  0.00  0.00    +0.000 A 
ATOM     15  C   UNL     1       3.815   5.419  17.823  0.00  0.00    +0.000 A 
ATOM     16  C   UNL     1       3.344   6.684  18.183  0.00  0.00    +0.000 A 
BRANCH  13  17
ATOM     17  O   UNL     1       0.986   3.349  19.016  0.00  0.00    +0.000 OA
BRANCH  17  18
ATOM     18  C   UNL     1       1.490   2.301  19.848  0.00  0.00    +0.000 C 
BRANCH  18  19
ATOM     19  C   UNL     1       1.337   2.696  21.306  0.00  0.00    +0.000 C 
ATOM     20  F   UNL     1       2.539   3.115  21.784  0.00  0.00    +0.000 F 
ENDBRANCH  18  19
ENDBRANCH  17  18
ENDBRANCH  13  17
BRANCH  15  21
ATOM     21  O   UNL     1       5.033   5.225  17.202  0.00  0.00    +0.000 OA
BRANCH  21  22
ATOM     22  C   UNL     1       6.132   5.926  17.659  0.00  0.00    +0.000 A 
ATOM     23  C   UNL     1       6.993   5.480  18.670  0.00  0.00    +0.000 A 
ATOM     24  C   UNL     1       8.043   6.293  19.101  0.00  0.00    +0.000 A 
ATOM     25  C   UNL     1       8.256   7.518  18.484  0.00  0.00    +0.000 A 
ATOM     26  F   UNL     1       9.257   8.305  18.906  0.00  0.00    +0.000 F 
ATOM     27  C   UNL     1       7.448   7.942  17.435  0.00  0.00    +0.000 A 
ATOM     28  C   UNL     1       6.383   7.143  17.019  0.00  0.00    +0.000 A 
ENDBRANCH  21  22
ENDBRANCH  15  21
ENDBRANCH   7  11
BRANCH   1  29
ATOM     29  O   UNL     1      -0.068  12.646  22.155  0.00  0.00    +0.000 OA
ATOM     30  H   UNL     1      -0.448  13.069  22.944  0.00  0.00    +0.000 HD
ENDBRANCH   1  29
BRANCH   1  31
ATOM     31  C   UNL     1      -2.374  11.858  22.102  0.00  0.00    +0.000 C 
BRANCH  31  32
ATOM     32  C   UNL     1      -2.754  13.286  22.592  0.00  0.00    +0.000 C 
BRANCH  32  34
ATOM     33  C   UNL     1      -4.255  12.927  20.506  0.00  0.00    +0.000 C 
ATOM     34  C   UNL     1      -3.748  13.898  21.566  0.00  0.00    +0.000 C 
ENDBRANCH  32  34
BRANCH  32  35
ATOM     35  C   UNL     1      -3.287  13.363  24.038  0.00  0.00    +0.000 C 
ATOM     36  C   UNL     1      -4.643  12.705  24.277  0.00  0.00    +0.000 C 
ENDBRANCH  32  35
ENDBRANCH  31  32
ENDBRANCH   1  31
TORSDOF 11
ENDMDL
