MODEL 1
REMARK VINA RESULT:      -7.9      0.000      0.000
REMARK  Name = 
REMARK  10 active torsions:
REMARK  status: ('A' for Active; 'I' for Inactive)
REMARK    1  A    between atoms: C_1  and  C_2
REMARK    2  A    between atoms: C_2  and  C_3
REMARK    3  A    between atoms: C_2  and  C_4
REMARK    4  A    between atoms: C_8  and  C_9
REMARK    5  A    between atoms: C_9  and  C_10
REMARK    6  A    between atoms: C_9  and  C_14
REMARK    7  A    between atoms: C_9  and  C_20
REMARK    8  A    between atoms: C_10  and  C_11
REMARK    9  A    between atoms: C_11  and  C_12
REMARK   10  A    between atoms: C_12  and  N_13
REMARK                            x       y       z     vdW  Elec       q    Type
REMARK                         _______ _______ _______ _____ _____    ______ ____
ROOT
ATOM      1  C   UNL     1       3.743   5.516  18.582  0.00  0.00    +0.000 C 
ENDROOT
BRANCH   1   6
ATOM      2  C   UNL     1       1.470   8.448  19.769  0.00  0.00    +0.000 A 
ATOM      3  C   UNL     1       1.376   9.211  18.606  0.00  0.00    +0.000 A 
ATOM      4  C   UNL     1       2.155   8.887  17.495  0.00  0.00    +0.000 A 
ATOM      5  C   UNL     1       2.983   7.758  17.512  0.00  0.00    +0.000 A 
ATOM      6  C   UNL     1       3.052   6.925  18.644  0.00  0.00    +0.000 A 
ATOM      7  C   UNL     1       2.374   7.374  19.790  0.00  0.00    +0.000 A 
BRANCH   2   9
ATOM      8  C   UNL     1       1.492   8.945  22.229  0.00  0.00    +0.000 C 
ATOM      9  C   UNL     1       0.617   8.673  21.007  0.00  0.00    +0.000 C 
ATOM     10  C   UNL     1      -0.461   9.747  20.843  0.00  0.00    +0.000 C 
ENDBRANCH   2   9
ENDBRANCH   1   6
BRANCH   1  11
ATOM     11  C   UNL     1       2.746   4.332  18.898  0.00  0.00    +0.000 A 
ATOM     12  C   UNL     1       1.585   4.077  18.143  0.00  0.00    +0.000 A 
ATOM     13  C   UNL     1       0.708   3.037  18.470  0.00  0.00    +0.000 A 
ATOM     14  C   UNL     1       0.947   2.248  19.587  0.00  0.00    +0.000 A 
ATOM     15  C   UNL     1       2.071   2.487  20.370  0.00  0.00    +0.000 A 
ATOM     16  C   UNL     1       2.964   3.507  20.025  0.00  0.00    +0.000 A 
ENDBRANCH   1  11
BRANCH   1  17
ATOM     17  C   UNL     1       4.393   5.349  17.156  0.00  0.00    +0.000 A 
ATOM     18  C   UNL     1       4.921   6.448  16.442  0.00  0.00    +0.000 A 
ATOM     19  C   UNL     1       5.502   6.292  15.180  0.00  0.00    +0.000 A 
ATOM     20  C   UNL     1       5.552   5.039  14.579  0.00  0.00    +0.000 A 
ATOM     21  C   UNL     1       5.018   3.940  15.246  0.00  0.00    +0.000 A 
ATOM     22  C   UNL     1       4.444   4.093  16.514  0.00  0.00    +0.000 A 
ENDBRANCH   1  17
BRANCH   1  23
ATOM     23  C   UNL     1       4.889   5.378  19.677  0.00  0.00    +0.000 C 
BRANCH  23  24
ATOM     24  C   UNL     1       6.236   4.753  19.236  0.00  0.00    +0.000 C 
BRANCH  24  25
ATOM     25  C   UNL     1       7.399   5.737  19.431  0.00  0.00    +0.000 C 
BRANCH  25  26
ATOM     26  N   UNL     1       8.173   5.388  20.610  0.00  0.00    +0.000 NA
ATOM     27  H   UNL     1       7.548   5.041  21.339  0.00  0.00    +0.000 HD
ATOM     28  H   UNL     1       8.617   6.226  20.986  0.00  0.00    +0.000 HD
ENDBRANCH  25  26
ENDBRANCH  24  25
ENDBRANCH  23  24
ENDBRANCH   1  23
TORSDOF 8
ENDMDL
MODEL 2
REMARK VINA RESULT:      -7.9      0.178      1.339
REMARK  Name = 
REMARK  10 active torsions:
REMARK  status: ('A' for Active; 'I' for Inactive)
REMARK    1  A    between atoms: C_1  and  C_2
REMARK    2  A    between atoms: C_2  and  C_3
REMARK    3  A    between atoms: C_2  and  C_4
REMARK    4  A    between atoms: C_8  and  C_9
REMARK    5  A    between atoms: C_9  and  C_10
REMARK    6  A    between atoms: C_9  and  C_14
REMARK    7  A    between atoms: C_9  and  C_20
REMARK    8  A    between atoms: C_10  and  C_11
REMARK    9  A    between atoms: C_11  and  C_12
REMARK   10  A    between atoms: C_12  and  N_13
REMARK                            x       y       z     vdW  Elec       q    Type
REMARK                         _______ _______ _______ _____ _____    ______ ____
ROOT
ATOM      1  C   UNL     1       3.753   5.505  18.576  0.00  0.00    +0.000 C 
ENDROOT
BRANCH   1   6
ATOM      2  C   UNL     1       1.494   8.403  19.868  0.00  0.00    +0.000 A 
ATOM      3  C   UNL     1       1.375   9.189  18.722  0.00  0.00    +0.000 A 
ATOM      4  C   UNL     1       2.132   8.891  17.590  0.00  0.00    +0.000 A 
ATOM      5  C   UNL     1       2.964   7.766  17.568  0.00  0.00    +0.000 A 
ATOM      6  C   UNL     1       3.058   6.909  18.680  0.00  0.00    +0.000 A 
ATOM      7  C   UNL     1       2.402   7.332  19.849  0.00  0.00    +0.000 A 
BRANCH   2   9
ATOM      8  C   UNL     1       1.548   9.013  22.301  0.00  0.00    +0.000 C 
ATOM      9  C   UNL     1       0.665   8.600  21.126  0.00  0.00    +0.000 C 
ATOM     10  C   UNL     1      -0.521   9.553  20.959  0.00  0.00    +0.000 C 
ENDBRANCH   2   9
ENDBRANCH   1   6
BRANCH   1  11
ATOM     11  C   UNL     1       2.757   4.308  18.846  0.00  0.00    +0.000 A 
ATOM     12  C   UNL     1       3.021   3.276  19.768  0.00  0.00    +0.000 A 
ATOM     13  C   UNL     1       2.129   2.216  19.959  0.00  0.00    +0.000 A 
ATOM     14  C   UNL     1       0.966   2.135  19.204  0.00  0.00    +0.000 A 
ATOM     15  C   UNL     1       0.686   3.124  18.268  0.00  0.00    +0.000 A 
ATOM     16  C   UNL     1       1.562   4.202  18.099  0.00  0.00    +0.000 A 
ENDBRANCH   1  11
BRANCH   1  17
ATOM     17  C   UNL     1       4.413   5.387  17.150  0.00  0.00    +0.000 A 
ATOM     18  C   UNL     1       4.532   4.149  16.481  0.00  0.00    +0.000 A 
ATOM     19  C   UNL     1       5.114   4.052  15.213  0.00  0.00    +0.000 A 
ATOM     20  C   UNL     1       5.618   5.184  14.584  0.00  0.00    +0.000 A 
ATOM     21  C   UNL     1       5.539   6.416  15.227  0.00  0.00    +0.000 A 
ATOM     22  C   UNL     1       4.948   6.516  16.493  0.00  0.00    +0.000 A 
ENDBRANCH   1  17
BRANCH   1  23
ATOM     23  C   UNL     1       4.892   5.332  19.674  0.00  0.00    +0.000 C 
BRANCH  23  24
ATOM     24  C   UNL     1       6.249   4.741  19.217  0.00  0.00    +0.000 C 
BRANCH  24  25
ATOM     25  C   UNL     1       7.394   5.743  19.425  0.00  0.00    +0.000 C 
BRANCH  25  26
ATOM     26  N   UNL     1       8.173   5.394  20.601  0.00  0.00    +0.000 NA
ATOM     27  H   UNL     1       9.123   5.147  20.322  0.00  0.00    +0.000 HD
ATOM     28  H   UNL     1       7.776   4.562  21.038  0.00  0.00    +0.000 HD
ENDBRANCH  25  26
ENDBRANCH  24  25
ENDBRANCH  23  24
ENDBRANCH   1  23
TORSDOF 8
ENDMDL
MODEL 3
REMARK VINA RESULT:      -7.6      2.396      5.092
REMARK  Name = 
REMARK  10 active torsions:
REMARK  status: ('A' for Active; 'I' for Inactive)
REMARK    1  A    between atoms: C_1  and  C_2
REMARK    2  A    between atoms: C_2  and  C_3
REMARK    3  A    between atoms: C_2  and  C_4
REMARK    4  A    between atoms: C_8  and  C_9
REMARK    5  A    between atoms: C_9  and  C_10
REMARK    6  A    between atoms: C_9  and  C_14
REMARK    7  A    between atoms: C_9  and  C_20
REMARK    8  A    between atoms: C_10  and  C_11
REMARK    9  A    between atoms: C_11  and  C_12
REMARK   10  A    between atoms: C_12  and  N_13
REMARK                            x       y       z     vdW  Elec       q    Type
REMARK                         _______ _______ _______ _____ _____    ______ ____
ROOT
ATOM      1  C   UNL     1       4.989   5.469  16.687  0.00  0.00    +0.000 C 
ENDROOT
BRANCH   1   6
ATOM      2  C   UNL     1       2.423   3.696  19.021  0.00  0.00    +0.000 A 
ATOM      3  C   UNL     1       2.814   2.362  18.896  0.00  0.00    +0.000 A 
ATOM      4  C   UNL     1       3.782   2.005  17.957  0.00  0.00    +0.000 A 
ATOM      5  C   UNL     1       4.417   2.983  17.183  0.00  0.00    +0.000 A 
ATOM      6  C   UNL     1       4.099   4.346  17.330  0.00  0.00    +0.000 A 
ATOM      7  C   UNL     1       3.012   4.645  18.170  0.00  0.00    +0.000 A 
BRANCH   2   9
ATOM      8  C   UNL     1       1.254   3.180  21.180  0.00  0.00    +0.000 C 
ATOM      9  C   UNL     1       1.432   4.199  20.056  0.00  0.00    +0.000 C 
ATOM     10  C   UNL     1       1.748   5.590  20.610  0.00  0.00    +0.000 C 
ENDBRANCH   2   9
ENDBRANCH   1   6
BRANCH   1  11
ATOM     11  C   UNL     1       6.164   5.935  17.635  0.00  0.00    +0.000 A 
ATOM     12  C   UNL     1       6.970   7.059  17.370  0.00  0.00    +0.000 A 
ATOM     13  C   UNL     1       8.022   7.425  18.217  0.00  0.00    +0.000 A 
ATOM     14  C   UNL     1       8.324   6.652  19.331  0.00  0.00    +0.000 A 
ATOM     15  C   UNL     1       7.564   5.522  19.609  0.00  0.00    +0.000 A 
ATOM     16  C   UNL     1       6.492   5.173  18.780  0.00  0.00    +0.000 A 
ENDBRANCH   1  11
BRANCH   1  17
ATOM     17  C   UNL     1       5.543   4.932  15.313  0.00  0.00    +0.000 A 
ATOM     18  C   UNL     1       6.901   5.069  14.949  0.00  0.00    +0.000 A 
ATOM     19  C   UNL     1       7.387   4.584  13.731  0.00  0.00    +0.000 A 
ATOM     20  C   UNL     1       6.528   3.971  12.826  0.00  0.00    +0.000 A 
ATOM     21  C   UNL     1       5.179   3.843  13.144  0.00  0.00    +0.000 A 
ATOM     22  C   UNL     1       4.692   4.320  14.368  0.00  0.00    +0.000 A 
ENDBRANCH   1  17
BRANCH   1  23
ATOM     23  C   UNL     1       4.151   6.793  16.409  0.00  0.00    +0.000 C 
BRANCH  23  24
ATOM     24  C   UNL     1       3.776   7.678  17.624  0.00  0.00    +0.000 C 
BRANCH  24  25
ATOM     25  C   UNL     1       2.285   8.047  17.609  0.00  0.00    +0.000 C 
BRANCH  25  26
ATOM     26  N   UNL     1       2.114   9.478  17.420  0.00  0.00    +0.000 NA
ATOM     27  H   UNL     1       2.529   9.758  16.530  0.00  0.00    +0.000 HD
ATOM     28  H   UNL     1       2.624   9.981  18.146  0.00  0.00    +0.000 HD
ENDBRANCH  25  26
ENDBRANCH  24  25
ENDBRANCH  23  24
ENDBRANCH   1  23
TORSDOF 8
ENDMDL
MODEL 4
REMARK VINA RESULT:      -7.5      0.500      1.066
REMARK  Name = 
REMARK  10 active torsions:
REMARK  status: ('A' for Active; 'I' for Inactive)
REMARK    1  A    between atoms: C_1  and  C_2
REMARK    2  A    between atoms: C_2  and  C_3
REMARK    3  A    between atoms: C_2  and  C_4
REMARK    4  A    between atoms: C_8  and  C_9
REMARK    5  A    between atoms: C_9  and  C_10
REMARK    6  A    between atoms: C_9  and  C_14
REMARK    7  A    between atoms: C_9  and  C_20
REMARK    8  A    between atoms: C_10  and  C_11
REMARK    9  A    between atoms: C_11  and  C_12
REMARK   10  A    between atoms: C_12  and  N_13
REMARK                            x       y       z     vdW  Elec       q    Type
REMARK                         _______ _______ _______ _____ _____    ______ ____
ROOT
ATOM      1  C   UNL     1       3.751   5.562  18.597  0.00  0.00    +0.000 C 
ENDROOT
BRANCH   1   6
ATOM      2  C   UNL     1       1.457   8.470  19.804  0.00  0.00    +0.000 A 
ATOM      3  C   UNL     1       1.359   9.241  18.646  0.00  0.00    +0.000 A 
ATOM      4  C   UNL     1       2.141   8.931  17.534  0.00  0.00    +0.000 A 
ATOM      5  C   UNL     1       2.977   7.808  17.543  0.00  0.00    +0.000 A 
ATOM      6  C   UNL     1       3.050   6.966  18.669  0.00  0.00    +0.000 A 
ATOM      7  C   UNL     1       2.369   7.402  19.818  0.00  0.00    +0.000 A 
BRANCH   2   9
ATOM      8  C   UNL     1       1.470   8.998  22.257  0.00  0.00    +0.000 C 
ATOM      9  C   UNL     1       0.601   8.680  21.042  0.00  0.00    +0.000 C 
ATOM     10  C   UNL     1      -0.516   9.712  20.870  0.00  0.00    +0.000 C 
ENDBRANCH   2   9
ENDBRANCH   1   6
BRANCH   1  11
ATOM     11  C   UNL     1       2.768   4.371  18.929  0.00  0.00    +0.000 A 
ATOM     12  C   UNL     1       1.654   4.044  18.132  0.00  0.00    +0.000 A 
ATOM     13  C   UNL     1       0.787   3.000  18.473  0.00  0.00    +0.000 A 
ATOM     14  C   UNL     1       0.986   2.280  19.643  0.00  0.00    +0.000 A 
ATOM     15  C   UNL     1       2.063   2.592  20.466  0.00  0.00    +0.000 A 
ATOM     16  C   UNL     1       2.948   3.615  20.110  0.00  0.00    +0.000 A 
ENDBRANCH   1  11
BRANCH   1  17
ATOM     17  C   UNL     1       4.381   5.400  17.162  0.00  0.00    +0.000 A 
ATOM     18  C   UNL     1       4.513   4.138  16.541  0.00  0.00    +0.000 A 
ATOM     19  C   UNL     1       5.067   4.001  15.265  0.00  0.00    +0.000 A 
ATOM     20  C   UNL     1       5.532   5.117  14.578  0.00  0.00    +0.000 A 
ATOM     21  C   UNL     1       5.440   6.372  15.173  0.00  0.00    +0.000 A 
ATOM     22  C   UNL     1       4.876   6.512  16.447  0.00  0.00    +0.000 A 
ENDBRANCH   1  17
BRANCH   1  23
ATOM     23  C   UNL     1       4.914   5.434  19.675  0.00  0.00    +0.000 C 
BRANCH  23  24
ATOM     24  C   UNL     1       6.261   4.823  19.213  0.00  0.00    +0.000 C 
BRANCH  24  25
ATOM     25  C   UNL     1       7.441   5.742  19.561  0.00  0.00    +0.000 C 
BRANCH  25  26
ATOM     26  N   UNL     1       7.792   6.577  18.425  0.00  0.00    +0.000 NA
ATOM     27  H   UNL     1       7.285   6.260  17.597  0.00  0.00    +0.000 HD
ATOM     28  H   UNL     1       8.784   6.467  18.214  0.00  0.00    +0.000 HD
ENDBRANCH  25  26
ENDBRANCH  24  25
ENDBRANCH  23  24
ENDBRANCH   1  23
TORSDOF 8
ENDMDL
MODEL 5
REMARK VINA RESULT:      -7.5      2.329      5.160
REMARK  Name = 
REMARK  10 active torsions:
REMARK  status: ('A' for Active; 'I' for Inactive)
REMARK    1  A    between atoms: C_1  and  C_2
REMARK    2  A    between atoms: C_2  and  C_3
REMARK    3  A    between atoms: C_2  and  C_4
REMARK    4  A    between atoms: C_8  and  C_9
REMARK    5  A    between atoms: C_9  and  C_10
REMARK    6  A    between atoms: C_9  and  C_14
REMARK    7  A    between atoms: C_9  and  C_20
REMARK    8  A    between atoms: C_10  and  C_11
REMARK    9  A    between atoms: C_11  and  C_12
REMARK   10  A    between atoms: C_12  and  N_13
REMARK                            x       y       z     vdW  Elec       q    Type
REMARK                         _______ _______ _______ _____ _____    ______ ____
ROOT
ATOM      1  C   UNL     1       5.032   5.406  16.717  0.00  0.00    +0.000 C 
ENDROOT
BRANCH   1   6
ATOM      2  C   UNL     1       2.433   3.637  19.016  0.00  0.00    +0.000 A 
ATOM      3  C   UNL     1       2.807   2.300  18.875  0.00  0.00    +0.000 A 
ATOM      4  C   UNL     1       3.774   1.942  17.936  0.00  0.00    +0.000 A 
ATOM      5  C   UNL     1       4.425   2.922  17.178  0.00  0.00    +0.000 A 
ATOM      6  C   UNL     1       4.124   4.287  17.341  0.00  0.00    +0.000 A 
ATOM      7  C   UNL     1       3.038   4.589  18.180  0.00  0.00    +0.000 A 
BRANCH   2   9
ATOM      8  C   UNL     1       1.250   3.111  21.166  0.00  0.00    +0.000 C 
ATOM      9  C   UNL     1       1.443   4.139  20.053  0.00  0.00    +0.000 C 
ATOM     10  C   UNL     1       1.773   5.521  20.623  0.00  0.00    +0.000 C 
ENDBRANCH   2   9
ENDBRANCH   1   6
BRANCH   1  11
ATOM     11  C   UNL     1       6.229   5.819  17.661  0.00  0.00    +0.000 A 
ATOM     12  C   UNL     1       6.545   5.136  18.852  0.00  0.00    +0.000 A 
ATOM     13  C   UNL     1       7.594   5.549  19.680  0.00  0.00    +0.000 A 
ATOM     14  C   UNL     1       8.332   6.682  19.362  0.00  0.00    +0.000 A 
ATOM     15  C   UNL     1       8.031   7.395  18.206  0.00  0.00    +0.000 A 
ATOM     16  C   UNL     1       7.002   6.964  17.362  0.00  0.00    +0.000 A 
ENDBRANCH   1  11
BRANCH   1  17
ATOM     17  C   UNL     1       5.556   4.894  15.322  0.00  0.00    +0.000 A 
ATOM     18  C   UNL     1       4.698   4.288  14.377  0.00  0.00    +0.000 A 
ATOM     19  C   UNL     1       5.169   3.841  13.139  0.00  0.00    +0.000 A 
ATOM     20  C   UNL     1       6.515   3.960  12.814  0.00  0.00    +0.000 A 
ATOM     21  C   UNL     1       7.391   4.530  13.733  0.00  0.00    +0.000 A 
ATOM     22  C   UNL     1       6.920   4.987  14.971  0.00  0.00    +0.000 A 
ENDBRANCH   1  17
BRANCH   1  23
ATOM     23  C   UNL     1       4.221   6.756  16.485  0.00  0.00    +0.000 C 
BRANCH  23  24
ATOM     24  C   UNL     1       3.794   7.564  17.735  0.00  0.00    +0.000 C 
BRANCH  24  25
ATOM     25  C   UNL     1       2.431   8.240  17.525  0.00  0.00    +0.000 C 
BRANCH  25  26
ATOM     26  N   UNL     1       1.858   8.644  18.798  0.00  0.00    +0.000 NA
ATOM     27  H   UNL     1       1.070   9.273  18.635  0.00  0.00    +0.000 HD
ATOM     28  H   UNL     1       2.548   9.177  19.328  0.00  0.00    +0.000 HD
ENDBRANCH  25  26
ENDBRANCH  24  25
ENDBRANCH  23  24
ENDBRANCH   1  23
TORSDOF 8
ENDMDL
MODEL 6
REMARK VINA RESULT:      -7.4      2.478      5.256
REMARK  Name = 
REMARK  10 active torsions:
REMARK  status: ('A' for Active; 'I' for Inactive)
REMARK    1  A    between atoms: C_1  and  C_2
REMARK    2  A    between atoms: C_2  and  C_3
REMARK    3  A    between atoms: C_2  and  C_4
REMARK    4  A    between atoms: C_8  and  C_9
REMARK    5  A    between atoms: C_9  and  C_10
REMARK    6  A    between atoms: C_9  and  C_14
REMARK    7  A    between atoms: C_9  and  C_20
REMARK    8  A    between atoms: C_10  and  C_11
REMARK    9  A    between atoms: C_11  and  C_12
REMARK   10  A    between atoms: C_12  and  N_13
REMARK                            x       y       z     vdW  Elec       q    Type
REMARK                         _______ _______ _______ _____ _____    ______ ____
ROOT
ATOM      1  C   UNL     1       5.098   5.516  16.732  0.00  0.00    +0.000 C 
ENDROOT
BRANCH   1   6
ATOM      2  C   UNL     1       3.027   3.716  19.497  0.00  0.00    +0.000 A 
ATOM      3  C   UNL     1       3.161   2.382  19.115  0.00  0.00    +0.000 A 
ATOM      4  C   UNL     1       3.769   2.061  17.901  0.00  0.00    +0.000 A 
ATOM      5  C   UNL     1       4.310   3.066  17.091  0.00  0.00    +0.000 A 
ATOM      6  C   UNL     1       4.256   4.419  17.476  0.00  0.00    +0.000 A 
ATOM      7  C   UNL     1       3.500   4.709  18.624  0.00  0.00    +0.000 A 
BRANCH   2   9
ATOM      8  C   UNL     1       1.589   5.420  20.649  0.00  0.00    +0.000 C 
ATOM      9  C   UNL     1       2.445   4.168  20.826  0.00  0.00    +0.000 C 
ATOM     10  C   UNL     1       1.686   3.077  21.586  0.00  0.00    +0.000 C 
ENDBRANCH   2   9
ENDBRANCH   1   6
BRANCH   1  11
ATOM     11  C   UNL     1       6.321   6.033  17.589  0.00  0.00    +0.000 A 
ATOM     12  C   UNL     1       6.830   5.341  18.705  0.00  0.00    +0.000 A 
ATOM     13  C   UNL     1       7.895   5.844  19.459  0.00  0.00    +0.000 A 
ATOM     14  C   UNL     1       8.455   7.075  19.143  0.00  0.00    +0.000 A 
ATOM     15  C   UNL     1       7.961   7.798  18.063  0.00  0.00    +0.000 A 
ATOM     16  C   UNL     1       6.916   7.279  17.289  0.00  0.00    +0.000 A 
ENDBRANCH   1  11
BRANCH   1  17
ATOM     17  C   UNL     1       5.579   4.918  15.355  0.00  0.00    +0.000 A 
ATOM     18  C   UNL     1       6.939   4.918  14.974  0.00  0.00    +0.000 A 
ATOM     19  C   UNL     1       7.358   4.381  13.753  0.00  0.00    +0.000 A 
ATOM     20  C   UNL     1       6.431   3.851  12.863  0.00  0.00    +0.000 A 
ATOM     21  C   UNL     1       5.081   3.859  13.198  0.00  0.00    +0.000 A 
ATOM     22  C   UNL     1       4.660   4.388  14.425  0.00  0.00    +0.000 A 
ENDBRANCH   1  17
BRANCH   1  23
ATOM     23  C   UNL     1       4.234   6.820  16.441  0.00  0.00    +0.000 C 
BRANCH  23  24
ATOM     24  C   UNL     1       3.764   7.659  17.655  0.00  0.00    +0.000 C 
BRANCH  24  25
ATOM     25  C   UNL     1       2.270   8.001  17.554  0.00  0.00    +0.000 C 
BRANCH  25  26
ATOM     26  N   UNL     1       2.079   9.438  17.448  0.00  0.00    +0.000 NA
ATOM     27  H   UNL     1       1.082   9.653  17.470  0.00  0.00    +0.000 HD
ATOM     28  H   UNL     1       2.424   9.761  16.543  0.00  0.00    +0.000 HD
ENDBRANCH  25  26
ENDBRANCH  24  25
ENDBRANCH  23  24
ENDBRANCH   1  23
TORSDOF 8
ENDMDL
MODEL 7
REMARK VINA RESULT:      -7.3      1.890      4.596
REMARK  Name = 
REMARK  10 active torsions:
REMARK  status: ('A' for Active; 'I' for Inactive)
REMARK    1  A    between atoms: C_1  and  C_2
REMARK    2  A    between atoms: C_2  and  C_3
REMARK    3  A    between atoms: C_2  and  C_4
REMARK    4  A    between atoms: C_8  and  C_9
REMARK    5  A    between atoms: C_9  and  C_10
REMARK    6  A    between atoms: C_9  and  C_14
REMARK    7  A    between atoms: C_9  and  C_20
REMARK    8  A    between atoms: C_10  and  C_11
REMARK    9  A    between atoms: C_11  and  C_12
REMARK   10  A    between atoms: C_12  and  N_13
REMARK                            x       y       z     vdW  Elec       q    Type
REMARK                         _______ _______ _______ _____ _____    ______ ____
ROOT
ATOM      1  C   UNL     1       4.238   5.633  17.730  0.00  0.00    +0.000 C 
ENDROOT
BRANCH   1   6
ATOM      2  C   UNL     1       1.840   8.588  18.562  0.00  0.00    +0.000 A 
ATOM      3  C   UNL     1       1.593   8.367  19.917  0.00  0.00    +0.000 A 
ATOM      4  C   UNL     1       2.053   7.201  20.529  0.00  0.00    +0.000 A 
ATOM      5  C   UNL     1       2.823   6.278  19.811  0.00  0.00    +0.000 A 
ATOM      6  C   UNL     1       3.152   6.500  18.461  0.00  0.00    +0.000 A 
ATOM      7  C   UNL     1       2.539   7.604  17.844  0.00  0.00    +0.000 A 
BRANCH   2   9
ATOM      8  C   UNL     1      -0.054  10.117  17.954  0.00  0.00    +0.000 C 
ATOM      9  C   UNL     1       1.444   9.853  17.819  0.00  0.00    +0.000 C 
ATOM     10  C   UNL     1       2.265  11.089  18.194  0.00  0.00    +0.000 C 
ENDBRANCH   2   9
ENDBRANCH   1   6
BRANCH   1  11
ATOM     11  C   UNL     1       5.713   6.068  18.093  0.00  0.00    +0.000 A 
ATOM     12  C   UNL     1       6.496   5.410  19.061  0.00  0.00    +0.000 A 
ATOM     13  C   UNL     1       7.789   5.841  19.378  0.00  0.00    +0.000 A 
ATOM     14  C   UNL     1       8.319   6.969  18.766  0.00  0.00    +0.000 A 
ATOM     15  C   UNL     1       7.564   7.658  17.823  0.00  0.00    +0.000 A 
ATOM     16  C   UNL     1       6.283   7.208  17.483  0.00  0.00    +0.000 A 
ENDBRANCH   1  11
BRANCH   1  17
ATOM     17  C   UNL     1       3.985   4.120  18.090  0.00  0.00    +0.000 A 
ATOM     18  C   UNL     1       4.625   3.493  19.182  0.00  0.00    +0.000 A 
ATOM     19  C   UNL     1       4.391   2.152  19.499  0.00  0.00    +0.000 A 
ATOM     20  C   UNL     1       3.530   1.386  18.721  0.00  0.00    +0.000 A 
ATOM     21  C   UNL     1       2.902   1.967  17.623  0.00  0.00    +0.000 A 
ATOM     22  C   UNL     1       3.129   3.313  17.310  0.00  0.00    +0.000 A 
ENDBRANCH   1  17
BRANCH   1  23
ATOM     23  C   UNL     1       4.151   5.796  16.149  0.00  0.00    +0.000 C 
BRANCH  23  24
ATOM     24  C   UNL     1       5.457   5.627  15.334  0.00  0.00    +0.000 C 
BRANCH  24  25
ATOM     25  C   UNL     1       5.522   4.247  14.662  0.00  0.00    +0.000 C 
BRANCH  25  26
ATOM     26  N   UNL     1       6.265   3.311  15.488  0.00  0.00    +0.000 NA
ATOM     27  H   UNL     1       7.236   3.617  15.564  0.00  0.00    +0.000 HD
ATOM     28  H   UNL     1       6.286   2.397  15.033  0.00  0.00    +0.000 HD
ENDBRANCH  25  26
ENDBRANCH  24  25
ENDBRANCH  23  24
ENDBRANCH   1  23
TORSDOF 8
ENDMDL
MODEL 8
REMARK VINA RESULT:      -7.3      1.957      4.614
REMARK  Name = 
REMARK  10 active torsions:
REMARK  status: ('A' for Active; 'I' for Inactive)
REMARK    1  A    between atoms: C_1  and  C_2
REMARK    2  A    between atoms: C_2  and  C_3
REMARK    3  A    between atoms: C_2  and  C_4
REMARK    4  A    between atoms: C_8  and  C_9
REMARK    5  A    between atoms: C_9  and  C_10
REMARK    6  A    between atoms: C_9  and  C_14
REMARK    7  A    between atoms: C_9  and  C_20
REMARK    8  A    between atoms: C_10  and  C_11
REMARK    9  A    between atoms: C_11  and  C_12
REMARK   10  A    between atoms: C_12  and  N_13
REMARK                            x       y       z     vdW  Elec       q    Type
REMARK                         _______ _______ _______ _____ _____    ______ ____
ROOT
ATOM      1  C   UNL     1       3.371   5.255  18.477  0.00  0.00    +0.000 C 
ENDROOT
BRANCH   1   6
ATOM      2  C   UNL     1       1.628   8.361  20.054  0.00  0.00    +0.000 A 
ATOM      3  C   UNL     1       1.517   9.204  18.948  0.00  0.00    +0.000 A 
ATOM      4  C   UNL     1       2.132   8.860  17.744  0.00  0.00    +0.000 A 
ATOM      5  C   UNL     1       2.804   7.639  17.614  0.00  0.00    +0.000 A 
ATOM      6  C   UNL     1       2.878   6.731  18.686  0.00  0.00    +0.000 A 
ATOM      7  C   UNL     1       2.383   7.184  19.921  0.00  0.00    +0.000 A 
BRANCH   2   9
ATOM      8  C   UNL     1       0.918  10.099  21.719  0.00  0.00    +0.000 C 
ATOM      9  C   UNL     1       0.941   8.609  21.386  0.00  0.00    +0.000 C 
ATOM     10  C   UNL     1      -0.455   7.990  21.501  0.00  0.00    +0.000 C 
ENDBRANCH   2   9
ENDBRANCH   1   6
BRANCH   1  11
ATOM     11  C   UNL     1       4.945   5.141  18.397  0.00  0.00    +0.000 A 
ATOM     12  C   UNL     1       5.807   5.651  19.388  0.00  0.00    +0.000 A 
ATOM     13  C   UNL     1       7.198   5.559  19.269  0.00  0.00    +0.000 A 
ATOM     14  C   UNL     1       7.767   4.992  18.136  0.00  0.00    +0.000 A 
ATOM     15  C   UNL     1       6.946   4.502  17.127  0.00  0.00    +0.000 A 
ATOM     16  C   UNL     1       5.554   4.565  17.260  0.00  0.00    +0.000 A 
ENDBRANCH   1  11
BRANCH   1  17
ATOM     17  C   UNL     1       2.795   4.373  19.650  0.00  0.00    +0.000 A 
ATOM     18  C   UNL     1       3.620   3.536  20.432  0.00  0.00    +0.000 A 
ATOM     19  C   UNL     1       3.103   2.761  21.474  0.00  0.00    +0.000 A 
ATOM     20  C   UNL     1       1.741   2.777  21.752  0.00  0.00    +0.000 A 
ATOM     21  C   UNL     1       0.896   3.572  20.984  0.00  0.00    +0.000 A 
ATOM     22  C   UNL     1       1.415   4.356  19.945  0.00  0.00    +0.000 A 
ENDBRANCH   1  17
BRANCH   1  23
ATOM     23  C   UNL     1       2.856   4.655  17.097  0.00  0.00    +0.000 C 
BRANCH  23  24
ATOM     24  C   UNL     1       2.071   3.320  17.139  0.00  0.00    +0.000 C 
BRANCH  24  25
ATOM     25  C   UNL     1       3.021   2.114  17.165  0.00  0.00    +0.000 C 
BRANCH  25  26
ATOM     26  N   UNL     1       2.725   1.254  18.299  0.00  0.00    +0.000 NA
ATOM     27  H   UNL     1       2.497   0.316  17.966  0.00  0.00    +0.000 HD
ATOM     28  H   UNL     1       1.894   1.599  18.780  0.00  0.00    +0.000 HD
ENDBRANCH  25  26
ENDBRANCH  24  25
ENDBRANCH  23  24
ENDBRANCH   1  23
TORSDOF 8
ENDMDL
MODEL 9
REMARK VINA RESULT:      -7.2      2.400      5.198
REMARK  Name = 
REMARK  10 active torsions:
REMARK  status: ('A' for Active; 'I' for Inactive)
REMARK    1  A    between atoms: C_1  and  C_2
REMARK    2  A    between atoms: C_2  and  C_3
REMARK    3  A    between atoms: C_2  and  C_4
REMARK    4  A    between atoms: C_8  and  C_9
REMARK    5  A    between atoms: C_9  and  C_10
REMARK    6  A    between atoms: C_9  and  C_14
REMARK    7  A    between atoms: C_9  and  C_20
REMARK    8  A    between atoms: C_10  and  C_11
REMARK    9  A    between atoms: C_11  and  C_12
REMARK   10  A    between atoms: C_12  and  N_13
REMARK                            x       y       z     vdW  Elec       q    Type
REMARK                         _______ _______ _______ _____ _____    ______ ____
ROOT
ATOM      1  C   UNL     1       5.052   5.530  16.770  0.00  0.00    +0.000 C 
ENDROOT
BRANCH   1   6
ATOM      2  C   UNL     1       2.982   3.670  19.496  0.00  0.00    +0.000 A 
ATOM      3  C   UNL     1       3.170   2.339  19.123  0.00  0.00    +0.000 A 
ATOM      4  C   UNL     1       3.816   2.035  17.925  0.00  0.00    +0.000 A 
ATOM      5  C   UNL     1       4.341   3.055  17.122  0.00  0.00    +0.000 A 
ATOM      6  C   UNL     1       4.231   4.407  17.500  0.00  0.00    +0.000 A 
ATOM      7  C   UNL     1       3.439   4.675  18.629  0.00  0.00    +0.000 A 
BRANCH   2   9
ATOM      8  C   UNL     1       1.657   5.456  20.659  0.00  0.00    +0.000 C 
ATOM      9  C   UNL     1       2.354   4.106  20.809  0.00  0.00    +0.000 C 
ATOM     10  C   UNL     1       1.424   3.067  21.441  0.00  0.00    +0.000 C 
ENDBRANCH   2   9
ENDBRANCH   1   6
BRANCH   1  11
ATOM     11  C   UNL     1       6.255   6.070  17.640  0.00  0.00    +0.000 A 
ATOM     12  C   UNL     1       6.937   7.269  17.354  0.00  0.00    +0.000 A 
ATOM     13  C   UNL     1       8.018   7.702  18.128  0.00  0.00    +0.000 A 
ATOM     14  C   UNL     1       8.475   6.928  19.186  0.00  0.00    +0.000 A 
ATOM     15  C   UNL     1       7.841   5.726  19.482  0.00  0.00    +0.000 A 
ATOM     16  C   UNL     1       6.739   5.308  18.727  0.00  0.00    +0.000 A 
ENDBRANCH   1  11
BRANCH   1  17
ATOM     17  C   UNL     1       5.556   4.954  15.393  0.00  0.00    +0.000 A 
ATOM     18  C   UNL     1       4.677   4.352  14.466  0.00  0.00    +0.000 A 
ATOM     19  C   UNL     1       5.130   3.849  13.243  0.00  0.00    +0.000 A 
ATOM     20  C   UNL     1       6.480   3.906  12.917  0.00  0.00    +0.000 A 
ATOM     21  C   UNL     1       7.377   4.471  13.819  0.00  0.00    +0.000 A 
ATOM     22  C   UNL     1       6.923   4.984  15.041  0.00  0.00    +0.000 A 
ENDBRANCH   1  17
BRANCH   1  23
ATOM     23  C   UNL     1       4.157   6.814  16.482  0.00  0.00    +0.000 C 
BRANCH  23  24
ATOM     24  C   UNL     1       3.679   7.647  17.697  0.00  0.00    +0.000 C 
BRANCH  24  25
ATOM     25  C   UNL     1       2.193   8.017  17.571  0.00  0.00    +0.000 C 
BRANCH  25  26
ATOM     26  N   UNL     1       1.793   8.902  18.651  0.00  0.00    +0.000 NA
ATOM     27  H   UNL     1       1.932   8.434  19.548  0.00  0.00    +0.000 HD
ATOM     28  H   UNL     1       0.794   9.096  18.580  0.00  0.00    +0.000 HD
ENDBRANCH  25  26
ENDBRANCH  24  25
ENDBRANCH  23  24
ENDBRANCH   1  23
TORSDOF 8
ENDMDL
