MODEL 1
REMARK VINA RESULT:      -7.8      0.000      0.000
REMARK  Name = 
REMARK  9 active torsions:
REMARK  status: ('A' for Active; 'I' for Inactive)
REMARK    1  A    between atoms: C_1  and  C_2
REMARK    2  A    between atoms: C_2  and  N_3
REMARK    3  A    between atoms: C_4  and  S_5
REMARK    4  A    between atoms: S_5  and  C_6
REMARK    5  A    between atoms: C_6  and  C_7
REMARK    6  A    between atoms: N_9  and  C_10
REMARK    7  A    between atoms: C_10  and  C_11
REMARK    8  A    between atoms: N_13  and  C_14
REMARK    9  A    between atoms: C_23  and  C_24
REMARK                            x       y       z     vdW  Elec       q    Type
REMARK                         _______ _______ _______ _____ _____    ______ ____
ROOT
ATOM      1  C   UNL     1       7.697   7.561  17.784  0.00  0.00    +0.000 C 
ATOM      2  O   UNL     1       8.261   6.943  18.684  0.00  0.00    +0.000 OA
ATOM      3  N   UNL     1       7.157   6.916  16.695  0.00  0.00    +0.000 N 
ATOM      4  H   UNL     1       6.620   7.459  16.023  0.00  0.00    +0.000 HD
ENDROOT
BRANCH   1   5
ATOM      5  C   UNL     1       7.617   9.100  17.769  0.00  0.00    +0.000 C 
BRANCH   5   6
ATOM      6  S   UNL     1       8.984   9.804  18.726  0.00  0.00    +0.000 S 
BRANCH   6   8
ATOM      7  N   UNL     1       9.904  12.392  18.922  0.00  0.00    +0.000 N 
ATOM      8  C   UNL     1       9.025  11.492  18.360  0.00  0.00    +0.000 A 
ATOM      9  N   UNL     1       8.246  12.105  17.498  0.00  0.00    +0.000 NA
ATOM     10  N   UNL     1       8.631  13.426  17.460  0.00  0.00    +0.000 NA
ATOM     11  C   UNL     1       9.657  13.610  18.278  0.00  0.00    +0.000 A 
BRANCH  11  12
ATOM     12  C   UNL     1      10.341  14.911  18.470  0.00  0.00    +0.000 A 
ATOM     13  C   UNL     1       9.714  15.910  19.226  0.00  0.00    +0.000 A 
ATOM     14  C   UNL     1      10.349  17.133  19.403  0.00  0.00    +0.000 A 
ATOM     15  N   UNL     1      11.558  17.429  18.890  0.00  0.00    +0.000 NA
ATOM     16  C   UNL     1      12.141  16.477  18.139  0.00  0.00    +0.000 A 
ATOM     17  C   UNL     1      11.573  15.235  17.891  0.00  0.00    +0.000 A 
ENDBRANCH  11  12
BRANCH   7  19
ATOM     18  C   UNL     1      12.333  11.913  19.704  0.00  0.00    +0.000 C 
ATOM     19  C   UNL     1      10.873  12.226  19.988  0.00  0.00    +0.000 C 
ENDBRANCH   7  19
ENDBRANCH   6   8
ENDBRANCH   5   6
ENDBRANCH   1   5
BRANCH   3  20
ATOM     20  C   UNL     1       7.074   5.467  16.562  0.00  0.00    +0.000 C 
BRANCH  20  21
ATOM     21  C   UNL     1       6.048   4.942  17.580  0.00  0.00    +0.000 C 
ATOM     22  O   UNL     1       6.421   4.300  18.562  0.00  0.00    +0.000 OA
ATOM     23  N   UNL     1       4.728   5.248  17.269  0.00  0.00    +0.000 N 
ATOM     24  H   UNL     1       4.545   5.638  16.350  0.00  0.00    +0.000 HD
BRANCH  23  25
ATOM     25  C   UNL     1       3.588   4.923  18.048  0.00  0.00    +0.000 A 
ATOM     26  C   UNL     1       3.277   5.557  19.256  0.00  0.00    +0.000 A 
ATOM     27  C   UNL     1       2.154   5.176  19.998  0.00  0.00    +0.000 A 
ATOM     28  C   UNL     1       1.333   4.160  19.528  0.00  0.00    +0.000 A 
ATOM     29  F   UNL     1       0.266   3.786  20.245  0.00  0.00    +0.000 F 
ATOM     30  C   UNL     1       1.606   3.532  18.319  0.00  0.00    +0.000 A 
ATOM     31  C   UNL     1       2.726   3.920  17.574  0.00  0.00    +0.000 A 
ENDBRANCH  23  25
ENDBRANCH  20  21
ENDBRANCH   3  20
TORSDOF 8
ENDMDL
MODEL 2
REMARK VINA RESULT:      -7.6      1.449      1.734
REMARK  Name = 
REMARK  9 active torsions:
REMARK  status: ('A' for Active; 'I' for Inactive)
REMARK    1  A    between atoms: C_1  and  C_2
REMARK    2  A    between atoms: C_2  and  N_3
REMARK    3  A    between atoms: C_4  and  S_5
REMARK    4  A    between atoms: S_5  and  C_6
REMARK    5  A    between atoms: C_6  and  C_7
REMARK    6  A    between atoms: N_9  and  C_10
REMARK    7  A    between atoms: C_10  and  C_11
REMARK    8  A    between atoms: N_13  and  C_14
REMARK    9  A    between atoms: C_23  and  C_24
REMARK                            x       y       z     vdW  Elec       q    Type
REMARK                         _______ _______ _______ _____ _____    ______ ____
ROOT
ATOM      1  C   UNL     1       7.878   7.548  17.812  0.00  0.00    +0.000 C 
ATOM      2  O   UNL     1       8.169   6.906  18.819  0.00  0.00    +0.000 OA
ATOM      3  N   UNL     1       7.434   6.929  16.666  0.00  0.00    +0.000 N 
ATOM      4  H   UNL     1       7.118   7.507  15.891  0.00  0.00    +0.000 HD
ENDROOT
BRANCH   1   5
ATOM      5  C   UNL     1       8.059   9.076  17.731  0.00  0.00    +0.000 C 
BRANCH   5   6
ATOM      6  S   UNL     1       9.035   9.663  19.140  0.00  0.00    +0.000 S 
BRANCH   6   8
ATOM      7  N   UNL     1       9.650  12.338  19.361  0.00  0.00    +0.000 N 
ATOM      8  C   UNL     1       9.751  11.159  18.655  0.00  0.00    +0.000 A 
ATOM      9  N   UNL     1      10.483  11.342  17.580  0.00  0.00    +0.000 NA
ATOM     10  N   UNL     1      10.904  12.652  17.584  0.00  0.00    +0.000 NA
ATOM     11  C   UNL     1      10.450  13.257  18.671  0.00  0.00    +0.000 A 
BRANCH  11  12
ATOM     12  C   UNL     1      10.730  14.672  19.011  0.00  0.00    +0.000 A 
ATOM     13  C   UNL     1       9.904  15.678  18.493  0.00  0.00    +0.000 A 
ATOM     14  C   UNL     1      10.167  17.007  18.803  0.00  0.00    +0.000 A 
ATOM     15  N   UNL     1      11.184  17.403  19.592  0.00  0.00    +0.000 NA
ATOM     16  C   UNL     1      11.992  16.435  20.061  0.00  0.00    +0.000 A 
ATOM     17  C   UNL     1      11.819  15.085  19.787  0.00  0.00    +0.000 A 
ENDBRANCH  11  12
BRANCH   7  19
ATOM     18  C   UNL     1       9.504  12.754  21.920  0.00  0.00    +0.000 C 
ATOM     19  C   UNL     1       8.872  12.670  20.539  0.00  0.00    +0.000 C 
ENDBRANCH   7  19
ENDBRANCH   6   8
ENDBRANCH   5   6
ENDBRANCH   1   5
BRANCH   3  20
ATOM     20  C   UNL     1       7.134   5.505  16.570  0.00  0.00    +0.000 C 
BRANCH  20  21
ATOM     21  C   UNL     1       5.719   5.267  17.120  0.00  0.00    +0.000 C 
ATOM     22  O   UNL     1       4.733   5.532  16.432  0.00  0.00    +0.000 OA
ATOM     23  N   UNL     1       5.688   4.761  18.414  0.00  0.00    +0.000 N 
ATOM     24  H   UNL     1       6.563   4.742  18.928  0.00  0.00    +0.000 HD
BRANCH  23  25
ATOM     25  C   UNL     1       4.525   4.413  19.149  0.00  0.00    +0.000 A 
ATOM     26  C   UNL     1       4.176   3.092  19.456  0.00  0.00    +0.000 A 
ATOM     27  C   UNL     1       3.002   2.805  20.159  0.00  0.00    +0.000 A 
ATOM     28  C   UNL     1       2.174   3.843  20.565  0.00  0.00    +0.000 A 
ATOM     29  F   UNL     1       1.043   3.568  21.226  0.00  0.00    +0.000 F 
ATOM     30  C   UNL     1       2.510   5.164  20.295  0.00  0.00    +0.000 A 
ATOM     31  C   UNL     1       3.691   5.450  19.598  0.00  0.00    +0.000 A 
ENDBRANCH  23  25
ENDBRANCH  20  21
ENDBRANCH   3  20
TORSDOF 8
ENDMDL
MODEL 3
REMARK VINA RESULT:      -7.6      6.154      8.429
REMARK  Name = 
REMARK  9 active torsions:
REMARK  status: ('A' for Active; 'I' for Inactive)
REMARK    1  A    between atoms: C_1  and  C_2
REMARK    2  A    between atoms: C_2  and  N_3
REMARK    3  A    between atoms: C_4  and  S_5
REMARK    4  A    between atoms: S_5  and  C_6
REMARK    5  A    between atoms: C_6  and  C_7
REMARK    6  A    between atoms: N_9  and  C_10
REMARK    7  A    between atoms: C_10  and  C_11
REMARK    8  A    between atoms: N_13  and  C_14
REMARK    9  A    between atoms: C_23  and  C_24
REMARK                            x       y       z     vdW  Elec       q    Type
REMARK                         _______ _______ _______ _____ _____    ______ ____
ROOT
ATOM      1  C   UNL     1       1.623   3.306  19.006  0.00  0.00    +0.000 C 
ATOM      2  O   UNL     1       0.876   2.837  18.149  0.00  0.00    +0.000 OA
ATOM      3  N   UNL     1       2.991   3.221  18.892  0.00  0.00    +0.000 N 
ATOM      4  H   UNL     1       3.568   3.704  19.578  0.00  0.00    +0.000 HD
ENDROOT
BRANCH   1   5
ATOM      5  C   UNL     1       1.087   3.951  20.298  0.00  0.00    +0.000 C 
BRANCH   5   6
ATOM      6  S   UNL     1       2.229   5.233  20.875  0.00  0.00    +0.000 S 
BRANCH   6   8
ATOM      7  N   UNL     1       1.466   7.773  20.135  0.00  0.00    +0.000 N 
ATOM      8  C   UNL     1       2.053   6.573  19.798  0.00  0.00    +0.000 A 
ATOM      9  N   UNL     1       2.470   6.611  18.554  0.00  0.00    +0.000 NA
ATOM     10  N   UNL     1       2.187   7.865  18.062  0.00  0.00    +0.000 NA
ATOM     11  C   UNL     1       1.623   8.595  19.012  0.00  0.00    +0.000 A 
BRANCH  11  12
ATOM     12  C   UNL     1       1.206  10.006  18.837  0.00  0.00    +0.000 A 
ATOM     13  C   UNL     1       2.181  10.984  18.601  0.00  0.00    +0.000 A 
ATOM     14  C   UNL     1       1.795  12.310  18.443  0.00  0.00    +0.000 A 
ATOM     15  N   UNL     1       0.516  12.728  18.496  0.00  0.00    +0.000 NA
ATOM     16  C   UNL     1      -0.411  11.790  18.754  0.00  0.00    +0.000 A 
ATOM     17  C   UNL     1      -0.118  10.446  18.946  0.00  0.00    +0.000 A 
ENDBRANCH  11  12
BRANCH   7  19
ATOM     18  C   UNL     1       1.340   9.221  22.287  0.00  0.00    +0.000 C 
ATOM     19  C   UNL     1       0.767   8.178  21.339  0.00  0.00    +0.000 C 
ENDBRANCH   7  19
ENDBRANCH   6   8
ENDBRANCH   5   6
ENDBRANCH   1   5
BRANCH   3  20
ATOM     20  C   UNL     1       3.684   2.711  17.716  0.00  0.00    +0.000 C 
BRANCH  20  21
ATOM     21  C   UNL     1       4.717   3.756  17.266  0.00  0.00    +0.000 C 
ATOM     22  O   UNL     1       5.165   3.731  16.119  0.00  0.00    +0.000 OA
ATOM     23  N   UNL     1       5.074   4.668  18.252  0.00  0.00    +0.000 N 
ATOM     24  H   UNL     1       4.756   4.478  19.197  0.00  0.00    +0.000 HD
BRANCH  23  25
ATOM     25  C   UNL     1       5.972   5.756  18.101  0.00  0.00    +0.000 A 
ATOM     26  C   UNL     1       5.730   6.839  17.249  0.00  0.00    +0.000 A 
ATOM     27  C   UNL     1       6.664   7.872  17.117  0.00  0.00    +0.000 A 
ATOM     28  C   UNL     1       7.844   7.826  17.847  0.00  0.00    +0.000 A 
ATOM     29  F   UNL     1       8.745   8.807  17.711  0.00  0.00    +0.000 F 
ATOM     30  C   UNL     1       8.097   6.775  18.719  0.00  0.00    +0.000 A 
ATOM     31  C   UNL     1       7.156   5.745  18.855  0.00  0.00    +0.000 A 
ENDBRANCH  23  25
ENDBRANCH  20  21
ENDBRANCH   3  20
TORSDOF 8
ENDMDL
MODEL 4
REMARK VINA RESULT:      -7.4      4.216      9.560
REMARK  Name = 
REMARK  9 active torsions:
REMARK  status: ('A' for Active; 'I' for Inactive)
REMARK    1  A    between atoms: C_1  and  C_2
REMARK    2  A    between atoms: C_2  and  N_3
REMARK    3  A    between atoms: C_4  and  S_5
REMARK    4  A    between atoms: S_5  and  C_6
REMARK    5  A    between atoms: C_6  and  C_7
REMARK    6  A    between atoms: N_9  and  C_10
REMARK    7  A    between atoms: C_10  and  C_11
REMARK    8  A    between atoms: N_13  and  C_14
REMARK    9  A    between atoms: C_23  and  C_24
REMARK                            x       y       z     vdW  Elec       q    Type
REMARK                         _______ _______ _______ _____ _____    ______ ____
ROOT
ATOM      1  C   UNL     1       6.549   5.225  17.042  0.00  0.00    +0.000 C 
ATOM      2  O   UNL     1       7.499   4.890  16.337  0.00  0.00    +0.000 OA
ATOM      3  N   UNL     1       6.730   5.950  18.197  0.00  0.00    +0.000 N 
ATOM      4  H   UNL     1       5.909   6.284  18.697  0.00  0.00    +0.000 HD
ENDROOT
BRANCH   1   5
ATOM      5  C   UNL     1       5.102   4.800  16.727  0.00  0.00    +0.000 C 
BRANCH   5   6
ATOM      6  S   UNL     1       4.150   4.645  18.260  0.00  0.00    +0.000 S 
BRANCH   6   8
ATOM      7  N   UNL     1       2.470   6.421  19.527  0.00  0.00    +0.000 N 
ATOM      8  C   UNL     1       3.337   6.152  18.491  0.00  0.00    +0.000 A 
ATOM      9  N   UNL     1       3.463   7.212  17.726  0.00  0.00    +0.000 NA
ATOM     10  N   UNL     1       2.696   8.213  18.277  0.00  0.00    +0.000 NA
ATOM     11  C   UNL     1       2.125   7.770  19.387  0.00  0.00    +0.000 A 
BRANCH  11  12
ATOM     12  C   UNL     1       1.246   8.592  20.251  0.00  0.00    +0.000 A 
ATOM     13  C   UNL     1       0.433   9.573  19.667  0.00  0.00    +0.000 A 
ATOM     14  C   UNL     1      -0.388  10.351  20.475  0.00  0.00    +0.000 A 
ATOM     15  N   UNL     1      -0.463  10.218  21.813  0.00  0.00    +0.000 NA
ATOM     16  C   UNL     1       0.342   9.297  22.371  0.00  0.00    +0.000 A 
ATOM     17  C   UNL     1       1.209   8.489  21.646  0.00  0.00    +0.000 A 
ENDBRANCH  11  12
BRANCH   7  19
ATOM     18  C   UNL     1       1.043   4.366  20.221  0.00  0.00    +0.000 C 
ATOM     19  C   UNL     1       1.931   5.554  20.557  0.00  0.00    +0.000 C 
ENDBRANCH   7  19
ENDBRANCH   6   8
ENDBRANCH   5   6
ENDBRANCH   1   5
BRANCH   3  20
ATOM     20  C   UNL     1       8.010   6.502  18.624  0.00  0.00    +0.000 C 
BRANCH  20  21
ATOM     21  C   UNL     1       8.102   7.955  18.133  0.00  0.00    +0.000 C 
ATOM     22  O   UNL     1       7.542   8.294  17.089  0.00  0.00    +0.000 OA
ATOM     23  N   UNL     1       8.861   8.786  18.949  0.00  0.00    +0.000 N 
ATOM     24  H   UNL     1       9.402   8.346  19.686  0.00  0.00    +0.000 HD
BRANCH  23  25
ATOM     25  C   UNL     1       9.081  10.175  18.756  0.00  0.00    +0.000 A 
ATOM     26  C   UNL     1       8.315  10.960  17.887  0.00  0.00    +0.000 A 
ATOM     27  C   UNL     1       8.595  12.320  17.714  0.00  0.00    +0.000 A 
ATOM     28  C   UNL     1       9.641  12.900  18.419  0.00  0.00    +0.000 A 
ATOM     29  F   UNL     1       9.917  14.199  18.243  0.00  0.00    +0.000 F 
ATOM     30  C   UNL     1      10.399  12.148  19.307  0.00  0.00    +0.000 A 
ATOM     31  C   UNL     1      10.113  10.788  19.484  0.00  0.00    +0.000 A 
ENDBRANCH  23  25
ENDBRANCH  20  21
ENDBRANCH   3  20
TORSDOF 8
ENDMDL
MODEL 5
REMARK VINA RESULT:      -7.4      1.965      2.360
REMARK  Name = 
REMARK  9 active torsions:
REMARK  status: ('A' for Active; 'I' for Inactive)
REMARK    1  A    between atoms: C_1  and  C_2
REMARK    2  A    between atoms: C_2  and  N_3
REMARK    3  A    between atoms: C_4  and  S_5
REMARK    4  A    between atoms: S_5  and  C_6
REMARK    5  A    between atoms: C_6  and  C_7
REMARK    6  A    between atoms: N_9  and  C_10
REMARK    7  A    between atoms: C_10  and  C_11
REMARK    8  A    between atoms: N_13  and  C_14
REMARK    9  A    between atoms: C_23  and  C_24
REMARK                            x       y       z     vdW  Elec       q    Type
REMARK                         _______ _______ _______ _____ _____    ______ ____
ROOT
ATOM      1  C   UNL     1       8.328   8.749  18.283  0.00  0.00    +0.000 C 
ATOM      2  O   UNL     1       7.709   9.051  17.264  0.00  0.00    +0.000 OA
ATOM      3  N   UNL     1       8.327   7.463  18.772  0.00  0.00    +0.000 N 
ATOM      4  H   UNL     1       8.927   7.242  19.563  0.00  0.00    +0.000 HD
ENDROOT
BRANCH   1   5
ATOM      5  C   UNL     1       9.083   9.795  19.125  0.00  0.00    +0.000 C 
BRANCH   5   6
ATOM      6  S   UNL     1       9.918  10.983  18.042  0.00  0.00    +0.000 S 
BRANCH   6   8
ATOM      7  N   UNL     1       9.167  13.531  18.764  0.00  0.00    +0.000 N 
ATOM      8  C   UNL     1       8.933  12.402  18.011  0.00  0.00    +0.000 A 
ATOM      9  N   UNL     1       7.869  12.575  17.261  0.00  0.00    +0.000 NA
ATOM     10  N   UNL     1       7.405  13.850  17.492  0.00  0.00    +0.000 NA
ATOM     11  C   UNL     1       8.198  14.458  18.360  0.00  0.00    +0.000 A 
BRANCH  11  12
ATOM     12  C   UNL     1       8.008  15.853  18.821  0.00  0.00    +0.000 A 
ATOM     13  C   UNL     1       6.907  16.164  19.631  0.00  0.00    +0.000 A 
ATOM     14  C   UNL     1       6.722  17.473  20.060  0.00  0.00    +0.000 A 
ATOM     15  N   UNL     1       7.552  18.487  19.749  0.00  0.00    +0.000 NA
ATOM     16  C   UNL     1       8.589  18.188  18.946  0.00  0.00    +0.000 A 
ATOM     17  C   UNL     1       8.842  16.915  18.453  0.00  0.00    +0.000 A 
ENDBRANCH  11  12
BRANCH   7  19
ATOM     18  C   UNL     1      11.525  14.335  19.495  0.00  0.00    +0.000 C 
ATOM     19  C   UNL     1      10.142  13.786  19.807  0.00  0.00    +0.000 C 
ENDBRANCH   7  19
ENDBRANCH   6   8
ENDBRANCH   5   6
ENDBRANCH   1   5
BRANCH   3  20
ATOM     20  C   UNL     1       7.731   6.326  18.081  0.00  0.00    +0.000 C 
BRANCH  20  21
ATOM     21  C   UNL     1       6.805   5.590  19.062  0.00  0.00    +0.000 C 
ATOM     22  O   UNL     1       7.209   5.284  20.185  0.00  0.00    +0.000 OA
ATOM     23  N   UNL     1       5.541   5.314  18.556  0.00  0.00    +0.000 N 
ATOM     24  H   UNL     1       5.392   5.472  17.565  0.00  0.00    +0.000 HD
BRANCH  23  25
ATOM     25  C   UNL     1       4.479   4.682  19.254  0.00  0.00    +0.000 A 
ATOM     26  C   UNL     1       4.411   3.300  19.460  0.00  0.00    +0.000 A 
ATOM     27  C   UNL     1       3.325   2.727  20.132  0.00  0.00    +0.000 A 
ATOM     28  C   UNL     1       2.305   3.541  20.606  0.00  0.00    +0.000 A 
ATOM     29  F   UNL     1       1.259   2.992  21.236  0.00  0.00    +0.000 F 
ATOM     30  C   UNL     1       2.362   4.918  20.436  0.00  0.00    +0.000 A 
ATOM     31  C   UNL     1       3.454   5.491  19.771  0.00  0.00    +0.000 A 
ENDBRANCH  23  25
ENDBRANCH  20  21
ENDBRANCH   3  20
TORSDOF 8
ENDMDL
MODEL 6
REMARK VINA RESULT:      -7.4      1.262      1.717
REMARK  Name = 
REMARK  9 active torsions:
REMARK  status: ('A' for Active; 'I' for Inactive)
REMARK    1  A    between atoms: C_1  and  C_2
REMARK    2  A    between atoms: C_2  and  N_3
REMARK    3  A    between atoms: C_4  and  S_5
REMARK    4  A    between atoms: S_5  and  C_6
REMARK    5  A    between atoms: C_6  and  C_7
REMARK    6  A    between atoms: N_9  and  C_10
REMARK    7  A    between atoms: C_10  and  C_11
REMARK    8  A    between atoms: N_13  and  C_14
REMARK    9  A    between atoms: C_23  and  C_24
REMARK                            x       y       z     vdW  Elec       q    Type
REMARK                         _______ _______ _______ _____ _____    ______ ____
ROOT
ATOM      1  C   UNL     1       7.982   7.207  18.095  0.00  0.00    +0.000 C 
ATOM      2  O   UNL     1       8.453   6.910  19.191  0.00  0.00    +0.000 OA
ATOM      3  N   UNL     1       7.590   6.244  17.194  0.00  0.00    +0.000 N 
ATOM      4  H   UNL     1       7.122   6.537  16.340  0.00  0.00    +0.000 HD
ENDROOT
BRANCH   1   5
ATOM      5  C   UNL     1       7.865   8.668  17.620  0.00  0.00    +0.000 C 
BRANCH   5   6
ATOM      6  S   UNL     1       8.924   9.738  18.628  0.00  0.00    +0.000 S 
BRANCH   6   8
ATOM      7  N   UNL     1       8.966  12.479  18.886  0.00  0.00    +0.000 N 
ATOM      8  C   UNL     1       8.532  11.366  18.201  0.00  0.00    +0.000 A 
ATOM      9  N   UNL     1       7.799  11.729  17.174  0.00  0.00    +0.000 NA
ATOM     10  N   UNL     1       7.769  13.104  17.154  0.00  0.00    +0.000 NA
ATOM     11  C   UNL     1       8.503  13.576  18.150  0.00  0.00    +0.000 A 
BRANCH  11  12
ATOM     12  C   UNL     1       8.712  15.019  18.416  0.00  0.00    +0.000 A 
ATOM     13  C   UNL     1       9.973  15.584  18.179  0.00  0.00    +0.000 A 
ATOM     14  C   UNL     1      10.175  16.935  18.434  0.00  0.00    +0.000 A 
ATOM     15  N   UNL     1       9.217  17.761  18.897  0.00  0.00    +0.000 NA
ATOM     16  C   UNL     1       8.018  17.206  19.151  0.00  0.00    +0.000 A 
ATOM     17  C   UNL     1       7.731  15.863  18.947  0.00  0.00    +0.000 A 
ENDBRANCH  11  12
BRANCH   7  19
ATOM     18  C   UNL     1      11.039  11.904  20.340  0.00  0.00    +0.000 C 
ATOM     19  C   UNL     1       9.701  12.595  20.131  0.00  0.00    +0.000 C 
ENDBRANCH   7  19
ENDBRANCH   6   8
ENDBRANCH   5   6
ENDBRANCH   1   5
BRANCH   3  20
ATOM     20  C   UNL     1       7.559   4.816  17.487  0.00  0.00    +0.000 C 
BRANCH  20  21
ATOM     21  C   UNL     1       6.219   4.485  18.162  0.00  0.00    +0.000 C 
ATOM     22  O   UNL     1       6.070   4.678  19.370  0.00  0.00    +0.000 OA
ATOM     23  N   UNL     1       5.261   3.961  17.304  0.00  0.00    +0.000 N 
ATOM     24  H   UNL     1       5.565   3.700  16.371  0.00  0.00    +0.000 HD
BRANCH  23  25
ATOM     25  C   UNL     1       3.932   3.604  17.650  0.00  0.00    +0.000 A 
ATOM     26  C   UNL     1       2.858   4.501  17.600  0.00  0.00    +0.000 A 
ATOM     27  C   UNL     1       1.572   4.103  17.980  0.00  0.00    +0.000 A 
ATOM     28  C   UNL     1       1.356   2.800  18.407  0.00  0.00    +0.000 A 
ATOM     29  F   UNL     1       0.128   2.423  18.784  0.00  0.00    +0.000 F 
ATOM     30  C   UNL     1       2.399   1.884  18.441  0.00  0.00    +0.000 A 
ATOM     31  C   UNL     1       3.685   2.282  18.053  0.00  0.00    +0.000 A 
ENDBRANCH  23  25
ENDBRANCH  20  21
ENDBRANCH   3  20
TORSDOF 8
ENDMDL
MODEL 7
REMARK VINA RESULT:      -7.2      1.548      2.307
REMARK  Name = 
REMARK  9 active torsions:
REMARK  status: ('A' for Active; 'I' for Inactive)
REMARK    1  A    between atoms: C_1  and  C_2
REMARK    2  A    between atoms: C_2  and  N_3
REMARK    3  A    between atoms: C_4  and  S_5
REMARK    4  A    between atoms: S_5  and  C_6
REMARK    5  A    between atoms: C_6  and  C_7
REMARK    6  A    between atoms: N_9  and  C_10
REMARK    7  A    between atoms: C_10  and  C_11
REMARK    8  A    between atoms: N_13  and  C_14
REMARK    9  A    between atoms: C_23  and  C_24
REMARK                            x       y       z     vdW  Elec       q    Type
REMARK                         _______ _______ _______ _____ _____    ______ ____
ROOT
ATOM      1  C   UNL     1       7.363   6.463  17.366  0.00  0.00    +0.000 C 
ATOM      2  O   UNL     1       7.781   5.313  17.251  0.00  0.00    +0.000 OA
ATOM      3  N   UNL     1       6.296   6.919  16.627  0.00  0.00    +0.000 N 
ATOM      4  H   UNL     1       5.928   7.847  16.823  0.00  0.00    +0.000 HD
ENDROOT
BRANCH   1   5
ATOM      5  C   UNL     1       8.044   7.496  18.284  0.00  0.00    +0.000 C 
BRANCH   5   6
ATOM      6  S   UNL     1       7.745   9.172  17.666  0.00  0.00    +0.000 S 
BRANCH   6   8
ATOM      7  N   UNL     1       8.915  11.574  18.333  0.00  0.00    +0.000 N 
ATOM      8  C   UNL     1       8.786  10.222  18.562  0.00  0.00    +0.000 A 
ATOM      9  N   UNL     1       9.551   9.861  19.566  0.00  0.00    +0.000 NA
ATOM     10  N   UNL     1      10.176  10.994  20.036  0.00  0.00    +0.000 NA
ATOM     11  C   UNL     1       9.773  12.043  19.335  0.00  0.00    +0.000 A 
BRANCH  11  12
ATOM     12  C   UNL     1      10.227  13.431  19.585  0.00  0.00    +0.000 A 
ATOM     13  C   UNL     1       9.650  14.164  20.631  0.00  0.00    +0.000 A 
ATOM     14  C   UNL     1      10.068  15.469  20.864  0.00  0.00    +0.000 A 
ATOM     15  N   UNL     1      11.018  16.090  20.139  0.00  0.00    +0.000 NA
ATOM     16  C   UNL     1      11.546  15.393  19.117  0.00  0.00    +0.000 A 
ATOM     17  C   UNL     1      11.176  14.093  18.798  0.00  0.00    +0.000 A 
ENDBRANCH  11  12
BRANCH   7  19
ATOM     18  C   UNL     1       7.463  13.594  17.589  0.00  0.00    +0.000 C 
ATOM     19  C   UNL     1       8.369  12.411  17.283  0.00  0.00    +0.000 C 
ENDBRANCH   7  19
ENDBRANCH   6   8
ENDBRANCH   5   6
ENDBRANCH   1   5
BRANCH   3  20
ATOM     20  C   UNL     1       5.482   6.076  15.761  0.00  0.00    +0.000 C 
BRANCH  20  21
ATOM     21  C   UNL     1       4.745   5.047  16.633  0.00  0.00    +0.000 C 
ATOM     22  O   UNL     1       5.021   3.850  16.547  0.00  0.00    +0.000 OA
ATOM     23  N   UNL     1       3.777   5.595  17.467  0.00  0.00    +0.000 N 
ATOM     24  H   UNL     1       3.536   6.569  17.322  0.00  0.00    +0.000 HD
BRANCH  23  25
ATOM     25  C   UNL     1       2.978   4.886  18.400  0.00  0.00    +0.000 A 
ATOM     26  C   UNL     1       1.925   4.044  18.026  0.00  0.00    +0.000 A 
ATOM     27  C   UNL     1       1.150   3.391  18.991  0.00  0.00    +0.000 A 
ATOM     28  C   UNL     1       1.434   3.574  20.338  0.00  0.00    +0.000 A 
ATOM     29  F   UNL     1       0.684   2.961  21.262  0.00  0.00    +0.000 F 
ATOM     30  C   UNL     1       2.490   4.385  20.735  0.00  0.00    +0.000 A 
ATOM     31  C   UNL     1       3.269   5.032  19.766  0.00  0.00    +0.000 A 
ENDBRANCH  23  25
ENDBRANCH  20  21
ENDBRANCH   3  20
TORSDOF 8
ENDMDL
MODEL 8
REMARK VINA RESULT:      -7.2      4.043      9.494
REMARK  Name = 
REMARK  9 active torsions:
REMARK  status: ('A' for Active; 'I' for Inactive)
REMARK    1  A    between atoms: C_1  and  C_2
REMARK    2  A    between atoms: C_2  and  N_3
REMARK    3  A    between atoms: C_4  and  S_5
REMARK    4  A    between atoms: S_5  and  C_6
REMARK    5  A    between atoms: C_6  and  C_7
REMARK    6  A    between atoms: N_9  and  C_10
REMARK    7  A    between atoms: C_10  and  C_11
REMARK    8  A    between atoms: N_13  and  C_14
REMARK    9  A    between atoms: C_23  and  C_24
REMARK                            x       y       z     vdW  Elec       q    Type
REMARK                         _______ _______ _______ _____ _____    ______ ____
ROOT
ATOM      1  C   UNL     1       7.000   5.028  18.018  0.00  0.00    +0.000 C 
ATOM      2  O   UNL     1       6.732   4.737  19.182  0.00  0.00    +0.000 OA
ATOM      3  N   UNL     1       7.646   6.200  17.698  0.00  0.00    +0.000 N 
ATOM      4  H   UNL     1       7.928   6.353  16.733  0.00  0.00    +0.000 HD
ENDROOT
BRANCH   1   5
ATOM      5  C   UNL     1       6.570   4.144  16.831  0.00  0.00    +0.000 C 
BRANCH   5   6
ATOM      6  S   UNL     1       4.763   4.051  16.746  0.00  0.00    +0.000 S 
BRANCH   6   8
ATOM      7  N   UNL     1       3.118   5.910  17.940  0.00  0.00    +0.000 N 
ATOM      8  C   UNL     1       4.170   5.637  17.093  0.00  0.00    +0.000 A 
ATOM      9  N   UNL     1       4.658   6.756  16.609  0.00  0.00    +0.000 NA
ATOM     10  N   UNL     1       3.945   7.793  17.167  0.00  0.00    +0.000 NA
ATOM     11  C   UNL     1       3.042   7.306  18.005  0.00  0.00    +0.000 A 
BRANCH  11  12
ATOM     12  C   UNL     1       2.112   8.143  18.799  0.00  0.00    +0.000 A 
ATOM     13  C   UNL     1       1.908   7.845  20.153  0.00  0.00    +0.000 A 
ATOM     14  C   UNL     1       1.030   8.623  20.900  0.00  0.00    +0.000 A 
ATOM     15  N   UNL     1       0.351   9.673  20.400  0.00  0.00    +0.000 NA
ATOM     16  C   UNL     1       0.528   9.934  19.093  0.00  0.00    +0.000 A 
ATOM     17  C   UNL     1       1.367   9.200  18.265  0.00  0.00    +0.000 A 
ENDBRANCH  11  12
BRANCH   7  19
ATOM     18  C   UNL     1       2.618   4.215  19.842  0.00  0.00    +0.000 C 
ATOM     19  C   UNL     1       2.199   5.020  18.621  0.00  0.00    +0.000 C 
ENDBRANCH   7  19
ENDBRANCH   6   8
ENDBRANCH   5   6
ENDBRANCH   1   5
BRANCH   3  20
ATOM     20  C   UNL     1       8.191   7.127  18.682  0.00  0.00    +0.000 C 
BRANCH  20  21
ATOM     21  C   UNL     1       8.267   8.524  18.046  0.00  0.00    +0.000 C 
ATOM     22  O   UNL     1       7.664   8.762  16.998  0.00  0.00    +0.000 OA
ATOM     23  N   UNL     1       9.062   9.426  18.743  0.00  0.00    +0.000 N 
ATOM     24  H   UNL     1       9.632   9.058  19.496  0.00  0.00    +0.000 HD
BRANCH  23  25
ATOM     25  C   UNL     1       9.277  10.787  18.404  0.00  0.00    +0.000 A 
ATOM     26  C   UNL     1       8.239  11.683  18.125  0.00  0.00    +0.000 A 
ATOM     27  C   UNL     1       8.511  13.008  17.769  0.00  0.00    +0.000 A 
ATOM     28  C   UNL     1       9.827  13.443  17.698  0.00  0.00    +0.000 A 
ATOM     29  F   UNL     1      10.088  14.708  17.343  0.00  0.00    +0.000 F 
ATOM     30  C   UNL     1      10.875  12.581  17.995  0.00  0.00    +0.000 A 
ATOM     31  C   UNL     1      10.600  11.256  18.359  0.00  0.00    +0.000 A 
ENDBRANCH  23  25
ENDBRANCH  20  21
ENDBRANCH   3  20
TORSDOF 8
ENDMDL
MODEL 9
REMARK VINA RESULT:      -7.1      6.786      8.366
REMARK  Name = 
REMARK  9 active torsions:
REMARK  status: ('A' for Active; 'I' for Inactive)
REMARK    1  A    between atoms: C_1  and  C_2
REMARK    2  A    between atoms: C_2  and  N_3
REMARK    3  A    between atoms: C_4  and  S_5
REMARK    4  A    between atoms: S_5  and  C_6
REMARK    5  A    between atoms: C_6  and  C_7
REMARK    6  A    between atoms: N_9  and  C_10
REMARK    7  A    between atoms: C_10  and  C_11
REMARK    8  A    between atoms: N_13  and  C_14
REMARK    9  A    between atoms: C_23  and  C_24
REMARK                            x       y       z     vdW  Elec       q    Type
REMARK                         _______ _______ _______ _____ _____    ______ ____
ROOT
ATOM      1  C   UNL     1       4.411   4.402  18.976  0.00  0.00    +0.000 C 
ATOM      2  O   UNL     1       4.894   3.276  18.884  0.00  0.00    +0.000 OA
ATOM      3  N   UNL     1       5.205   5.526  19.013  0.00  0.00    +0.000 N 
ATOM      4  H   UNL     1       4.758   6.440  18.997  0.00  0.00    +0.000 HD
ENDROOT
BRANCH   1   5
ATOM      5  C   UNL     1       2.896   4.636  19.132  0.00  0.00    +0.000 C 
BRANCH   5   6
ATOM      6  S   UNL     1       2.591   6.008  20.275  0.00  0.00    +0.000 S 
BRANCH   6   8
ATOM      7  N   UNL     1       1.436   8.444  19.717  0.00  0.00    +0.000 N 
ATOM      8  C   UNL     1       2.214   7.386  19.303  0.00  0.00    +0.000 A 
ATOM      9  N   UNL     1       2.636   7.592  18.077  0.00  0.00    +0.000 NA
ATOM     10  N   UNL     1       2.160   8.820  17.678  0.00  0.00    +0.000 NA
ATOM     11  C   UNL     1       1.472   9.369  18.667  0.00  0.00    +0.000 A 
BRANCH  11  12
ATOM     12  C   UNL     1       0.834  10.705  18.593  0.00  0.00    +0.000 A 
ATOM     13  C   UNL     1       1.623  11.851  18.756  0.00  0.00    +0.000 A 
ATOM     14  C   UNL     1       1.028  13.106  18.694  0.00  0.00    +0.000 A 
ATOM     15  N   UNL     1      -0.287  13.300  18.476  0.00  0.00    +0.000 NA
ATOM     16  C   UNL     1      -1.044  12.195  18.351  0.00  0.00    +0.000 A 
ATOM     17  C   UNL     1      -0.540  10.903  18.420  0.00  0.00    +0.000 A 
ENDBRANCH  11  12
BRANCH   7  19
ATOM     18  C   UNL     1       1.231   9.364  22.137  0.00  0.00    +0.000 C 
ATOM     19  C   UNL     1       0.664   8.631  20.931  0.00  0.00    +0.000 C 
ENDBRANCH   7  19
ENDBRANCH   6   8
ENDBRANCH   5   6
ENDBRANCH   1   5
BRANCH   3  20
ATOM     20  C   UNL     1       6.648   5.514  18.811  0.00  0.00    +0.000 C 
BRANCH  20  21
ATOM     21  C   UNL     1       6.933   5.747  17.319  0.00  0.00    +0.000 C 
ATOM     22  O   UNL     1       7.401   6.821  16.937  0.00  0.00    +0.000 OA
ATOM     23  N   UNL     1       6.606   4.673  16.500  0.00  0.00    +0.000 N 
ATOM     24  H   UNL     1       6.078   3.914  16.918  0.00  0.00    +0.000 HD
BRANCH  23  25
ATOM     25  C   UNL     1       6.799   4.602  15.096  0.00  0.00    +0.000 A 
ATOM     26  C   UNL     1       7.780   5.333  14.417  0.00  0.00    +0.000 A 
ATOM     27  C   UNL     1       7.906   5.246  13.026  0.00  0.00    +0.000 A 
ATOM     28  C   UNL     1       7.053   4.417  12.311  0.00  0.00    +0.000 A 
ATOM     29  F   UNL     1       7.165   4.344  10.978  0.00  0.00    +0.000 F 
ATOM     30  C   UNL     1       6.088   3.661  12.964  0.00  0.00    +0.000 A 
ATOM     31  C   UNL     1       5.967   3.745  14.357  0.00  0.00    +0.000 A 
ENDBRANCH  23  25
ENDBRANCH  20  21
ENDBRANCH   3  20
TORSDOF 8
ENDMDL
