MODEL 1
REMARK VINA RESULT:      -7.6      0.000      0.000
REMARK  Name = 
REMARK  17 active torsions:
REMARK  status: ('A' for Active; 'I' for Inactive)
REMARK    1  A    between atoms: C_1  and  C_2
REMARK    2  A    between atoms: C_2  and  C_3
REMARK    3  A    between atoms: C_3  and  C_4
REMARK    4  A    between atoms: C_4  and  N_5
REMARK    5  A    between atoms: C_4  and  C_16
REMARK    6  A    between atoms: C_6  and  C_8
REMARK    7  A    between atoms: C_11  and  C_12
REMARK    8  A    between atoms: C_16  and  C_17
REMARK    9  A    between atoms: C_16  and  C_18
REMARK   10  A    between atoms: C_16  and  C_19
REMARK   11  A    between atoms: N_21  and  C_22
REMARK   12  A    between atoms: C_22  and  C_23
REMARK   13  A    between atoms: C_22  and  C_30
REMARK   14  A    between atoms: C_23  and  C_24
REMARK   15  A    between atoms: C_30  and  O_32
REMARK   16  A    between atoms: O_32  and  C_33
REMARK   17  A    between atoms: C_33  and  C_34
REMARK                            x       y       z     vdW  Elec       q    Type
REMARK                         _______ _______ _______ _____ _____    ______ ____
ROOT
ATOM      1  C   UNL     1       1.739   3.499  18.439  0.00  0.00    +0.000 C 
ATOM      2  C   UNL     1       0.946   2.184  18.414  0.00  0.00    +0.000 C 
ATOM      3  C   UNL     1       1.108   4.474  17.408  0.00  0.00    +0.000 C 
ENDROOT
BRANCH   1   4
ATOM      4  C   UNL     1       3.195   3.341  17.906  0.00  0.00    +0.000 C 
ATOM      5  O   UNL     1       3.822   2.293  18.053  0.00  0.00    +0.000 OA
ATOM      6  N   UNL     1       3.784   4.466  17.354  0.00  0.00    +0.000 N 
ATOM      7  H   UNL     1       3.268   5.337  17.300  0.00  0.00    +0.000 HD
BRANCH   6   8
ATOM      8  C   UNL     1       5.175   4.556  16.854  0.00  0.00    +0.000 C 
BRANCH   8   9
ATOM      9  C   UNL     1       6.119   5.019  17.984  0.00  0.00    +0.000 C 
ATOM     10  O   UNL     1       6.552   4.281  18.862  0.00  0.00    +0.000 OA
BRANCH   9  11
ATOM     11  O   UNL     1       6.416   6.346  17.853  0.00  0.00    +0.000 OA
BRANCH  11  12
ATOM     12  C   UNL     1       7.711   6.766  18.316  0.00  0.00    +0.000 C 
ATOM     13  C   UNL     1       8.041   8.147  17.785  0.00  0.00    +0.000 C 
ENDBRANCH  11  12
ENDBRANCH   9  11
ENDBRANCH   8   9
BRANCH   8  14
ATOM     14  C   UNL     1       5.393   5.465  15.631  0.00  0.00    +0.000 C 
BRANCH  14  15
ATOM     15  C   UNL     1       5.998   4.804  14.410  0.00  0.00    +0.000 A 
ATOM     16  C   UNL     1       5.294   3.840  13.682  0.00  0.00    +0.000 A 
ATOM     17  C   UNL     1       5.802   3.374  12.468  0.00  0.00    +0.000 A 
ATOM     18  C   UNL     1       7.023   3.846  11.986  0.00  0.00    +0.000 A 
ATOM     19  C   UNL     1       7.770   4.753  12.738  0.00  0.00    +0.000 A 
ATOM     20  C   UNL     1       7.249   5.223  13.939  0.00  0.00    +0.000 A 
ENDBRANCH  14  15
ENDBRANCH   8  14
ENDBRANCH   6   8
ENDBRANCH   1   4
BRANCH   1  21
ATOM     21  C   UNL     1       1.707   4.119  19.915  0.00  0.00    +0.000 C 
BRANCH  21  22
ATOM     22  N   UNL     1       1.355   5.574  19.973  0.00  0.00    +0.000 N 
ATOM     23  C   UNL     1       2.219   6.643  19.766  0.00  0.00    +0.000 C 
ATOM     24  O   UNL     1       3.376   6.519  19.379  0.00  0.00    +0.000 OA
ATOM     25  H   UNL     1       0.383   5.770  20.177  0.00  0.00    +0.000 HD
BRANCH  23  26
ATOM     26  C   UNL     1       1.711   8.035  20.022  0.00  0.00    +0.000 A 
ATOM     27  C   UNL     1       1.544   8.995  19.018  0.00  0.00    +0.000 A 
ATOM     28  C   UNL     1       1.106  10.293  19.341  0.00  0.00    +0.000 A 
ATOM     29  C   UNL     1       0.808  10.644  20.664  0.00  0.00    +0.000 A 
ATOM     30  C   UNL     1       0.905   9.666  21.661  0.00  0.00    +0.000 A 
ATOM     31  C   UNL     1       1.347   8.374  21.338  0.00  0.00    +0.000 A 
BRANCH  29  32
ATOM     32  C   UNL     1       0.400  11.990  20.998  0.00  0.00    +0.000 C 
ATOM     33  N   UNL     1       0.087  13.068  21.277  0.00  0.00    +0.000 NA
ENDBRANCH  29  32
ENDBRANCH  23  26
ENDBRANCH  21  22
BRANCH  21  34
ATOM     34  C   UNL     1       2.989   3.788  20.739  0.00  0.00    +0.000 C 
BRANCH  34  36
ATOM     35  C   UNL     1       1.435   2.299  22.040  0.00  0.00    +0.000 C 
ATOM     36  C   UNL     1       2.885   2.550  21.638  0.00  0.00    +0.000 C 
ENDBRANCH  34  36
ENDBRANCH  21  34
ENDBRANCH   1  21
TORSDOF 13
ENDMDL
MODEL 2
REMARK VINA RESULT:      -7.4      3.722      6.547
REMARK  Name = 
REMARK  17 active torsions:
REMARK  status: ('A' for Active; 'I' for Inactive)
REMARK    1  A    between atoms: C_1  and  C_2
REMARK    2  A    between atoms: C_2  and  C_3
REMARK    3  A    between atoms: C_3  and  C_4
REMARK    4  A    between atoms: C_4  and  N_5
REMARK    5  A    between atoms: C_4  and  C_16
REMARK    6  A    between atoms: C_6  and  C_8
REMARK    7  A    between atoms: C_11  and  C_12
REMARK    8  A    between atoms: C_16  and  C_17
REMARK    9  A    between atoms: C_16  and  C_18
REMARK   10  A    between atoms: C_16  and  C_19
REMARK   11  A    between atoms: N_21  and  C_22
REMARK   12  A    between atoms: C_22  and  C_23
REMARK   13  A    between atoms: C_22  and  C_30
REMARK   14  A    between atoms: C_23  and  C_24
REMARK   15  A    between atoms: C_30  and  O_32
REMARK   16  A    between atoms: O_32  and  C_33
REMARK   17  A    between atoms: C_33  and  C_34
REMARK                            x       y       z     vdW  Elec       q    Type
REMARK                         _______ _______ _______ _____ _____    ______ ____
ROOT
ATOM      1  C   UNL     1       0.683   9.153  21.271  0.00  0.00    +0.000 C 
ATOM      2  C   UNL     1       1.493   9.396  22.554  0.00  0.00    +0.000 C 
ATOM      3  C   UNL     1      -0.518   8.230  21.615  0.00  0.00    +0.000 C 
ENDROOT
BRANCH   1   4
ATOM      4  C   UNL     1       1.459   8.317  20.211  0.00  0.00    +0.000 C 
ATOM      5  O   UNL     1       1.678   8.756  19.083  0.00  0.00    +0.000 OA
ATOM      6  N   UNL     1       1.797   7.021  20.562  0.00  0.00    +0.000 N 
ATOM      7  H   UNL     1       1.551   6.660  21.476  0.00  0.00    +0.000 HD
BRANCH   6   8
ATOM      8  C   UNL     1       2.470   6.036  19.684  0.00  0.00    +0.000 C 
BRANCH   8   9
ATOM      9  C   UNL     1       2.057   4.602  20.079  0.00  0.00    +0.000 C 
ATOM     10  O   UNL     1       2.447   4.029  21.089  0.00  0.00    +0.000 OA
BRANCH   9  11
ATOM     11  O   UNL     1       1.187   4.079  19.163  0.00  0.00    +0.000 OA
BRANCH  11  12
ATOM     12  C   UNL     1       1.551   4.210  17.779  0.00  0.00    +0.000 C 
ATOM     13  C   UNL     1       2.328   2.993  17.318  0.00  0.00    +0.000 C 
ENDBRANCH  11  12
ENDBRANCH   9  11
ENDBRANCH   8   9
BRANCH   8  14
ATOM     14  C   UNL     1       4.007   6.108  19.646  0.00  0.00    +0.000 C 
BRANCH  14  15
ATOM     15  C   UNL     1       4.651   5.856  18.299  0.00  0.00    +0.000 A 
ATOM     16  C   UNL     1       5.323   4.660  18.026  0.00  0.00    +0.000 A 
ATOM     17  C   UNL     1       5.756   4.383  16.728  0.00  0.00    +0.000 A 
ATOM     18  C   UNL     1       5.545   5.305  15.702  0.00  0.00    +0.000 A 
ATOM     19  C   UNL     1       4.942   6.532  15.975  0.00  0.00    +0.000 A 
ATOM     20  C   UNL     1       4.499   6.793  17.269  0.00  0.00    +0.000 A 
ENDBRANCH  14  15
ENDBRANCH   8  14
ENDBRANCH   6   8
ENDBRANCH   1   4
BRANCH   1  21
ATOM     21  C   UNL     1       0.182  10.554  20.679  0.00  0.00    +0.000 C 
BRANCH  21  22
ATOM     22  N   UNL     1      -0.500  10.461  19.349  0.00  0.00    +0.000 N 
ATOM     23  C   UNL     1      -1.697  11.069  18.989  0.00  0.00    +0.000 C 
ATOM     24  O   UNL     1      -2.292  11.875  19.698  0.00  0.00    +0.000 OA
ATOM     25  H   UNL     1      -0.016   9.902  18.658  0.00  0.00    +0.000 HD
BRANCH  23  26
ATOM     26  C   UNL     1      -2.302  10.730  17.655  0.00  0.00    +0.000 A 
ATOM     27  C   UNL     1      -1.771   9.770  16.786  0.00  0.00    +0.000 A 
ATOM     28  C   UNL     1      -2.368   9.539  15.533  0.00  0.00    +0.000 A 
ATOM     29  C   UNL     1      -3.512  10.243  15.138  0.00  0.00    +0.000 A 
ATOM     30  C   UNL     1      -4.088  11.154  16.033  0.00  0.00    +0.000 A 
ATOM     31  C   UNL     1      -3.489  11.387  17.281  0.00  0.00    +0.000 A 
BRANCH  29  32
ATOM     32  C   UNL     1      -4.096  10.034  13.833  0.00  0.00    +0.000 C 
ATOM     33  N   UNL     1      -4.553   9.853  12.786  0.00  0.00    +0.000 NA
ENDBRANCH  29  32
ENDBRANCH  23  26
ENDBRANCH  21  22
BRANCH  21  34
ATOM     34  C   UNL     1       1.291  11.650  20.698  0.00  0.00    +0.000 C 
BRANCH  34  36
ATOM     35  C   UNL     1       2.550  13.468  19.500  0.00  0.00    +0.000 C 
ATOM     36  C   UNL     1       1.622  12.269  19.334  0.00  0.00    +0.000 C 
ENDBRANCH  34  36
ENDBRANCH  21  34
ENDBRANCH   1  21
TORSDOF 13
ENDMDL
MODEL 3
REMARK VINA RESULT:      -7.2      1.485      1.688
REMARK  Name = 
REMARK  17 active torsions:
REMARK  status: ('A' for Active; 'I' for Inactive)
REMARK    1  A    between atoms: C_1  and  C_2
REMARK    2  A    between atoms: C_2  and  C_3
REMARK    3  A    between atoms: C_3  and  C_4
REMARK    4  A    between atoms: C_4  and  N_5
REMARK    5  A    between atoms: C_4  and  C_16
REMARK    6  A    between atoms: C_6  and  C_8
REMARK    7  A    between atoms: C_11  and  C_12
REMARK    8  A    between atoms: C_16  and  C_17
REMARK    9  A    between atoms: C_16  and  C_18
REMARK   10  A    between atoms: C_16  and  C_19
REMARK   11  A    between atoms: N_21  and  C_22
REMARK   12  A    between atoms: C_22  and  C_23
REMARK   13  A    between atoms: C_22  and  C_30
REMARK   14  A    between atoms: C_23  and  C_24
REMARK   15  A    between atoms: C_30  and  O_32
REMARK   16  A    between atoms: O_32  and  C_33
REMARK   17  A    between atoms: C_33  and  C_34
REMARK                            x       y       z     vdW  Elec       q    Type
REMARK                         _______ _______ _______ _____ _____    ______ ____
ROOT
ATOM      1  C   UNL     1       3.284   3.621  17.874  0.00  0.00    +0.000 C 
ATOM      2  C   UNL     1       3.701   2.196  18.266  0.00  0.00    +0.000 C 
ATOM      3  C   UNL     1       2.321   3.536  16.658  0.00  0.00    +0.000 C 
ENDROOT
BRANCH   1   4
ATOM      4  C   UNL     1       4.464   4.467  17.310  0.00  0.00    +0.000 C 
ATOM      5  O   UNL     1       4.328   5.660  17.042  0.00  0.00    +0.000 OA
ATOM      6  N   UNL     1       5.639   3.791  17.027  0.00  0.00    +0.000 N 
ATOM      7  H   UNL     1       5.707   2.794  17.199  0.00  0.00    +0.000 HD
BRANCH   6   8
ATOM      8  C   UNL     1       6.854   4.384  16.424  0.00  0.00    +0.000 C 
BRANCH   8   9
ATOM      9  C   UNL     1       7.525   5.353  17.420  0.00  0.00    +0.000 C 
ATOM     10  O   UNL     1       7.912   5.029  18.537  0.00  0.00    +0.000 OA
BRANCH   9  11
ATOM     11  O   UNL     1       7.643   6.602  16.877  0.00  0.00    +0.000 OA
BRANCH  11  12
ATOM     12  C   UNL     1       7.168   7.700  17.675  0.00  0.00    +0.000 C 
ATOM     13  C   UNL     1       8.270   8.720  17.881  0.00  0.00    +0.000 C 
ENDBRANCH  11  12
ENDBRANCH   9  11
ENDBRANCH   8   9
BRANCH   8  14
ATOM     14  C   UNL     1       6.651   5.120  15.088  0.00  0.00    +0.000 C 
BRANCH  14  15
ATOM     15  C   UNL     1       6.247   4.259  13.909  0.00  0.00    +0.000 A 
ATOM     16  C   UNL     1       4.914   3.890  13.702  0.00  0.00    +0.000 A 
ATOM     17  C   UNL     1       4.543   3.245  12.521  0.00  0.00    +0.000 A 
ATOM     18  C   UNL     1       5.501   2.941  11.552  0.00  0.00    +0.000 A 
ATOM     19  C   UNL     1       6.844   3.238  11.778  0.00  0.00    +0.000 A 
ATOM     20  C   UNL     1       7.202   3.896  12.951  0.00  0.00    +0.000 A 
ENDBRANCH  14  15
ENDBRANCH   8  14
ENDBRANCH   6   8
ENDBRANCH   1   4
BRANCH   1  21
ATOM     21  C   UNL     1       2.577   4.337  19.120  0.00  0.00    +0.000 C 
BRANCH  21  22
ATOM     22  N   UNL     1       2.386   5.814  18.966  0.00  0.00    +0.000 N 
ATOM     23  C   UNL     1       1.936   6.696  19.941  0.00  0.00    +0.000 C 
ATOM     24  O   UNL     1       1.751   6.382  21.112  0.00  0.00    +0.000 OA
ATOM     25  H   UNL     1       2.625   6.183  18.054  0.00  0.00    +0.000 HD
BRANCH  23  26
ATOM     26  C   UNL     1       1.661   8.121  19.547  0.00  0.00    +0.000 A 
ATOM     27  C   UNL     1       2.148   8.708  18.374  0.00  0.00    +0.000 A 
ATOM     28  C   UNL     1       1.886  10.062  18.095  0.00  0.00    +0.000 A 
ATOM     29  C   UNL     1       1.118  10.843  18.968  0.00  0.00    +0.000 A 
ATOM     30  C   UNL     1       0.569  10.241  20.107  0.00  0.00    +0.000 A 
ATOM     31  C   UNL     1       0.835   8.891  20.386  0.00  0.00    +0.000 A 
BRANCH  29  32
ATOM     32  C   UNL     1       0.887  12.244  18.700  0.00  0.00    +0.000 C 
ATOM     33  N   UNL     1       0.704  13.362  18.467  0.00  0.00    +0.000 NA
ENDBRANCH  29  32
ENDBRANCH  23  26
ENDBRANCH  21  22
BRANCH  21  34
ATOM     34  C   UNL     1       3.236   3.966  20.484  0.00  0.00    +0.000 C 
BRANCH  34  36
ATOM     35  C   UNL     1       0.991   2.875  20.800  0.00  0.00    +0.000 C 
ATOM     36  C   UNL     1       2.356   3.138  21.430  0.00  0.00    +0.000 C 
ENDBRANCH  34  36
ENDBRANCH  21  34
ENDBRANCH   1  21
TORSDOF 13
ENDMDL
MODEL 4
REMARK VINA RESULT:      -7.1      1.410      1.738
REMARK  Name = 
REMARK  17 active torsions:
REMARK  status: ('A' for Active; 'I' for Inactive)
REMARK    1  A    between atoms: C_1  and  C_2
REMARK    2  A    between atoms: C_2  and  C_3
REMARK    3  A    between atoms: C_3  and  C_4
REMARK    4  A    between atoms: C_4  and  N_5
REMARK    5  A    between atoms: C_4  and  C_16
REMARK    6  A    between atoms: C_6  and  C_8
REMARK    7  A    between atoms: C_11  and  C_12
REMARK    8  A    between atoms: C_16  and  C_17
REMARK    9  A    between atoms: C_16  and  C_18
REMARK   10  A    between atoms: C_16  and  C_19
REMARK   11  A    between atoms: N_21  and  C_22
REMARK   12  A    between atoms: C_22  and  C_23
REMARK   13  A    between atoms: C_22  and  C_30
REMARK   14  A    between atoms: C_23  and  C_24
REMARK   15  A    between atoms: C_30  and  O_32
REMARK   16  A    between atoms: O_32  and  C_33
REMARK   17  A    between atoms: C_33  and  C_34
REMARK                            x       y       z     vdW  Elec       q    Type
REMARK                         _______ _______ _______ _____ _____    ______ ____
ROOT
ATOM      1  C   UNL     1       3.321   3.538  18.000  0.00  0.00    +0.000 C 
ATOM      2  C   UNL     1       3.767   2.082  18.202  0.00  0.00    +0.000 C 
ATOM      3  C   UNL     1       2.270   3.577  16.858  0.00  0.00    +0.000 C 
ENDROOT
BRANCH   1   4
ATOM      4  C   UNL     1       4.456   4.450  17.444  0.00  0.00    +0.000 C 
ATOM      5  O   UNL     1       4.224   5.589  17.042  0.00  0.00    +0.000 OA
ATOM      6  N   UNL     1       5.713   3.883  17.327  0.00  0.00    +0.000 N 
ATOM      7  H   UNL     1       5.867   2.921  17.607  0.00  0.00    +0.000 HD
BRANCH   6   8
ATOM      8  C   UNL     1       6.911   4.545  16.761  0.00  0.00    +0.000 C 
BRANCH   8   9
ATOM      9  C   UNL     1       7.608   5.398  17.842  0.00  0.00    +0.000 C 
ATOM     10  O   UNL     1       8.111   4.939  18.861  0.00  0.00    +0.000 OA
BRANCH   9  11
ATOM     11  O   UNL     1       7.605   6.720  17.493  0.00  0.00    +0.000 OA
BRANCH  11  12
ATOM     12  C   UNL     1       8.311   7.620  18.365  0.00  0.00    +0.000 C 
ATOM     13  C   UNL     1       8.083   9.056  17.939  0.00  0.00    +0.000 C 
ENDBRANCH  11  12
ENDBRANCH   9  11
ENDBRANCH   8   9
BRANCH   8  14
ATOM     14  C   UNL     1       6.671   5.426  15.523  0.00  0.00    +0.000 C 
BRANCH  14  15
ATOM     15  C   UNL     1       6.772   4.729  14.182  0.00  0.00    +0.000 A 
ATOM     16  C   UNL     1       5.940   3.653  13.857  0.00  0.00    +0.000 A 
ATOM     17  C   UNL     1       5.933   3.142  12.558  0.00  0.00    +0.000 A 
ATOM     18  C   UNL     1       6.773   3.683  11.583  0.00  0.00    +0.000 A 
ATOM     19  C   UNL     1       7.660   4.707  11.912  0.00  0.00    +0.000 A 
ATOM     20  C   UNL     1       7.648   5.221  13.205  0.00  0.00    +0.000 A 
ENDBRANCH  14  15
ENDBRANCH   8  14
ENDBRANCH   6   8
ENDBRANCH   1   4
BRANCH   1  21
ATOM     21  C   UNL     1       2.711   4.109  19.365  0.00  0.00    +0.000 C 
BRANCH  21  22
ATOM     22  N   UNL     1       2.560   5.598  19.408  0.00  0.00    +0.000 N 
ATOM     23  C   UNL     1       1.555   6.310  20.052  0.00  0.00    +0.000 C 
ATOM     24  O   UNL     1       0.717   5.794  20.785  0.00  0.00    +0.000 OA
ATOM     25  H   UNL     1       3.280   6.115  18.919  0.00  0.00    +0.000 HD
BRANCH  23  26
ATOM     26  C   UNL     1       1.487   7.798  19.850  0.00  0.00    +0.000 A 
ATOM     27  C   UNL     1       1.116   8.700  20.853  0.00  0.00    +0.000 A 
ATOM     28  C   UNL     1       1.032  10.077  20.575  0.00  0.00    +0.000 A 
ATOM     29  C   UNL     1       1.338  10.576  19.302  0.00  0.00    +0.000 A 
ATOM     30  C   UNL     1       1.778   9.685  18.316  0.00  0.00    +0.000 A 
ATOM     31  C   UNL     1       1.857   8.311  18.593  0.00  0.00    +0.000 A 
BRANCH  29  32
ATOM     32  C   UNL     1       1.209  11.985  19.009  0.00  0.00    +0.000 C 
ATOM     33  N   UNL     1       1.123  13.114  18.774  0.00  0.00    +0.000 NA
ENDBRANCH  29  32
ENDBRANCH  23  26
ENDBRANCH  21  22
BRANCH  21  34
ATOM     34  C   UNL     1       3.433   3.552  20.630  0.00  0.00    +0.000 C 
BRANCH  34  36
ATOM     35  C   UNL     1       1.117   2.678  21.078  0.00  0.00    +0.000 C 
ATOM     36  C   UNL     1       2.574   2.655  21.531  0.00  0.00    +0.000 C 
ENDBRANCH  34  36
ENDBRANCH  21  34
ENDBRANCH   1  21
TORSDOF 13
ENDMDL
MODEL 5
REMARK VINA RESULT:      -7.0      3.686      6.576
REMARK  Name = 
REMARK  17 active torsions:
REMARK  status: ('A' for Active; 'I' for Inactive)
REMARK    1  A    between atoms: C_1  and  C_2
REMARK    2  A    between atoms: C_2  and  C_3
REMARK    3  A    between atoms: C_3  and  C_4
REMARK    4  A    between atoms: C_4  and  N_5
REMARK    5  A    between atoms: C_4  and  C_16
REMARK    6  A    between atoms: C_6  and  C_8
REMARK    7  A    between atoms: C_11  and  C_12
REMARK    8  A    between atoms: C_16  and  C_17
REMARK    9  A    between atoms: C_16  and  C_18
REMARK   10  A    between atoms: C_16  and  C_19
REMARK   11  A    between atoms: N_21  and  C_22
REMARK   12  A    between atoms: C_22  and  C_23
REMARK   13  A    between atoms: C_22  and  C_30
REMARK   14  A    between atoms: C_23  and  C_24
REMARK   15  A    between atoms: C_30  and  O_32
REMARK   16  A    between atoms: O_32  and  C_33
REMARK   17  A    between atoms: C_33  and  C_34
REMARK                            x       y       z     vdW  Elec       q    Type
REMARK                         _______ _______ _______ _____ _____    ______ ____
ROOT
ATOM      1  C   UNL     1       0.787   9.078  21.131  0.00  0.00    +0.000 C 
ATOM      2  C   UNL     1       1.707   9.246  22.350  0.00  0.00    +0.000 C 
ATOM      3  C   UNL     1      -0.353   8.093  21.508  0.00  0.00    +0.000 C 
ENDROOT
BRANCH   1   4
ATOM      4  C   UNL     1       1.480   8.350  19.941  0.00  0.00    +0.000 C 
ATOM      5  O   UNL     1       1.519   8.851  18.818  0.00  0.00    +0.000 OA
ATOM      6  N   UNL     1       1.957   7.073  20.181  0.00  0.00    +0.000 N 
ATOM      7  H   UNL     1       1.858   6.656  21.100  0.00  0.00    +0.000 HD
BRANCH   6   8
ATOM      8  C   UNL     1       2.584   6.181  19.178  0.00  0.00    +0.000 C 
BRANCH   8   9
ATOM      9  C   UNL     1       1.701   4.937  18.946  0.00  0.00    +0.000 C 
ATOM     10  O   UNL     1       1.496   4.437  17.845  0.00  0.00    +0.000 OA
BRANCH   9  11
ATOM     11  O   UNL     1       1.205   4.466  20.129  0.00  0.00    +0.000 OA
BRANCH  11  12
ATOM     12  C   UNL     1       1.388   3.065  20.394  0.00  0.00    +0.000 C 
ATOM     13  C   UNL     1       2.247   2.866  21.626  0.00  0.00    +0.000 C 
ENDBRANCH  11  12
ENDBRANCH   9  11
ENDBRANCH   8   9
BRANCH   8  14
ATOM     14  C   UNL     1       4.015   5.712  19.496  0.00  0.00    +0.000 C 
BRANCH  14  15
ATOM     15  C   UNL     1       4.911   5.457  18.302  0.00  0.00    +0.000 A 
ATOM     16  C   UNL     1       4.911   4.224  17.643  0.00  0.00    +0.000 A 
ATOM     17  C   UNL     1       5.615   4.071  16.447  0.00  0.00    +0.000 A 
ATOM     18  C   UNL     1       6.341   5.137  15.914  0.00  0.00    +0.000 A 
ATOM     19  C   UNL     1       6.409   6.349  16.599  0.00  0.00    +0.000 A 
ATOM     20  C   UNL     1       5.692   6.497  17.783  0.00  0.00    +0.000 A 
ENDBRANCH  14  15
ENDBRANCH   8  14
ENDBRANCH   6   8
ENDBRANCH   1   4
BRANCH   1  21
ATOM     21  C   UNL     1       0.199  10.503  20.700  0.00  0.00    +0.000 C 
BRANCH  21  22
ATOM     22  N   UNL     1      -0.525  10.509  19.389  0.00  0.00    +0.000 N 
ATOM     23  C   UNL     1      -1.759  11.093  19.127  0.00  0.00    +0.000 C 
ATOM     24  O   UNL     1      -2.362  11.799  19.929  0.00  0.00    +0.000 OA
ATOM     25  H   UNL     1      -0.042  10.041  18.632  0.00  0.00    +0.000 HD
BRANCH  23  26
ATOM     26  C   UNL     1      -2.394  10.858  17.785  0.00  0.00    +0.000 A 
ATOM     27  C   UNL     1      -3.554  11.510  17.352  0.00  0.00    +0.000 A 
ATOM     28  C   UNL     1      -4.115  11.203  16.098  0.00  0.00    +0.000 A 
ATOM     29  C   UNL     1      -3.517  10.262  15.251  0.00  0.00    +0.000 A 
ATOM     30  C   UNL     1      -2.317   9.660  15.650  0.00  0.00    +0.000 A 
ATOM     31  C   UNL     1      -1.761   9.963  16.902  0.00  0.00    +0.000 A 
BRANCH  29  32
ATOM     32  C   UNL     1      -4.121   9.919  13.983  0.00  0.00    +0.000 C 
ATOM     33  N   UNL     1      -4.598   9.628  12.971  0.00  0.00    +0.000 NA
ENDBRANCH  29  32
ENDBRANCH  23  26
ENDBRANCH  21  22
BRANCH  21  34
ATOM     34  C   UNL     1       1.253  11.647  20.797  0.00  0.00    +0.000 C 
BRANCH  34  36
ATOM     35  C   UNL     1       0.991  13.724  19.402  0.00  0.00    +0.000 C 
ATOM     36  C   UNL     1       1.603  12.327  19.468  0.00  0.00    +0.000 C 
ENDBRANCH  34  36
ENDBRANCH  21  34
ENDBRANCH   1  21
TORSDOF 13
ENDMDL
MODEL 6
REMARK VINA RESULT:      -6.8      1.385      1.717
REMARK  Name = 
REMARK  17 active torsions:
REMARK  status: ('A' for Active; 'I' for Inactive)
REMARK    1  A    between atoms: C_1  and  C_2
REMARK    2  A    between atoms: C_2  and  C_3
REMARK    3  A    between atoms: C_3  and  C_4
REMARK    4  A    between atoms: C_4  and  N_5
REMARK    5  A    between atoms: C_4  and  C_16
REMARK    6  A    between atoms: C_6  and  C_8
REMARK    7  A    between atoms: C_11  and  C_12
REMARK    8  A    between atoms: C_16  and  C_17
REMARK    9  A    between atoms: C_16  and  C_18
REMARK   10  A    between atoms: C_16  and  C_19
REMARK   11  A    between atoms: N_21  and  C_22
REMARK   12  A    between atoms: C_22  and  C_23
REMARK   13  A    between atoms: C_22  and  C_30
REMARK   14  A    between atoms: C_23  and  C_24
REMARK   15  A    between atoms: C_30  and  O_32
REMARK   16  A    between atoms: O_32  and  C_33
REMARK   17  A    between atoms: C_33  and  C_34
REMARK                            x       y       z     vdW  Elec       q    Type
REMARK                         _______ _______ _______ _____ _____    ______ ____
ROOT
ATOM      1  C   UNL     1       3.418   3.318  18.174  0.00  0.00    +0.000 C 
ATOM      2  C   UNL     1       3.075   1.823  18.249  0.00  0.00    +0.000 C 
ATOM      3  C   UNL     1       2.960   3.859  16.792  0.00  0.00    +0.000 C 
ENDROOT
BRANCH   1   4
ATOM      4  C   UNL     1       4.952   3.590  18.150  0.00  0.00    +0.000 C 
ATOM      5  O   UNL     1       5.647   3.432  19.154  0.00  0.00    +0.000 OA
ATOM      6  N   UNL     1       5.476   4.114  16.981  0.00  0.00    +0.000 N 
ATOM      7  H   UNL     1       4.873   4.293  16.187  0.00  0.00    +0.000 HD
BRANCH   6   8
ATOM      8  C   UNL     1       6.888   4.509  16.768  0.00  0.00    +0.000 C 
BRANCH   8   9
ATOM      9  C   UNL     1       7.444   5.200  18.031  0.00  0.00    +0.000 C 
ATOM     10  O   UNL     1       8.145   4.640  18.867  0.00  0.00    +0.000 OA
BRANCH   9  11
ATOM     11  O   UNL     1       7.066   6.513  18.073  0.00  0.00    +0.000 OA
BRANCH  11  12
ATOM     12  C   UNL     1       8.079   7.465  18.437  0.00  0.00    +0.000 C 
ATOM     13  C   UNL     1       7.865   8.773  17.702  0.00  0.00    +0.000 C 
ENDBRANCH  11  12
ENDBRANCH   9  11
ENDBRANCH   8   9
BRANCH   8  14
ATOM     14  C   UNL     1       7.156   5.418  15.556  0.00  0.00    +0.000 C 
BRANCH  14  15
ATOM     15  C   UNL     1       6.830   4.831  14.199  0.00  0.00    +0.000 A 
ATOM     16  C   UNL     1       7.673   5.024  13.101  0.00  0.00    +0.000 A 
ATOM     17  C   UNL     1       7.440   4.332  11.911  0.00  0.00    +0.000 A 
ATOM     18  C   UNL     1       6.353   3.464  11.800  0.00  0.00    +0.000 A 
ATOM     19  C   UNL     1       5.462   3.319  12.863  0.00  0.00    +0.000 A 
ATOM     20  C   UNL     1       5.711   4.001  14.051  0.00  0.00    +0.000 A 
ENDBRANCH  14  15
ENDBRANCH   8  14
ENDBRANCH   6   8
ENDBRANCH   1   4
BRANCH   1  21
ATOM     21  C   UNL     1       2.691   4.098  19.368  0.00  0.00    +0.000 C 
BRANCH  21  22
ATOM     22  N   UNL     1       2.542   5.572  19.152  0.00  0.00    +0.000 N 
ATOM     23  C   UNL     1       1.988   6.487  20.040  0.00  0.00    +0.000 C 
ATOM     24  O   UNL     1       1.656   6.207  21.188  0.00  0.00    +0.000 OA
ATOM     25  H   UNL     1       2.897   5.913  18.268  0.00  0.00    +0.000 HD
BRANCH  23  26
ATOM     26  C   UNL     1       1.785   7.903  19.578  0.00  0.00    +0.000 A 
ATOM     27  C   UNL     1       2.182   8.372  18.321  0.00  0.00    +0.000 A 
ATOM     28  C   UNL     1       1.999   9.724  17.976  0.00  0.00    +0.000 A 
ATOM     29  C   UNL     1       1.397  10.620  18.868  0.00  0.00    +0.000 A 
ATOM     30  C   UNL     1       0.933  10.139  20.099  0.00  0.00    +0.000 A 
ATOM     31  C   UNL     1       1.121   8.792  20.444  0.00  0.00    +0.000 A 
BRANCH  29  32
ATOM     32  C   UNL     1       1.250  12.017  18.527  0.00  0.00    +0.000 C 
ATOM     33  N   UNL     1       1.131  13.138  18.271  0.00  0.00    +0.000 NA
ENDBRANCH  29  32
ENDBRANCH  23  26
ENDBRANCH  21  22
BRANCH  21  34
ATOM     34  C   UNL     1       3.297   3.764  20.766  0.00  0.00    +0.000 C 
BRANCH  34  36
ATOM     35  C   UNL     1       1.004   2.791  21.118  0.00  0.00    +0.000 C 
ATOM     36  C   UNL     1       2.431   2.862  21.655  0.00  0.00    +0.000 C 
ENDBRANCH  34  36
ENDBRANCH  21  34
ENDBRANCH   1  21
TORSDOF 13
ENDMDL
MODEL 7
REMARK VINA RESULT:      -6.8      1.301      1.840
REMARK  Name = 
REMARK  17 active torsions:
REMARK  status: ('A' for Active; 'I' for Inactive)
REMARK    1  A    between atoms: C_1  and  C_2
REMARK    2  A    between atoms: C_2  and  C_3
REMARK    3  A    between atoms: C_3  and  C_4
REMARK    4  A    between atoms: C_4  and  N_5
REMARK    5  A    between atoms: C_4  and  C_16
REMARK    6  A    between atoms: C_6  and  C_8
REMARK    7  A    between atoms: C_11  and  C_12
REMARK    8  A    between atoms: C_16  and  C_17
REMARK    9  A    between atoms: C_16  and  C_18
REMARK   10  A    between atoms: C_16  and  C_19
REMARK   11  A    between atoms: N_21  and  C_22
REMARK   12  A    between atoms: C_22  and  C_23
REMARK   13  A    between atoms: C_22  and  C_30
REMARK   14  A    between atoms: C_23  and  C_24
REMARK   15  A    between atoms: C_30  and  O_32
REMARK   16  A    between atoms: O_32  and  C_33
REMARK   17  A    between atoms: C_33  and  C_34
REMARK                            x       y       z     vdW  Elec       q    Type
REMARK                         _______ _______ _______ _____ _____    ______ ____
ROOT
ATOM      1  C   UNL     1       2.813   4.025  18.268  0.00  0.00    +0.000 C 
ATOM      2  C   UNL     1       3.046   2.527  18.514  0.00  0.00    +0.000 C 
ATOM      3  C   UNL     1       1.693   4.180  17.203  0.00  0.00    +0.000 C 
ENDROOT
BRANCH   1   4
ATOM      4  C   UNL     1       4.026   4.725  17.585  0.00  0.00    +0.000 C 
ATOM      5  O   UNL     1       3.961   5.894  17.205  0.00  0.00    +0.000 OA
ATOM      6  N   UNL     1       5.139   3.942  17.334  0.00  0.00    +0.000 N 
ATOM      7  H   UNL     1       5.146   2.964  17.601  0.00  0.00    +0.000 HD
BRANCH   6   8
ATOM      8  C   UNL     1       6.368   4.386  16.636  0.00  0.00    +0.000 C 
BRANCH   8   9
ATOM      9  C   UNL     1       7.354   5.015  17.642  0.00  0.00    +0.000 C 
ATOM     10  O   UNL     1       7.675   4.496  18.705  0.00  0.00    +0.000 OA
BRANCH   9  11
ATOM     11  O   UNL     1       7.829   6.208  17.174  0.00  0.00    +0.000 OA
BRANCH  11  12
ATOM     12  C   UNL     1       8.033   7.249  18.145  0.00  0.00    +0.000 C 
ATOM     13  C   UNL     1       7.438   8.554  17.656  0.00  0.00    +0.000 C 
ENDBRANCH  11  12
ENDBRANCH   9  11
ENDBRANCH   8   9
BRANCH   8  14
ATOM     14  C   UNL     1       6.163   5.370  15.471  0.00  0.00    +0.000 C 
BRANCH  14  15
ATOM     15  C   UNL     1       6.314   4.794  14.079  0.00  0.00    +0.000 A 
ATOM     16  C   UNL     1       7.404   5.126  13.269  0.00  0.00    +0.000 A 
ATOM     17  C   UNL     1       7.609   4.452  12.063  0.00  0.00    +0.000 A 
ATOM     18  C   UNL     1       6.717   3.463  11.647  0.00  0.00    +0.000 A 
ATOM     19  C   UNL     1       5.586   3.174  12.410  0.00  0.00    +0.000 A 
ATOM     20  C   UNL     1       5.398   3.839  13.618  0.00  0.00    +0.000 A 
ENDBRANCH  14  15
ENDBRANCH   8  14
ENDBRANCH   6   8
ENDBRANCH   1   4
BRANCH   1  21
ATOM     21  C   UNL     1       2.405   4.740  19.641  0.00  0.00    +0.000 C 
BRANCH  21  22
ATOM     22  N   UNL     1       2.293   6.231  19.560  0.00  0.00    +0.000 N 
ATOM     23  C   UNL     1       1.507   7.046  20.366  0.00  0.00    +0.000 C 
ATOM     24  O   UNL     1       0.889   6.643  21.346  0.00  0.00    +0.000 OA
ATOM     25  H   UNL     1       2.863   6.664  18.844  0.00  0.00    +0.000 HD
BRANCH  23  26
ATOM     26  C   UNL     1       1.408   8.508  20.028  0.00  0.00    +0.000 A 
ATOM     27  C   UNL     1       1.013   9.490  20.943  0.00  0.00    +0.000 A 
ATOM     28  C   UNL     1       0.901  10.833  20.540  0.00  0.00    +0.000 A 
ATOM     29  C   UNL     1       1.203  11.220  19.228  0.00  0.00    +0.000 A 
ATOM     30  C   UNL     1       1.667  10.253  18.329  0.00  0.00    +0.000 A 
ATOM     31  C   UNL     1       1.773   8.912  18.731  0.00  0.00    +0.000 A 
BRANCH  29  32
ATOM     32  C   UNL     1       1.045  12.594  18.807  0.00  0.00    +0.000 C 
ATOM     33  N   UNL     1       0.928  13.698  18.484  0.00  0.00    +0.000 NA
ENDBRANCH  29  32
ENDBRANCH  23  26
ENDBRANCH  21  22
BRANCH  21  34
ATOM     34  C   UNL     1       3.281   4.279  20.846  0.00  0.00    +0.000 C 
BRANCH  34  36
ATOM     35  C   UNL     1       1.296   2.848  21.427  0.00  0.00    +0.000 C 
ATOM     36  C   UNL     1       2.810   2.996  21.543  0.00  0.00    +0.000 C 
ENDBRANCH  34  36
ENDBRANCH  21  34
ENDBRANCH   1  21
TORSDOF 13
ENDMDL
MODEL 8
REMARK VINA RESULT:      -6.8      3.236      7.044
REMARK  Name = 
REMARK  17 active torsions:
REMARK  status: ('A' for Active; 'I' for Inactive)
REMARK    1  A    between atoms: C_1  and  C_2
REMARK    2  A    between atoms: C_2  and  C_3
REMARK    3  A    between atoms: C_3  and  C_4
REMARK    4  A    between atoms: C_4  and  N_5
REMARK    5  A    between atoms: C_4  and  C_16
REMARK    6  A    between atoms: C_6  and  C_8
REMARK    7  A    between atoms: C_11  and  C_12
REMARK    8  A    between atoms: C_16  and  C_17
REMARK    9  A    between atoms: C_16  and  C_18
REMARK   10  A    between atoms: C_16  and  C_19
REMARK   11  A    between atoms: N_21  and  C_22
REMARK   12  A    between atoms: C_22  and  C_23
REMARK   13  A    between atoms: C_22  and  C_30
REMARK   14  A    between atoms: C_23  and  C_24
REMARK   15  A    between atoms: C_30  and  O_32
REMARK   16  A    between atoms: O_32  and  C_33
REMARK   17  A    between atoms: C_33  and  C_34
REMARK                            x       y       z     vdW  Elec       q    Type
REMARK                         _______ _______ _______ _____ _____    ______ ____
ROOT
ATOM      1  C   UNL     1       0.985  10.372  18.933  0.00  0.00    +0.000 C 
ATOM      2  C   UNL     1      -0.452  10.401  18.392  0.00  0.00    +0.000 C 
ATOM      3  C   UNL     1       1.955  10.725  17.773  0.00  0.00    +0.000 C 
ENDROOT
BRANCH   1   4
ATOM      4  C   UNL     1       1.453   8.942  19.339  0.00  0.00    +0.000 C 
ATOM      5  O   UNL     1       1.360   8.543  20.499  0.00  0.00    +0.000 OA
ATOM      6  N   UNL     1       2.072   8.185  18.360  0.00  0.00    +0.000 N 
ATOM      7  H   UNL     1       2.193   8.559  17.426  0.00  0.00    +0.000 HD
BRANCH   6   8
ATOM      8  C   UNL     1       2.652   6.835  18.549  0.00  0.00    +0.000 C 
BRANCH   8   9
ATOM      9  C   UNL     1       3.964   6.702  17.746  0.00  0.00    +0.000 C 
ATOM     10  O   UNL     1       4.552   7.647  17.232  0.00  0.00    +0.000 OA
BRANCH   9  11
ATOM     11  O   UNL     1       4.382   5.402  17.712  0.00  0.00    +0.000 OA
BRANCH  11  12
ATOM     12  C   UNL     1       5.348   5.007  18.702  0.00  0.00    +0.000 C 
ATOM     13  C   UNL     1       5.057   3.605  19.196  0.00  0.00    +0.000 C 
ENDBRANCH  11  12
ENDBRANCH   9  11
ENDBRANCH   8   9
BRANCH   8  14
ATOM     14  C   UNL     1       1.736   5.652  18.186  0.00  0.00    +0.000 C 
BRANCH  14  15
ATOM     15  C   UNL     1       1.619   4.559  19.228  0.00  0.00    +0.000 A 
ATOM     16  C   UNL     1       1.312   3.243  18.869  0.00  0.00    +0.000 A 
ATOM     17  C   UNL     1       1.380   2.225  19.822  0.00  0.00    +0.000 A 
ATOM     18  C   UNL     1       1.729   2.516  21.142  0.00  0.00    +0.000 A 
ATOM     19  C   UNL     1       1.966   3.834  21.529  0.00  0.00    +0.000 A 
ATOM     20  C   UNL     1       1.912   4.840  20.569  0.00  0.00    +0.000 A 
ENDBRANCH  14  15
ENDBRANCH   8  14
ENDBRANCH   6   8
ENDBRANCH   1   4
BRANCH   1  21
ATOM     21  C   UNL     1       1.126  11.413  20.141  0.00  0.00    +0.000 C 
BRANCH  21  22
ATOM     22  N   UNL     1      -0.174  11.909  20.693  0.00  0.00    +0.000 N 
ATOM     23  C   UNL     1      -0.706  11.620  21.944  0.00  0.00    +0.000 C 
ATOM     24  O   UNL     1      -0.101  11.005  22.816  0.00  0.00    +0.000 OA
ATOM     25  H   UNL     1      -0.694  12.522  20.077  0.00  0.00    +0.000 HD
BRANCH  23  26
ATOM     26  C   UNL     1      -2.101  12.088  22.256  0.00  0.00    +0.000 A 
ATOM     27  C   UNL     1      -2.979  12.601  21.296  0.00  0.00    +0.000 A 
ATOM     28  C   UNL     1      -4.254  13.062  21.672  0.00  0.00    +0.000 A 
ATOM     29  C   UNL     1      -4.680  12.997  23.005  0.00  0.00    +0.000 A 
ATOM     30  C   UNL     1      -3.832  12.418  23.958  0.00  0.00    +0.000 A 
ATOM     31  C   UNL     1      -2.558  11.964  23.581  0.00  0.00    +0.000 A 
BRANCH  29  32
ATOM     32  C   UNL     1      -5.973  13.510  23.395  0.00  0.00    +0.000 C 
ATOM     33  N   UNL     1      -7.008  13.932  23.692  0.00  0.00    +0.000 NA
ENDBRANCH  29  32
ENDBRANCH  23  26
ENDBRANCH  21  22
BRANCH  21  34
ATOM     34  C   UNL     1       2.115  12.576  19.825  0.00  0.00    +0.000 C 
BRANCH  34  36
ATOM     35  C   UNL     1       3.490  14.118  21.260  0.00  0.00    +0.000 C 
ATOM     36  C   UNL     1       2.079  13.750  20.811  0.00  0.00    +0.000 C 
ENDBRANCH  34  36
ENDBRANCH  21  34
ENDBRANCH   1  21
TORSDOF 13
ENDMDL
MODEL 9
REMARK VINA RESULT:      -6.7      1.549      2.234
REMARK  Name = 
REMARK  17 active torsions:
REMARK  status: ('A' for Active; 'I' for Inactive)
REMARK    1  A    between atoms: C_1  and  C_2
REMARK    2  A    between atoms: C_2  and  C_3
REMARK    3  A    between atoms: C_3  and  C_4
REMARK    4  A    between atoms: C_4  and  N_5
REMARK    5  A    between atoms: C_4  and  C_16
REMARK    6  A    between atoms: C_6  and  C_8
REMARK    7  A    between atoms: C_11  and  C_12
REMARK    8  A    between atoms: C_16  and  C_17
REMARK    9  A    between atoms: C_16  and  C_18
REMARK   10  A    between atoms: C_16  and  C_19
REMARK   11  A    between atoms: N_21  and  C_22
REMARK   12  A    between atoms: C_22  and  C_23
REMARK   13  A    between atoms: C_22  and  C_30
REMARK   14  A    between atoms: C_23  and  C_24
REMARK   15  A    between atoms: C_30  and  O_32
REMARK   16  A    between atoms: O_32  and  C_33
REMARK   17  A    between atoms: C_33  and  C_34
REMARK                            x       y       z     vdW  Elec       q    Type
REMARK                         _______ _______ _______ _____ _____    ______ ____
ROOT
ATOM      1  C   UNL     1       3.248   3.352  17.977  0.00  0.00    +0.000 C 
ATOM      2  C   UNL     1       3.873   1.991  18.316  0.00  0.00    +0.000 C 
ATOM      3  C   UNL     1       2.089   3.124  16.969  0.00  0.00    +0.000 C 
ENDROOT
BRANCH   1   4
ATOM      4  C   UNL     1       4.210   4.282  17.179  0.00  0.00    +0.000 C 
ATOM      5  O   UNL     1       3.973   5.481  17.038  0.00  0.00    +0.000 OA
ATOM      6  N   UNL     1       5.285   3.677  16.550  0.00  0.00    +0.000 N 
ATOM      7  H   UNL     1       5.425   2.676  16.629  0.00  0.00    +0.000 HD
BRANCH   6   8
ATOM      8  C   UNL     1       6.277   4.359  15.687  0.00  0.00    +0.000 C 
BRANCH   8   9
ATOM      9  C   UNL     1       6.972   5.494  16.469  0.00  0.00    +0.000 C 
ATOM     10  O   UNL     1       6.902   6.679  16.164  0.00  0.00    +0.000 OA
BRANCH   9  11
ATOM     11  O   UNL     1       7.647   4.997  17.548  0.00  0.00    +0.000 OA
BRANCH  11  12
ATOM     12  C   UNL     1       7.941   5.923  18.608  0.00  0.00    +0.000 C 
ATOM     13  C   UNL     1       7.519   5.349  19.945  0.00  0.00    +0.000 C 
ENDBRANCH  11  12
ENDBRANCH   9  11
ENDBRANCH   8   9
BRANCH   8  14
ATOM     14  C   UNL     1       5.738   4.935  14.366  0.00  0.00    +0.000 C 
BRANCH  14  15
ATOM     15  C   UNL     1       5.867   4.042  13.150  0.00  0.00    +0.000 A 
ATOM     16  C   UNL     1       7.119   3.666  12.653  0.00  0.00    +0.000 A 
ATOM     17  C   UNL     1       7.210   2.708  11.641  0.00  0.00    +0.000 A 
ATOM     18  C   UNL     1       6.055   2.139  11.103  0.00  0.00    +0.000 A 
ATOM     19  C   UNL     1       4.799   2.558  11.538  0.00  0.00    +0.000 A 
ATOM     20  C   UNL     1       4.718   3.502  12.558  0.00  0.00    +0.000 A 
ENDBRANCH  14  15
ENDBRANCH   8  14
ENDBRANCH   6   8
ENDBRANCH   1   4
BRANCH   1  21
ATOM     21  C   UNL     1       2.717   4.050  19.317  0.00  0.00    +0.000 C 
BRANCH  21  22
ATOM     22  N   UNL     1       2.576   5.538  19.232  0.00  0.00    +0.000 N 
ATOM     23  C   UNL     1       1.873   6.354  20.111  0.00  0.00    +0.000 C 
ATOM     24  O   UNL     1       1.372   5.956  21.157  0.00  0.00    +0.000 OA
ATOM     25  H   UNL     1       3.058   5.970  18.454  0.00  0.00    +0.000 HD
BRANCH  23  26
ATOM     26  C   UNL     1       1.719   7.811  19.770  0.00  0.00    +0.000 A 
ATOM     27  C   UNL     1       1.182   8.759  20.648  0.00  0.00    +0.000 A 
ATOM     28  C   UNL     1       1.028  10.097  20.240  0.00  0.00    +0.000 A 
ATOM     29  C   UNL     1       1.425  10.512  18.963  0.00  0.00    +0.000 A 
ATOM     30  C   UNL     1       2.028   9.582  18.107  0.00  0.00    +0.000 A 
ATOM     31  C   UNL     1       2.177   8.247  18.513  0.00  0.00    +0.000 A 
BRANCH  29  32
ATOM     32  C   UNL     1       1.225  11.878  18.534  0.00  0.00    +0.000 C 
ATOM     33  N   UNL     1       1.049  12.966  18.183  0.00  0.00    +0.000 NA
ENDBRANCH  29  32
ENDBRANCH  23  26
ENDBRANCH  21  22
BRANCH  21  34
ATOM     34  C   UNL     1       3.506   3.603  20.585  0.00  0.00    +0.000 C 
BRANCH  34  36
ATOM     35  C   UNL     1       1.258   2.617  21.133  0.00  0.00    +0.000 C 
ATOM     36  C   UNL     1       2.708   2.760  21.588  0.00  0.00    +0.000 C 
ENDBRANCH  34  36
ENDBRANCH  21  34
ENDBRANCH   1  21
TORSDOF 13
ENDMDL
