MODEL 1
REMARK VINA RESULT:      -8.5      0.000      0.000
REMARK  Name = 
REMARK  9 active torsions:
REMARK  status: ('A' for Active; 'I' for Inactive)
REMARK    1  A    between atoms: C_1  and  C_2
REMARK    2  A    between atoms: C_2  and  C_3
REMARK    3  A    between atoms: C_2  and  C_4
REMARK    4  A    between atoms: C_4  and  N_5
REMARK    5  A    between atoms: C_6  and  C_7
REMARK    6  A    between atoms: C_18  and  C_19
REMARK    7  A    between atoms: C_23  and  C_24
REMARK    8  A    between atoms: C_25  and  C_26
REMARK    9  A    between atoms: C_26  and  O_28
REMARK                            x       y       z     vdW  Elec       q    Type
REMARK                         _______ _______ _______ _____ _____    ______ ____
ROOT
ATOM      1  N   UNL     1       4.533   5.053  18.143  0.00  0.00    +0.000 NA
ATOM      2  C   UNL     1       3.764   3.862  17.598  0.00  0.00    +0.000 C 
ATOM      3  C   UNL     1       4.158   2.497  18.209  0.00  0.00    +0.000 C 
ATOM      4  C   UNL     1       3.783   3.755  16.039  0.00  0.00    +0.000 C 
ATOM      5  C   UNL     1       5.137   4.035  15.500  0.00  0.00    +0.000 A 
ATOM      6  C   UNL     1       6.114   4.587  16.300  0.00  0.00    +0.000 A 
ATOM      7  N   UNL     1       7.230   4.765  15.522  0.00  0.00    +0.000 N 
ATOM      8  C   UNL     1       6.955   4.433  14.214  0.00  0.00    +0.000 A 
ATOM      9  C   UNL     1       7.754   4.560  13.070  0.00  0.00    +0.000 A 
ATOM     10  C   UNL     1       7.213   4.140  11.852  0.00  0.00    +0.000 A 
ATOM     11  C   UNL     1       5.927   3.608  11.785  0.00  0.00    +0.000 A 
ATOM     12  C   UNL     1       5.136   3.501  12.939  0.00  0.00    +0.000 A 
ATOM     13  C   UNL     1       5.652   3.931  14.179  0.00  0.00    +0.000 A 
ATOM     14  C   UNL     1       5.987   4.998  17.754  0.00  0.00    +0.000 C 
ATOM     15  H   UNL     1       8.100   5.180  15.828  0.00  0.00    +0.000 HD
ENDROOT
BRANCH  14  16
ATOM     16  C   UNL     1       6.750   6.295  17.960  0.00  0.00    +0.000 A 
ATOM     17  C   UNL     1       7.850   6.396  18.818  0.00  0.00    +0.000 A 
ATOM     18  F   UNL     1       8.272   5.334  19.519  0.00  0.00    +0.000 F 
ATOM     19  C   UNL     1       8.572   7.585  18.950  0.00  0.00    +0.000 A 
ATOM     20  C   UNL     1       8.210   8.720  18.220  0.00  0.00    +0.000 A 
ATOM     21  C   UNL     1       7.056   8.657  17.431  0.00  0.00    +0.000 A 
ATOM     22  C   UNL     1       6.340   7.465  17.319  0.00  0.00    +0.000 A 
ATOM     23  F   UNL     1       5.251   7.449  16.536  0.00  0.00    +0.000 F 
BRANCH  20  24
ATOM     24  C   UNL     1       8.974   9.975  18.278  0.00  0.00    +0.000 C 
ATOM     25  C   UNL     1       9.436  10.532  19.413  0.00  0.00    +0.000 C 
BRANCH  25  26
ATOM     26  C   UNL     1      10.223  11.775  19.335  0.00  0.00    +0.000 C 
ATOM     27  O   UNL     1      10.020  12.675  18.538  0.00  0.00    +0.000 OA
BRANCH  26  28
ATOM     28  O   UNL     1      11.208  11.806  20.252  0.00  0.00    +0.000 OA
ATOM     29  H   UNL     1      11.858  11.080  20.205  0.00  0.00    +0.000 HD
ENDBRANCH  26  28
ENDBRANCH  25  26
ENDBRANCH  20  24
ENDBRANCH  14  16
BRANCH   1  30
ATOM     30  C   UNL     1       4.239   5.183  19.595  0.00  0.00    +0.000 C 
BRANCH  30  32
ATOM     31  C   UNL     1       2.463   6.998  19.111  0.00  0.00    +0.000 C 
ATOM     32  C   UNL     1       3.017   5.984  20.110  0.00  0.00    +0.000 C 
ATOM     33  C   UNL     1       1.873   5.033  20.502  0.00  0.00    +0.000 C 
ENDBRANCH  30  32
ENDBRANCH   1  30
TORSDOF 6
ENDMDL
MODEL 2
REMARK VINA RESULT:      -8.4      0.312      1.511
REMARK  Name = 
REMARK  9 active torsions:
REMARK  status: ('A' for Active; 'I' for Inactive)
REMARK    1  A    between atoms: C_1  and  C_2
REMARK    2  A    between atoms: C_2  and  C_3
REMARK    3  A    between atoms: C_2  and  C_4
REMARK    4  A    between atoms: C_4  and  N_5
REMARK    5  A    between atoms: C_6  and  C_7
REMARK    6  A    between atoms: C_18  and  C_19
REMARK    7  A    between atoms: C_23  and  C_24
REMARK    8  A    between atoms: C_25  and  C_26
REMARK    9  A    between atoms: C_26  and  O_28
REMARK                            x       y       z     vdW  Elec       q    Type
REMARK                         _______ _______ _______ _____ _____    ______ ____
ROOT
ATOM      1  N   UNL     1       4.548   5.140  18.151  0.00  0.00    +0.000 NA
ATOM      2  C   UNL     1       3.754   3.943  17.659  0.00  0.00    +0.000 C 
ATOM      3  C   UNL     1       4.143   2.594  18.307  0.00  0.00    +0.000 C 
ATOM      4  C   UNL     1       3.742   3.786  16.105  0.00  0.00    +0.000 C 
ATOM      5  C   UNL     1       5.089   4.031  15.532  0.00  0.00    +0.000 A 
ATOM      6  C   UNL     1       6.088   4.596  16.295  0.00  0.00    +0.000 A 
ATOM      7  N   UNL     1       7.191   4.734  15.492  0.00  0.00    +0.000 N 
ATOM      8  C   UNL     1       6.887   4.364  14.200  0.00  0.00    +0.000 A 
ATOM      9  C   UNL     1       7.665   4.444  13.037  0.00  0.00    +0.000 A 
ATOM     10  C   UNL     1       7.096   3.992  11.844  0.00  0.00    +0.000 A 
ATOM     11  C   UNL     1       5.802   3.474  11.819  0.00  0.00    +0.000 A 
ATOM     12  C   UNL     1       5.032   3.414  12.990  0.00  0.00    +0.000 A 
ATOM     13  C   UNL     1       5.578   3.878  14.205  0.00  0.00    +0.000 A 
ATOM     14  C   UNL     1       5.994   5.055  17.738  0.00  0.00    +0.000 C 
ATOM     15  H   UNL     1       8.071   5.147  15.767  0.00  0.00    +0.000 HD
ENDROOT
BRANCH  14  16
ATOM     16  C   UNL     1       6.777   6.348  17.887  0.00  0.00    +0.000 A 
ATOM     17  C   UNL     1       6.458   7.510  17.179  0.00  0.00    +0.000 A 
ATOM     18  F   UNL     1       5.437   7.525  16.310  0.00  0.00    +0.000 F 
ATOM     19  C   UNL     1       7.156   8.704  17.374  0.00  0.00    +0.000 A 
ATOM     20  C   UNL     1       8.207   8.770  18.294  0.00  0.00    +0.000 A 
ATOM     21  C   UNL     1       8.595   7.591  18.937  0.00  0.00    +0.000 A 
ATOM     22  C   UNL     1       7.893   6.403  18.723  0.00  0.00    +0.000 A 
ATOM     23  F   UNL     1       8.291   5.303  19.378  0.00  0.00    +0.000 F 
BRANCH  20  24
ATOM     24  C   UNL     1       8.931  10.017  18.578  0.00  0.00    +0.000 C 
ATOM     25  C   UNL     1       9.364  10.384  19.798  0.00  0.00    +0.000 C 
BRANCH  25  26
ATOM     26  C   UNL     1      10.113  11.644  19.947  0.00  0.00    +0.000 C 
ATOM     27  O   UNL     1      10.381  12.403  19.032  0.00  0.00    +0.000 OA
BRANCH  26  28
ATOM     28  O   UNL     1      10.480  11.865  21.224  0.00  0.00    +0.000 OA
ATOM     29  H   UNL     1      10.090  12.650  21.650  0.00  0.00    +0.000 HD
ENDBRANCH  26  28
ENDBRANCH  25  26
ENDBRANCH  20  24
ENDBRANCH  14  16
BRANCH   1  30
ATOM     30  C   UNL     1       4.283   5.321  19.604  0.00  0.00    +0.000 C 
BRANCH  30  32
ATOM     31  C   UNL     1       2.434   7.066  19.137  0.00  0.00    +0.000 C 
ATOM     32  C   UNL     1       3.015   6.048  20.116  0.00  0.00    +0.000 C 
ATOM     33  C   UNL     1       1.910   5.034  20.455  0.00  0.00    +0.000 C 
ENDBRANCH  30  32
ENDBRANCH   1  30
TORSDOF 6
ENDMDL
MODEL 3
REMARK VINA RESULT:      -6.7      5.503     11.044
REMARK  Name = 
REMARK  9 active torsions:
REMARK  status: ('A' for Active; 'I' for Inactive)
REMARK    1  A    between atoms: C_1  and  C_2
REMARK    2  A    between atoms: C_2  and  C_3
REMARK    3  A    between atoms: C_2  and  C_4
REMARK    4  A    between atoms: C_4  and  N_5
REMARK    5  A    between atoms: C_6  and  C_7
REMARK    6  A    between atoms: C_18  and  C_19
REMARK    7  A    between atoms: C_23  and  C_24
REMARK    8  A    between atoms: C_25  and  C_26
REMARK    9  A    between atoms: C_26  and  O_28
REMARK                            x       y       z     vdW  Elec       q    Type
REMARK                         _______ _______ _______ _____ _____    ______ ____
ROOT
ATOM      1  N   UNL     1      10.343  15.119  19.104  0.00  0.00    +0.000 NA
ATOM      2  C   UNL     1      10.296  16.603  19.419  0.00  0.00    +0.000 C 
ATOM      3  C   UNL     1      10.975  17.008  20.749  0.00  0.00    +0.000 C 
ATOM      4  C   UNL     1       8.861  17.218  19.364  0.00  0.00    +0.000 C 
ATOM      5  C   UNL     1       7.870  16.321  20.009  0.00  0.00    +0.000 A 
ATOM      6  C   UNL     1       8.198  15.021  20.328  0.00  0.00    +0.000 A 
ATOM      7  N   UNL     1       7.080  14.436  20.867  0.00  0.00    +0.000 N 
ATOM      8  C   UNL     1       6.012  15.305  20.806  0.00  0.00    +0.000 A 
ATOM      9  C   UNL     1       4.667  15.097  21.136  0.00  0.00    +0.000 A 
ATOM     10  C   UNL     1       3.786  16.168  20.971  0.00  0.00    +0.000 A 
ATOM     11  C   UNL     1       4.237  17.400  20.501  0.00  0.00    +0.000 A 
ATOM     12  C   UNL     1       5.585  17.587  20.162  0.00  0.00    +0.000 A 
ATOM     13  C   UNL     1       6.493  16.517  20.305  0.00  0.00    +0.000 A 
ATOM     14  C   UNL     1       9.518  14.319  20.077  0.00  0.00    +0.000 C 
ATOM     15  H   UNL     1       7.008  13.474  21.169  0.00  0.00    +0.000 HD
ENDROOT
BRANCH  14  16
ATOM     16  C   UNL     1       9.233  12.890  19.646  0.00  0.00    +0.000 A 
ATOM     17  C   UNL     1       8.706  12.570  18.392  0.00  0.00    +0.000 A 
ATOM     18  F   UNL     1       8.409  13.534  17.507  0.00  0.00    +0.000 F 
ATOM     19  C   UNL     1       8.504  11.246  17.995  0.00  0.00    +0.000 A 
ATOM     20  C   UNL     1       8.828  10.192  18.853  0.00  0.00    +0.000 A 
ATOM     21  C   UNL     1       9.267  10.502  20.144  0.00  0.00    +0.000 A 
ATOM     22  C   UNL     1       9.453  11.831  20.528  0.00  0.00    +0.000 A 
ATOM     23  F   UNL     1       9.894  12.078  21.770  0.00  0.00    +0.000 F 
BRANCH  20  24
ATOM     24  C   UNL     1       8.691   8.782  18.459  0.00  0.00    +0.000 C 
ATOM     25  C   UNL     1       7.649   8.282  17.770  0.00  0.00    +0.000 C 
BRANCH  25  26
ATOM     26  C   UNL     1       7.646   6.855  17.403  0.00  0.00    +0.000 C 
ATOM     27  O   UNL     1       7.700   5.934  18.200  0.00  0.00    +0.000 OA
BRANCH  26  28
ATOM     28  O   UNL     1       7.583   6.678  16.070  0.00  0.00    +0.000 OA
ATOM     29  H   UNL     1       8.400   6.362  15.642  0.00  0.00    +0.000 HD
ENDBRANCH  26  28
ENDBRANCH  25  26
ENDBRANCH  20  24
ENDBRANCH  14  16
BRANCH   1  30
ATOM     30  C   UNL     1      11.766  14.711  18.948  0.00  0.00    +0.000 C 
BRANCH  30  32
ATOM     31  C   UNL     1      11.888  12.825  17.186  0.00  0.00    +0.000 C 
ATOM     32  C   UNL     1      12.330  14.229  17.589  0.00  0.00    +0.000 C 
ATOM     33  C   UNL     1      11.926  15.194  16.462  0.00  0.00    +0.000 C 
ENDBRANCH  30  32
ENDBRANCH   1  30
TORSDOF 6
ENDMDL
MODEL 4
REMARK VINA RESULT:      -6.6      9.715     12.771
REMARK  Name = 
REMARK  9 active torsions:
REMARK  status: ('A' for Active; 'I' for Inactive)
REMARK    1  A    between atoms: C_1  and  C_2
REMARK    2  A    between atoms: C_2  and  C_3
REMARK    3  A    between atoms: C_2  and  C_4
REMARK    4  A    between atoms: C_4  and  N_5
REMARK    5  A    between atoms: C_6  and  C_7
REMARK    6  A    between atoms: C_18  and  C_19
REMARK    7  A    between atoms: C_23  and  C_24
REMARK    8  A    between atoms: C_25  and  C_26
REMARK    9  A    between atoms: C_26  and  O_28
REMARK                            x       y       z     vdW  Elec       q    Type
REMARK                         _______ _______ _______ _____ _____    ______ ____
ROOT
ATOM      1  N   UNL     1      -0.862  12.535  21.637  0.00  0.00    +0.000 NA
ATOM      2  C   UNL     1      -0.157  13.454  22.619  0.00  0.00    +0.000 C 
ATOM      3  C   UNL     1      -1.073  14.081  23.696  0.00  0.00    +0.000 C 
ATOM      4  C   UNL     1       0.687  14.580  21.939  0.00  0.00    +0.000 C 
ATOM      5  C   UNL     1      -0.047  15.184  20.799  0.00  0.00    +0.000 A 
ATOM      6  C   UNL     1      -1.182  14.586  20.294  0.00  0.00    +0.000 A 
ATOM      7  N   UNL     1      -1.608  15.343  19.232  0.00  0.00    +0.000 N 
ATOM      8  C   UNL     1      -0.710  16.358  18.982  0.00  0.00    +0.000 A 
ATOM      9  C   UNL     1      -0.684  17.295  17.941  0.00  0.00    +0.000 A 
ATOM     10  C   UNL     1       0.360  18.223  17.932  0.00  0.00    +0.000 A 
ATOM     11  C   UNL     1       1.333  18.218  18.929  0.00  0.00    +0.000 A 
ATOM     12  C   UNL     1       1.299  17.263  19.956  0.00  0.00    +0.000 A 
ATOM     13  C   UNL     1       0.264  16.305  19.981  0.00  0.00    +0.000 A 
ATOM     14  C   UNL     1      -1.823  13.292  20.760  0.00  0.00    +0.000 C 
ATOM     15  H   UNL     1      -2.402  15.135  18.643  0.00  0.00    +0.000 HD
ENDROOT
BRANCH  14  16
ATOM     16  C   UNL     1      -2.311  12.528  19.542  0.00  0.00    +0.000 A 
ATOM     17  C   UNL     1      -3.660  12.222  19.333  0.00  0.00    +0.000 A 
ATOM     18  F   UNL     1      -4.591  12.585  20.226  0.00  0.00    +0.000 F 
ATOM     19  C   UNL     1      -4.094  11.566  18.179  0.00  0.00    +0.000 A 
ATOM     20  C   UNL     1      -3.181  11.193  17.188  0.00  0.00    +0.000 A 
ATOM     21  C   UNL     1      -1.821  11.409  17.429  0.00  0.00    +0.000 A 
ATOM     22  C   UNL     1      -1.402  12.056  18.593  0.00  0.00    +0.000 A 
ATOM     23  F   UNL     1      -0.088  12.258  18.771  0.00  0.00    +0.000 F 
BRANCH  20  24
ATOM     24  C   UNL     1      -3.596  10.557  15.930  0.00  0.00    +0.000 C 
ATOM     25  C   UNL     1      -2.874  10.573  14.794  0.00  0.00    +0.000 C 
BRANCH  25  26
ATOM     26  C   UNL     1      -3.383   9.865  13.607  0.00  0.00    +0.000 C 
ATOM     27  O   UNL     1      -4.557   9.596  13.410  0.00  0.00    +0.000 OA
BRANCH  26  28
ATOM     28  O   UNL     1      -2.395   9.537  12.753  0.00  0.00    +0.000 OA
ATOM     29  H   UNL     1      -2.399  10.004  11.897  0.00  0.00    +0.000 HD
ENDBRANCH  26  28
ENDBRANCH  25  26
ENDBRANCH  20  24
ENDBRANCH  14  16
BRANCH   1  30
ATOM     30  C   UNL     1      -1.420  11.378  22.388  0.00  0.00    +0.000 C 
BRANCH  30  32
ATOM     31  C   UNL     1       0.013   9.751  20.980  0.00  0.00    +0.000 C 
ATOM     32  C   UNL     1      -0.841   9.950  22.231  0.00  0.00    +0.000 C 
ATOM     33  C   UNL     1       0.015   9.575  23.452  0.00  0.00    +0.000 C 
ENDBRANCH  30  32
ENDBRANCH   1  30
TORSDOF 6
ENDMDL
MODEL 5
REMARK VINA RESULT:      -6.5      8.760     12.822
REMARK  Name = 
REMARK  9 active torsions:
REMARK  status: ('A' for Active; 'I' for Inactive)
REMARK    1  A    between atoms: C_1  and  C_2
REMARK    2  A    between atoms: C_2  and  C_3
REMARK    3  A    between atoms: C_2  and  C_4
REMARK    4  A    between atoms: C_4  and  N_5
REMARK    5  A    between atoms: C_6  and  C_7
REMARK    6  A    between atoms: C_18  and  C_19
REMARK    7  A    between atoms: C_23  and  C_24
REMARK    8  A    between atoms: C_25  and  C_26
REMARK    9  A    between atoms: C_26  and  O_28
REMARK                            x       y       z     vdW  Elec       q    Type
REMARK                         _______ _______ _______ _____ _____    ______ ____
ROOT
ATOM      1  N   UNL     1      -0.360  10.887  19.921  0.00  0.00    +0.000 NA
ATOM      2  C   UNL     1      -0.045  11.279  21.355  0.00  0.00    +0.000 C 
ATOM      3  C   UNL     1      -0.442  10.229  22.418  0.00  0.00    +0.000 C 
ATOM      4  C   UNL     1      -0.611  12.674  21.770  0.00  0.00    +0.000 C 
ATOM      5  C   UNL     1      -1.996  12.860  21.268  0.00  0.00    +0.000 A 
ATOM      6  C   UNL     1      -2.529  11.999  20.333  0.00  0.00    +0.000 A 
ATOM      7  N   UNL     1      -3.793  12.443  20.038  0.00  0.00    +0.000 N 
ATOM      8  C   UNL     1      -4.043  13.631  20.690  0.00  0.00    +0.000 A 
ATOM      9  C   UNL     1      -5.147  14.489  20.599  0.00  0.00    +0.000 A 
ATOM     10  C   UNL     1      -5.136  15.645  21.383  0.00  0.00    +0.000 A 
ATOM     11  C   UNL     1      -4.065  15.926  22.229  0.00  0.00    +0.000 A 
ATOM     12  C   UNL     1      -2.961  15.064  22.297  0.00  0.00    +0.000 A 
ATOM     13  C   UNL     1      -2.940  13.897  21.504  0.00  0.00    +0.000 A 
ATOM     14  C   UNL     1      -1.844  10.814  19.680  0.00  0.00    +0.000 C 
ATOM     15  H   UNL     1      -4.419  12.030  19.361  0.00  0.00    +0.000 HD
ENDROOT
BRANCH  14  16
ATOM     16  C   UNL     1      -2.250  10.765  18.217  0.00  0.00    +0.000 A 
ATOM     17  C   UNL     1      -1.873  11.746  17.295  0.00  0.00    +0.000 A 
ATOM     18  F   UNL     1      -1.137  12.799  17.678  0.00  0.00    +0.000 F 
ATOM     19  C   UNL     1      -2.210  11.652  15.943  0.00  0.00    +0.000 A 
ATOM     20  C   UNL     1      -2.943  10.561  15.469  0.00  0.00    +0.000 A 
ATOM     21  C   UNL     1      -3.405   9.623  16.396  0.00  0.00    +0.000 A 
ATOM     22  C   UNL     1      -3.069   9.737  17.746  0.00  0.00    +0.000 A 
ATOM     23  F   UNL     1      -3.520   8.802  18.596  0.00  0.00    +0.000 F 
BRANCH  20  24
ATOM     24  C   UNL     1      -3.269  10.386  14.046  0.00  0.00    +0.000 C 
ATOM     25  C   UNL     1      -4.349   9.726  13.588  0.00  0.00    +0.000 C 
BRANCH  25  26
ATOM     26  C   UNL     1      -4.585   9.652  12.136  0.00  0.00    +0.000 C 
ATOM     27  O   UNL     1      -5.686   9.576  11.616  0.00  0.00    +0.000 OA
BRANCH  26  28
ATOM     28  O   UNL     1      -3.435   9.673  11.436  0.00  0.00    +0.000 OA
ATOM     29  H   UNL     1      -2.850   8.901  11.553  0.00  0.00    +0.000 HD
ENDBRANCH  26  28
ENDBRANCH  25  26
ENDBRANCH  20  24
ENDBRANCH  14  16
BRANCH   1  30
ATOM     30  C   UNL     1       0.429   9.674  19.577  0.00  0.00    +0.000 C 
BRANCH  30  32
ATOM     31  C   UNL     1       2.085  10.772  17.923  0.00  0.00    +0.000 C 
ATOM     32  C   UNL     1       1.210   9.562  18.244  0.00  0.00    +0.000 C 
ATOM     33  C   UNL     1       2.112   8.316  18.248  0.00  0.00    +0.000 C 
ENDBRANCH  30  32
ENDBRANCH   1  30
TORSDOF 6
ENDMDL
MODEL 6
REMARK VINA RESULT:      -6.4      5.455     11.399
REMARK  Name = 
REMARK  9 active torsions:
REMARK  status: ('A' for Active; 'I' for Inactive)
REMARK    1  A    between atoms: C_1  and  C_2
REMARK    2  A    between atoms: C_2  and  C_3
REMARK    3  A    between atoms: C_2  and  C_4
REMARK    4  A    between atoms: C_4  and  N_5
REMARK    5  A    between atoms: C_6  and  C_7
REMARK    6  A    between atoms: C_18  and  C_19
REMARK    7  A    between atoms: C_23  and  C_24
REMARK    8  A    between atoms: C_25  and  C_26
REMARK    9  A    between atoms: C_26  and  O_28
REMARK                            x       y       z     vdW  Elec       q    Type
REMARK                         _______ _______ _______ _____ _____    ______ ____
ROOT
ATOM      1  N   UNL     1      10.726  15.142  19.385  0.00  0.00    +0.000 NA
ATOM      2  C   UNL     1      10.987  16.441  20.127  0.00  0.00    +0.000 C 
ATOM      3  C   UNL     1      12.124  16.376  21.173  0.00  0.00    +0.000 C 
ATOM      4  C   UNL     1       9.714  17.062  20.785  0.00  0.00    +0.000 C 
ATOM      5  C   UNL     1       8.890  16.018  21.445  0.00  0.00    +0.000 A 
ATOM      6  C   UNL     1       9.131  14.681  21.216  0.00  0.00    +0.000 A 
ATOM      7  N   UNL     1       8.195  13.968  21.922  0.00  0.00    +0.000 N 
ATOM      8  C   UNL     1       7.295  14.825  22.518  0.00  0.00    +0.000 A 
ATOM      9  C   UNL     1       6.127  14.541  23.236  0.00  0.00    +0.000 A 
ATOM     10  C   UNL     1       5.393  15.620  23.734  0.00  0.00    +0.000 A 
ATOM     11  C   UNL     1       5.817  16.931  23.526  0.00  0.00    +0.000 A 
ATOM     12  C   UNL     1       6.983  17.198  22.792  0.00  0.00    +0.000 A 
ATOM     13  C   UNL     1       7.734  16.127  22.266  0.00  0.00    +0.000 A 
ATOM     14  C   UNL     1      10.181  14.080  20.302  0.00  0.00    +0.000 C 
ATOM     15  H   UNL     1       8.101  12.962  21.925  0.00  0.00    +0.000 HD
ENDROOT
BRANCH  14  16
ATOM     16  C   UNL     1       9.579  12.877  19.596  0.00  0.00    +0.000 A 
ATOM     17  C   UNL     1       8.737  12.995  18.487  0.00  0.00    +0.000 A 
ATOM     18  F   UNL     1       8.408  14.201  18.002  0.00  0.00    +0.000 F 
ATOM     19  C   UNL     1       8.240  11.874  17.819  0.00  0.00    +0.000 A 
ATOM     20  C   UNL     1       8.575  10.586  18.248  0.00  0.00    +0.000 A 
ATOM     21  C   UNL     1       9.339  10.456  19.411  0.00  0.00    +0.000 A 
ATOM     22  C   UNL     1       9.819  11.587  20.074  0.00  0.00    +0.000 A 
ATOM     23  F   UNL     1      10.563  11.411  21.175  0.00  0.00    +0.000 F 
BRANCH  20  24
ATOM     24  C   UNL     1       8.127   9.376  17.542  0.00  0.00    +0.000 C 
ATOM     25  C   UNL     1       7.903   8.189  18.134  0.00  0.00    +0.000 C 
BRANCH  25  26
ATOM     26  C   UNL     1       7.419   7.059  17.322  0.00  0.00    +0.000 C 
ATOM     27  O   UNL     1       7.927   6.689  16.277  0.00  0.00    +0.000 OA
BRANCH  26  28
ATOM     28  O   UNL     1       6.334   6.476  17.865  0.00  0.00    +0.000 OA
ATOM     29  H   UNL     1       6.476   6.017  18.713  0.00  0.00    +0.000 HD
ENDBRANCH  26  28
ENDBRANCH  25  26
ENDBRANCH  20  24
ENDBRANCH  14  16
BRANCH   1  30
ATOM     30  C   UNL     1      11.944  14.787  18.607  0.00  0.00    +0.000 C 
BRANCH  30  32
ATOM     31  C   UNL     1      11.558  13.366  16.483  0.00  0.00    +0.000 C 
ATOM     32  C   UNL     1      11.933  14.729  17.060  0.00  0.00    +0.000 C 
ATOM     33  C   UNL     1      10.957  15.770  16.485  0.00  0.00    +0.000 C 
ENDBRANCH  30  32
ENDBRANCH   1  30
TORSDOF 6
ENDMDL
MODEL 7
REMARK VINA RESULT:      -6.3      5.606     10.921
REMARK  Name = 
REMARK  9 active torsions:
REMARK  status: ('A' for Active; 'I' for Inactive)
REMARK    1  A    between atoms: C_1  and  C_2
REMARK    2  A    between atoms: C_2  and  C_3
REMARK    3  A    between atoms: C_2  and  C_4
REMARK    4  A    between atoms: C_4  and  N_5
REMARK    5  A    between atoms: C_6  and  C_7
REMARK    6  A    between atoms: C_18  and  C_19
REMARK    7  A    between atoms: C_23  and  C_24
REMARK    8  A    between atoms: C_25  and  C_26
REMARK    9  A    between atoms: C_26  and  O_28
REMARK                            x       y       z     vdW  Elec       q    Type
REMARK                         _______ _______ _______ _____ _____    ______ ____
ROOT
ATOM      1  N   UNL     1       8.803  15.436  17.848  0.00  0.00    +0.000 NA
ATOM      2  C   UNL     1       8.457  16.886  18.136  0.00  0.00    +0.000 C 
ATOM      3  C   UNL     1       9.550  17.679  18.890  0.00  0.00    +0.000 C 
ATOM      4  C   UNL     1       7.087  17.079  18.860  0.00  0.00    +0.000 C 
ATOM      5  C   UNL     1       6.907  16.076  19.940  0.00  0.00    +0.000 A 
ATOM      6  C   UNL     1       7.743  14.985  20.035  0.00  0.00    +0.000 A 
ATOM      7  N   UNL     1       7.309  14.226  21.092  0.00  0.00    +0.000 N 
ATOM      8  C   UNL     1       6.149  14.756  21.613  0.00  0.00    +0.000 A 
ATOM      9  C   UNL     1       5.307  14.258  22.616  0.00  0.00    +0.000 A 
ATOM     10  C   UNL     1       4.179  15.012  22.949  0.00  0.00    +0.000 A 
ATOM     11  C   UNL     1       3.910  16.220  22.308  0.00  0.00    +0.000 A 
ATOM     12  C   UNL     1       4.756  16.696  21.295  0.00  0.00    +0.000 A 
ATOM     13  C   UNL     1       5.894  15.947  20.930  0.00  0.00    +0.000 A 
ATOM     14  C   UNL     1       8.893  14.626  19.114  0.00  0.00    +0.000 C 
ATOM     15  H   UNL     1       7.709  13.346  21.388  0.00  0.00    +0.000 HD
ENDROOT
BRANCH  14  16
ATOM     16  C   UNL     1       8.898  13.121  18.908  0.00  0.00    +0.000 A 
ATOM     17  C   UNL     1       9.710  12.259  19.651  0.00  0.00    +0.000 A 
ATOM     18  F   UNL     1      10.545  12.739  20.583  0.00  0.00    +0.000 F 
ATOM     19  C   UNL     1       9.657  10.873  19.484  0.00  0.00    +0.000 A 
ATOM     20  C   UNL     1       8.781  10.303  18.557  0.00  0.00    +0.000 A 
ATOM     21  C   UNL     1       8.033  11.159  17.742  0.00  0.00    +0.000 A 
ATOM     22  C   UNL     1       8.105  12.543  17.915  0.00  0.00    +0.000 A 
ATOM     23  F   UNL     1       7.354  13.322  17.122  0.00  0.00    +0.000 F 
BRANCH  20  24
ATOM     24  C   UNL     1       8.645   8.849  18.388  0.00  0.00    +0.000 C 
ATOM     25  C   UNL     1       7.684   8.254  17.658  0.00  0.00    +0.000 C 
BRANCH  25  26
ATOM     26  C   UNL     1       7.677   6.786  17.535  0.00  0.00    +0.000 C 
ATOM     27  O   UNL     1       7.875   6.013  18.458  0.00  0.00    +0.000 OA
BRANCH  26  28
ATOM     28  O   UNL     1       7.432   6.386  16.273  0.00  0.00    +0.000 OA
ATOM     29  H   UNL     1       7.856   6.910  15.569  0.00  0.00    +0.000 HD
ENDBRANCH  26  28
ENDBRANCH  25  26
ENDBRANCH  20  24
ENDBRANCH  14  16
BRANCH   1  30
ATOM     30  C   UNL     1       9.991  15.400  16.952  0.00  0.00    +0.000 C 
BRANCH  30  32
ATOM     31  C   UNL     1      12.088  13.897  16.807  0.00  0.00    +0.000 C 
ATOM     32  C   UNL     1      11.407  15.081  17.490  0.00  0.00    +0.000 C 
ATOM     33  C   UNL     1      12.330  16.304  17.347  0.00  0.00    +0.000 C 
ENDBRANCH  30  32
ENDBRANCH   1  30
TORSDOF 6
ENDMDL
MODEL 8
REMARK VINA RESULT:      -6.3      9.003     13.025
REMARK  Name = 
REMARK  9 active torsions:
REMARK  status: ('A' for Active; 'I' for Inactive)
REMARK    1  A    between atoms: C_1  and  C_2
REMARK    2  A    between atoms: C_2  and  C_3
REMARK    3  A    between atoms: C_2  and  C_4
REMARK    4  A    between atoms: C_4  and  N_5
REMARK    5  A    between atoms: C_6  and  C_7
REMARK    6  A    between atoms: C_18  and  C_19
REMARK    7  A    between atoms: C_23  and  C_24
REMARK    8  A    between atoms: C_25  and  C_26
REMARK    9  A    between atoms: C_26  and  O_28
REMARK                            x       y       z     vdW  Elec       q    Type
REMARK                         _______ _______ _______ _____ _____    ______ ____
ROOT
ATOM      1  N   UNL     1      -0.684  11.146  20.040  0.00  0.00    +0.000 NA
ATOM      2  C   UNL     1      -0.489  11.678  21.448  0.00  0.00    +0.000 C 
ATOM      3  C   UNL     1      -0.923  10.713  22.576  0.00  0.00    +0.000 C 
ATOM      4  C   UNL     1      -1.135  13.080  21.691  0.00  0.00    +0.000 C 
ATOM      5  C   UNL     1      -2.485  13.159  21.081  0.00  0.00    +0.000 A 
ATOM      6  C   UNL     1      -2.917  12.195  20.196  0.00  0.00    +0.000 A 
ATOM      7  N   UNL     1      -4.172  12.556  19.774  0.00  0.00    +0.000 N 
ATOM      8  C   UNL     1      -4.512  13.786  20.294  0.00  0.00    +0.000 A 
ATOM      9  C   UNL     1      -5.637  14.584  20.048  0.00  0.00    +0.000 A 
ATOM     10  C   UNL     1      -5.725  15.805  20.720  0.00  0.00    +0.000 A 
ATOM     11  C   UNL     1      -4.730  16.208  21.608  0.00  0.00    +0.000 A 
ATOM     12  C   UNL     1      -3.602  15.404  21.831  0.00  0.00    +0.000 A 
ATOM     13  C   UNL     1      -3.481  14.172  21.154  0.00  0.00    +0.000 A 
ATOM     14  C   UNL     1      -2.144  10.987  19.705  0.00  0.00    +0.000 C 
ATOM     15  H   UNL     1      -4.731  12.056  19.098  0.00  0.00    +0.000 HD
ENDROOT
BRANCH  14  16
ATOM     16  C   UNL     1      -2.440  10.788  18.228  0.00  0.00    +0.000 A 
ATOM     17  C   UNL     1      -3.155   9.689  17.743  0.00  0.00    +0.000 A 
ATOM     18  F   UNL     1      -3.601   8.739  18.577  0.00  0.00    +0.000 F 
ATOM     19  C   UNL     1      -3.465   9.554  16.387  0.00  0.00    +0.000 A 
ATOM     20  C   UNL     1      -3.063  10.528  15.468  0.00  0.00    +0.000 A 
ATOM     21  C   UNL     1      -2.268  11.582  15.927  0.00  0.00    +0.000 A 
ATOM     22  C   UNL     1      -1.958  11.696  17.284  0.00  0.00    +0.000 A 
ATOM     23  F   UNL     1      -1.208  12.735  17.679  0.00  0.00    +0.000 F 
BRANCH  20  24
ATOM     24  C   UNL     1      -3.417  10.462  14.042  0.00  0.00    +0.000 C 
ATOM     25  C   UNL     1      -4.333   9.623  13.524  0.00  0.00    +0.000 C 
BRANCH  25  26
ATOM     26  C   UNL     1      -4.626   9.680  12.081  0.00  0.00    +0.000 C 
ATOM     27  O   UNL     1      -5.747   9.703  11.602  0.00  0.00    +0.000 OA
BRANCH  26  28
ATOM     28  O   UNL     1      -3.503   9.698  11.339  0.00  0.00    +0.000 OA
ATOM     29  H   UNL     1      -3.621   9.555  10.382  0.00  0.00    +0.000 HD
ENDBRANCH  26  28
ENDBRANCH  25  26
ENDBRANCH  20  24
ENDBRANCH  14  16
BRANCH   1  30
ATOM     30  C   UNL     1       0.172   9.942  19.865  0.00  0.00    +0.000 C 
BRANCH  30  32
ATOM     31  C   UNL     1       1.428   9.030  17.798  0.00  0.00    +0.000 C 
ATOM     32  C   UNL     1       1.455   9.974  18.998  0.00  0.00    +0.000 C 
ATOM     33  C   UNL     1       1.720  11.396  18.475  0.00  0.00    +0.000 C 
ENDBRANCH  30  32
ENDBRANCH   1  30
TORSDOF 6
ENDMDL
MODEL 9
REMARK VINA RESULT:      -6.2      9.114     10.891
REMARK  Name = 
REMARK  9 active torsions:
REMARK  status: ('A' for Active; 'I' for Inactive)
REMARK    1  A    between atoms: C_1  and  C_2
REMARK    2  A    between atoms: C_2  and  C_3
REMARK    3  A    between atoms: C_2  and  C_4
REMARK    4  A    between atoms: C_4  and  N_5
REMARK    5  A    between atoms: C_6  and  C_7
REMARK    6  A    between atoms: C_18  and  C_19
REMARK    7  A    between atoms: C_23  and  C_24
REMARK    8  A    between atoms: C_25  and  C_26
REMARK    9  A    between atoms: C_26  and  O_28
REMARK                            x       y       z     vdW  Elec       q    Type
REMARK                         _______ _______ _______ _____ _____    ______ ____
ROOT
ATOM      1  N   UNL     1      -1.595  14.049  21.754  0.00  0.00    +0.000 NA
ATOM      2  C   UNL     1      -2.951  13.470  22.117  0.00  0.00    +0.000 C 
ATOM      3  C   UNL     1      -2.905  12.244  23.059  0.00  0.00    +0.000 C 
ATOM      4  C   UNL     1      -3.850  13.139  20.883  0.00  0.00    +0.000 C 
ATOM      5  C   UNL     1      -3.062  12.487  19.807  0.00  0.00    +0.000 A 
ATOM      6  C   UNL     1      -1.684  12.474  19.851  0.00  0.00    +0.000 A 
ATOM      7  N   UNL     1      -1.243  11.844  18.715  0.00  0.00    +0.000 N 
ATOM      8  C   UNL     1      -2.308  11.544  17.893  0.00  0.00    +0.000 A 
ATOM      9  C   UNL     1      -2.319  11.005  16.601  0.00  0.00    +0.000 A 
ATOM     10  C   UNL     1      -3.561  10.805  15.993  0.00  0.00    +0.000 A 
ATOM     11  C   UNL     1      -4.743  11.124  16.657  0.00  0.00    +0.000 A 
ATOM     12  C   UNL     1      -4.713  11.677  17.946  0.00  0.00    +0.000 A 
ATOM     13  C   UNL     1      -3.472  11.903  18.577  0.00  0.00    +0.000 A 
ATOM     14  C   UNL     1      -0.793  13.095  20.909  0.00  0.00    +0.000 C 
ATOM     15  H   UNL     1      -0.276  11.711  18.454  0.00  0.00    +0.000 HD
ENDROOT
BRANCH  14  16
ATOM     16  C   UNL     1       0.415  13.711  20.225  0.00  0.00    +0.000 A 
ATOM     17  C   UNL     1       0.330  14.856  19.428  0.00  0.00    +0.000 A 
ATOM     18  F   UNL     1      -0.850  15.458  19.218  0.00  0.00    +0.000 F 
ATOM     19  C   UNL     1       1.462  15.438  18.854  0.00  0.00    +0.000 A 
ATOM     20  C   UNL     1       2.728  14.884  19.064  0.00  0.00    +0.000 A 
ATOM     21  C   UNL     1       2.814  13.687  19.781  0.00  0.00    +0.000 A 
ATOM     22  C   UNL     1       1.671  13.112  20.339  0.00  0.00    +0.000 A 
ATOM     23  F   UNL     1       1.807  11.973  21.034  0.00  0.00    +0.000 F 
BRANCH  20  24
ATOM     24  C   UNL     1       3.956  15.494  18.533  0.00  0.00    +0.000 C 
ATOM     25  C   UNL     1       5.138  15.511  19.177  0.00  0.00    +0.000 C 
BRANCH  25  26
ATOM     26  C   UNL     1       6.306  16.122  18.521  0.00  0.00    +0.000 C 
ATOM     27  O   UNL     1       7.148  15.506  17.888  0.00  0.00    +0.000 OA
BRANCH  26  28
ATOM     28  O   UNL     1       6.347  17.456  18.703  0.00  0.00    +0.000 OA
ATOM     29  H   UNL     1       6.792  17.762  19.515  0.00  0.00    +0.000 HD
ENDBRANCH  26  28
ENDBRANCH  25  26
ENDBRANCH  20  24
ENDBRANCH  14  16
BRANCH   1  30
ATOM     30  C   UNL     1      -0.943  14.544  22.996  0.00  0.00    +0.000 C 
BRANCH  30  32
ATOM     31  C   UNL     1       1.027  16.206  22.801  0.00  0.00    +0.000 C 
ATOM     32  C   UNL     1      -0.451  16.006  23.131  0.00  0.00    +0.000 C 
ATOM     33  C   UNL     1      -1.269  16.938  22.221  0.00  0.00    +0.000 C 
ENDBRANCH  30  32
ENDBRANCH   1  30
TORSDOF 6
ENDMDL
