MODEL 1
REMARK VINA RESULT:      -7.3      0.000      0.000
REMARK  Name = 
REMARK  4 active torsions:
REMARK  status: ('A' for Active; 'I' for Inactive)
REMARK    1  A    between atoms: N_1  and  S_2
REMARK    2  A    between atoms: S_2  and  C_5
REMARK    3  A    between atoms: N_14  and  C_15
REMARK    4  A    between atoms: C_15  and  C_16
REMARK                            x       y       z     vdW  Elec       q    Type
REMARK                         _______ _______ _______ _____ _____    ______ ____
ROOT
ATOM      1  C   UNL     1       2.589   4.520  19.842  0.00  0.00    +0.000 A 
ATOM      2  C   UNL     1       1.948   5.474  20.653  0.00  0.00    +0.000 A 
ATOM      3  C   UNL     1       1.857   6.807  20.235  0.00  0.00    +0.000 A 
ATOM      4  C   UNL     1       2.394   7.168  18.990  0.00  0.00    +0.000 A 
ATOM      5  C   UNL     1       3.079   6.229  18.209  0.00  0.00    +0.000 A 
ATOM      6  C   UNL     1       3.180   4.902  18.633  0.00  0.00    +0.000 A 
ATOM      7 CL   UNL     1       3.994   3.812  17.569  0.00  0.00    +0.000 Cl
ATOM      8  C   UNL     1       2.060   8.498  18.413  0.00  0.00    +0.000 C 
ATOM      9  O   UNL     1       2.253   8.703  17.218  0.00  0.00    +0.000 OA
ATOM     10  N   UNL     1       1.388   9.372  19.269  0.00  0.00    +0.000 N 
ATOM     11  N   UNL     1       1.486   9.182  20.674  0.00  0.00    +0.000 NA
ATOM     12  C   UNL     1       1.096   7.823  21.046  0.00  0.00    +0.000 C 
ATOM     13  H   UNL     1       0.907   9.863  21.165  0.00  0.00    +0.000 HD
ENDROOT
BRANCH   1  14
ATOM     14  S   UNL     1       2.586   2.835  20.372  0.00  0.00    +0.000 S 
ATOM     15  O   UNL     1       3.958   2.399  20.534  0.00  0.00    +0.000 OA
ATOM     16  O   UNL     1       1.641   2.085  19.585  0.00  0.00    +0.000 OA
BRANCH  14  17
ATOM     17  N   UNL     1       1.984   2.932  21.937  0.00  0.00    +0.000 NA
ATOM     18  H   UNL     1       0.984   2.731  21.943  0.00  0.00    +0.000 HD
ATOM     19  H   UNL     1       2.231   3.831  22.356  0.00  0.00    +0.000 HD
ENDBRANCH  14  17
ENDBRANCH   1  14
BRANCH  10  20
ATOM     20  C   UNL     1       0.546  10.432  18.724  0.00  0.00    +0.000 C 
BRANCH  20  21
ATOM     21  C   UNL     1       1.119  11.812  18.898  0.00  0.00    +0.000 A 
ATOM     22  C   UNL     1       0.505  12.724  19.768  0.00  0.00    +0.000 A 
ATOM     23  C   UNL     1       1.012  14.014  19.916  0.00  0.00    +0.000 A 
ATOM     24  C   UNL     1       2.140  14.404  19.200  0.00  0.00    +0.000 A 
ATOM     25  C   UNL     1       2.766  13.503  18.342  0.00  0.00    +0.000 A 
ATOM     26  C   UNL     1       2.260  12.211  18.189  0.00  0.00    +0.000 A 
ENDBRANCH  20  21
ENDBRANCH  10  20
TORSDOF 4
ENDMDL
MODEL 2
REMARK VINA RESULT:      -7.2      0.653      1.198
REMARK  Name = 
REMARK  4 active torsions:
REMARK  status: ('A' for Active; 'I' for Inactive)
REMARK    1  A    between atoms: N_1  and  S_2
REMARK    2  A    between atoms: S_2  and  C_5
REMARK    3  A    between atoms: N_14  and  C_15
REMARK    4  A    between atoms: C_15  and  C_16
REMARK                            x       y       z     vdW  Elec       q    Type
REMARK                         _______ _______ _______ _____ _____    ______ ____
ROOT
ATOM      1  C   UNL     1       3.221   4.367  19.459  0.00  0.00    +0.000 A 
ATOM      2  C   UNL     1       2.454   5.164  20.327  0.00  0.00    +0.000 A 
ATOM      3  C   UNL     1       2.192   6.502  20.009  0.00  0.00    +0.000 A 
ATOM      4  C   UNL     1       2.689   7.024  18.805  0.00  0.00    +0.000 A 
ATOM      5  C   UNL     1       3.497   6.246  17.968  0.00  0.00    +0.000 A 
ATOM      6  C   UNL     1       3.767   4.914  18.294  0.00  0.00    +0.000 A 
ATOM      7 CL   UNL     1       4.726   4.023  17.166  0.00  0.00    +0.000 Cl
ATOM      8  C   UNL     1       2.187   8.340  18.323  0.00  0.00    +0.000 C 
ATOM      9  O   UNL     1       2.363   8.659  17.151  0.00  0.00    +0.000 OA
ATOM     10  N   UNL     1       1.400   9.051  19.229  0.00  0.00    +0.000 N 
ATOM     11  N   UNL     1       1.510   8.768  20.618  0.00  0.00    +0.000 NA
ATOM     12  C   UNL     1       1.298   7.345  20.880  0.00  0.00    +0.000 C 
ATOM     13  H   UNL     1       0.842   9.328  21.148  0.00  0.00    +0.000 HD
ENDROOT
BRANCH   1  14
ATOM     14  S   UNL     1       3.434   2.660  19.861  0.00  0.00    +0.000 S 
ATOM     15  O   UNL     1       4.840   2.415  20.107  0.00  0.00    +0.000 OA
ATOM     16  O   UNL     1       2.674   1.851  18.943  0.00  0.00    +0.000 OA
BRANCH  14  17
ATOM     17  N   UNL     1       2.712   2.534  21.372  0.00  0.00    +0.000 NA
ATOM     18  H   UNL     1       3.423   2.520  22.103  0.00  0.00    +0.000 HD
ATOM     19  H   UNL     1       2.075   1.735  21.394  0.00  0.00    +0.000 HD
ENDBRANCH  14  17
ENDBRANCH   1  14
BRANCH  10  20
ATOM     20  C   UNL     1       0.430  10.031  18.750  0.00  0.00    +0.000 C 
BRANCH  20  21
ATOM     21  C   UNL     1       0.855  11.459  18.965  0.00  0.00    +0.000 A 
ATOM     22  C   UNL     1       2.021  11.944  18.356  0.00  0.00    +0.000 A 
ATOM     23  C   UNL     1       2.438  13.258  18.571  0.00  0.00    +0.000 A 
ATOM     24  C   UNL     1       1.692  14.099  19.391  0.00  0.00    +0.000 A 
ATOM     25  C   UNL     1       0.524  13.631  19.990  0.00  0.00    +0.000 A 
ATOM     26  C   UNL     1       0.105  12.316  19.780  0.00  0.00    +0.000 A 
ENDBRANCH  20  21
ENDBRANCH  10  20
TORSDOF 4
ENDMDL
MODEL 3
REMARK VINA RESULT:      -7.2      1.809      2.838
REMARK  Name = 
REMARK  4 active torsions:
REMARK  status: ('A' for Active; 'I' for Inactive)
REMARK    1  A    between atoms: N_1  and  S_2
REMARK    2  A    between atoms: S_2  and  C_5
REMARK    3  A    between atoms: N_14  and  C_15
REMARK    4  A    between atoms: C_15  and  C_16
REMARK                            x       y       z     vdW  Elec       q    Type
REMARK                         _______ _______ _______ _____ _____    ______ ____
ROOT
ATOM      1  C   UNL     1       2.162   5.196  19.465  0.00  0.00    +0.000 A 
ATOM      2  C   UNL     1       1.485   6.069  20.334  0.00  0.00    +0.000 A 
ATOM      3  C   UNL     1       1.484   7.447  20.087  0.00  0.00    +0.000 A 
ATOM      4  C   UNL     1       2.148   7.936  18.952  0.00  0.00    +0.000 A 
ATOM      5  C   UNL     1       2.867   7.071  18.118  0.00  0.00    +0.000 A 
ATOM      6  C   UNL     1       2.877   5.697  18.372  0.00  0.00    +0.000 A 
ATOM      7 CL   UNL     1       3.744   4.711  17.250  0.00  0.00    +0.000 Cl
ATOM      8  C   UNL     1       1.919   9.343  18.526  0.00  0.00    +0.000 C 
ATOM      9  O   UNL     1       2.231   9.688  17.390  0.00  0.00    +0.000 OA
ATOM     10  N   UNL     1       1.205  10.134  19.426  0.00  0.00    +0.000 N 
ATOM     11  N   UNL     1       1.165   9.764  20.798  0.00  0.00    +0.000 NA
ATOM     12  C   UNL     1       0.691   8.389  20.954  0.00  0.00    +0.000 C 
ATOM     13  H   UNL     1       0.569  10.405  21.321  0.00  0.00    +0.000 HD
ENDROOT
BRANCH   1  14
ATOM     14  S   UNL     1       2.046   3.459  19.768  0.00  0.00    +0.000 S 
ATOM     15  O   UNL     1       3.322   2.990  20.267  0.00  0.00    +0.000 OA
ATOM     16  O   UNL     1       1.386   2.820  18.659  0.00  0.00    +0.000 OA
BRANCH  14  17
ATOM     17  N   UNL     1       1.017   3.375  21.092  0.00  0.00    +0.000 NA
ATOM     18  H   UNL     1       1.523   3.605  21.948  0.00  0.00    +0.000 HD
ATOM     19  H   UNL     1       0.546   2.468  21.118  0.00  0.00    +0.000 HD
ENDBRANCH  14  17
ENDBRANCH   1  14
BRANCH  10  20
ATOM     20  C   UNL     1       0.458  11.295  18.953  0.00  0.00    +0.000 C 
BRANCH  20  21
ATOM     21  C   UNL     1      -0.956  10.982  18.544  0.00  0.00    +0.000 A 
ATOM     22  C   UNL     1      -1.211   9.948  17.633  0.00  0.00    +0.000 A 
ATOM     23  C   UNL     1      -2.515   9.667  17.226  0.00  0.00    +0.000 A 
ATOM     24  C   UNL     1      -3.576  10.413  17.730  0.00  0.00    +0.000 A 
ATOM     25  C   UNL     1      -3.336  11.435  18.646  0.00  0.00    +0.000 A 
ATOM     26  C   UNL     1      -2.031  11.721  19.054  0.00  0.00    +0.000 A 
ENDBRANCH  20  21
ENDBRANCH  10  20
TORSDOF 4
ENDMDL
MODEL 4
REMARK VINA RESULT:      -7.2      0.960      1.083
REMARK  Name = 
REMARK  4 active torsions:
REMARK  status: ('A' for Active; 'I' for Inactive)
REMARK    1  A    between atoms: N_1  and  S_2
REMARK    2  A    between atoms: S_2  and  C_5
REMARK    3  A    between atoms: N_14  and  C_15
REMARK    4  A    between atoms: C_15  and  C_16
REMARK                            x       y       z     vdW  Elec       q    Type
REMARK                         _______ _______ _______ _____ _____    ______ ____
ROOT
ATOM      1  C   UNL     1       3.064   4.401  19.478  0.00  0.00    +0.000 A 
ATOM      2  C   UNL     1       2.333   5.217  20.359  0.00  0.00    +0.000 A 
ATOM      3  C   UNL     1       2.100   6.561  20.045  0.00  0.00    +0.000 A 
ATOM      4  C   UNL     1       2.587   7.071  18.832  0.00  0.00    +0.000 A 
ATOM      5  C   UNL     1       3.360   6.272  17.981  0.00  0.00    +0.000 A 
ATOM      6  C   UNL     1       3.602   4.934  18.302  0.00  0.00    +0.000 A 
ATOM      7 CL   UNL     1       4.517   4.019  17.158  0.00  0.00    +0.000 Cl
ATOM      8  C   UNL     1       2.110   8.399  18.358  0.00  0.00    +0.000 C 
ATOM      9  O   UNL     1       2.272   8.714  17.183  0.00  0.00    +0.000 OA
ATOM     10  N   UNL     1       1.358   9.129  19.278  0.00  0.00    +0.000 N 
ATOM     11  N   UNL     1       1.486   8.844  20.665  0.00  0.00    +0.000 NA
ATOM     12  C   UNL     1       1.243   7.427  20.932  0.00  0.00    +0.000 C 
ATOM     13  H   UNL     1       0.842   9.421  21.207  0.00  0.00    +0.000 HD
ENDROOT
BRANCH   1  14
ATOM     14  S   UNL     1       3.242   2.689  19.877  0.00  0.00    +0.000 S 
ATOM     15  O   UNL     1       2.691   1.903  18.793  0.00  0.00    +0.000 OA
ATOM     16  O   UNL     1       2.850   2.472  21.246  0.00  0.00    +0.000 OA
BRANCH  14  17
ATOM     17  N   UNL     1       4.900   2.448  19.775  0.00  0.00    +0.000 NA
ATOM     18  H   UNL     1       5.100   1.539  19.358  0.00  0.00    +0.000 HD
ATOM     19  H   UNL     1       5.335   2.592  20.689  0.00  0.00    +0.000 HD
ENDBRANCH  14  17
ENDBRANCH   1  14
BRANCH  10  20
ATOM     20  C   UNL     1       0.405  10.134  18.817  0.00  0.00    +0.000 C 
BRANCH  20  21
ATOM     21  C   UNL     1       0.868  11.551  19.025  0.00  0.00    +0.000 A 
ATOM     22  C   UNL     1       0.142  12.411  19.860  0.00  0.00    +0.000 A 
ATOM     23  C   UNL     1       0.547  13.734  20.038  0.00  0.00    +0.000 A 
ATOM     24  C   UNL     1       1.683  14.206  19.387  0.00  0.00    +0.000 A 
ATOM     25  C   UNL     1       2.419  13.356  18.564  0.00  0.00    +0.000 A 
ATOM     26  C   UNL     1       2.016  12.032  18.382  0.00  0.00    +0.000 A 
ENDBRANCH  20  21
ENDBRANCH  10  20
TORSDOF 4
ENDMDL
MODEL 5
REMARK VINA RESULT:      -7.2      1.868      2.742
REMARK  Name = 
REMARK  4 active torsions:
REMARK  status: ('A' for Active; 'I' for Inactive)
REMARK    1  A    between atoms: N_1  and  S_2
REMARK    2  A    between atoms: S_2  and  C_5
REMARK    3  A    between atoms: N_14  and  C_15
REMARK    4  A    between atoms: C_15  and  C_16
REMARK                            x       y       z     vdW  Elec       q    Type
REMARK                         _______ _______ _______ _____ _____    ______ ____
ROOT
ATOM      1  C   UNL     1       2.167   5.364  19.486  0.00  0.00    +0.000 A 
ATOM      2  C   UNL     1       1.467   6.222  20.353  0.00  0.00    +0.000 A 
ATOM      3  C   UNL     1       1.445   7.601  20.112  0.00  0.00    +0.000 A 
ATOM      4  C   UNL     1       2.111   8.106  18.985  0.00  0.00    +0.000 A 
ATOM      5  C   UNL     1       2.851   7.257  18.153  0.00  0.00    +0.000 A 
ATOM      6  C   UNL     1       2.882   5.882  18.402  0.00  0.00    +0.000 A 
ATOM      7 CL   UNL     1       3.776   4.916  17.284  0.00  0.00    +0.000 Cl
ATOM      8  C   UNL     1       1.861   9.511  18.563  0.00  0.00    +0.000 C 
ATOM      9  O   UNL     1       2.177   9.866  17.431  0.00  0.00    +0.000 OA
ATOM     10  N   UNL     1       1.126  10.285  19.460  0.00  0.00    +0.000 N 
ATOM     11  N   UNL     1       1.080   9.908  20.830  0.00  0.00    +0.000 NA
ATOM     12  C   UNL     1       0.628   8.525  20.976  0.00  0.00    +0.000 C 
ATOM     13  H   UNL     1       0.468  10.536  21.351  0.00  0.00    +0.000 HD
ENDROOT
BRANCH   1  14
ATOM     14  S   UNL     1       2.078   3.624  19.781  0.00  0.00    +0.000 S 
ATOM     15  O   UNL     1       3.366   3.170  20.263  0.00  0.00    +0.000 OA
ATOM     16  O   UNL     1       1.414   2.983  18.675  0.00  0.00    +0.000 OA
BRANCH  14  17
ATOM     17  N   UNL     1       1.065   3.519  21.116  0.00  0.00    +0.000 NA
ATOM     18  H   UNL     1       1.391   4.140  21.856  0.00  0.00    +0.000 HD
ATOM     19  H   UNL     1       0.961   2.544  21.405  0.00  0.00    +0.000 HD
ENDBRANCH  14  17
ENDBRANCH   1  14
BRANCH  10  20
ATOM     20  C   UNL     1       0.363  11.436  18.986  0.00  0.00    +0.000 C 
BRANCH  20  21
ATOM     21  C   UNL     1      -1.035  11.096  18.542  0.00  0.00    +0.000 A 
ATOM     22  C   UNL     1      -2.120  11.858  18.995  0.00  0.00    +0.000 A 
ATOM     23  C   UNL     1      -3.422  11.536  18.613  0.00  0.00    +0.000 A 
ATOM     24  C   UNL     1      -3.650  10.451  17.770  0.00  0.00    +0.000 A 
ATOM     25  C   UNL     1      -2.577   9.694  17.303  0.00  0.00    +0.000 A 
ATOM     26  C   UNL     1      -1.273  10.013  17.686  0.00  0.00    +0.000 A 
ENDBRANCH  20  21
ENDBRANCH  10  20
TORSDOF 4
ENDMDL
MODEL 6
REMARK VINA RESULT:      -7.1      3.990      7.583
REMARK  Name = 
REMARK  4 active torsions:
REMARK  status: ('A' for Active; 'I' for Inactive)
REMARK    1  A    between atoms: N_1  and  S_2
REMARK    2  A    between atoms: S_2  and  C_5
REMARK    3  A    between atoms: N_14  and  C_15
REMARK    4  A    between atoms: C_15  and  C_16
REMARK                            x       y       z     vdW  Elec       q    Type
REMARK                         _______ _______ _______ _____ _____    ______ ____
ROOT
ATOM      1  C   UNL     1       0.360   9.967  19.746  0.00  0.00    +0.000 A 
ATOM      2  C   UNL     1       1.182   9.651  18.650  0.00  0.00    +0.000 A 
ATOM      3  C   UNL     1       1.998   8.514  18.686  0.00  0.00    +0.000 A 
ATOM      4  C   UNL     1       1.965   7.689  19.820  0.00  0.00    +0.000 A 
ATOM      5  C   UNL     1       1.188   8.034  20.932  0.00  0.00    +0.000 A 
ATOM      6  C   UNL     1       0.383   9.175  20.899  0.00  0.00    +0.000 A 
ATOM      7 CL   UNL     1      -0.582   9.480  22.299  0.00  0.00    +0.000 Cl
ATOM      8  C   UNL     1       2.602   6.345  19.759  0.00  0.00    +0.000 C 
ATOM      9  O   UNL     1       2.318   5.504  20.607  0.00  0.00    +0.000 OA
ATOM     10  N   UNL     1       3.368   6.095  18.620  0.00  0.00    +0.000 N 
ATOM     11  N   UNL     1       3.885   7.190  17.875  0.00  0.00    +0.000 NA
ATOM     12  C   UNL     1       2.817   8.109  17.488  0.00  0.00    +0.000 C 
ATOM     13  H   UNL     1       4.379   6.854  17.049  0.00  0.00    +0.000 HD
ENDROOT
BRANCH   1  14
ATOM     14  S   UNL     1      -0.723  11.356  19.606  0.00  0.00    +0.000 S 
ATOM     15  O   UNL     1      -0.483  12.244  20.725  0.00  0.00    +0.000 OA
ATOM     16  O   UNL     1      -2.047  10.900  19.271  0.00  0.00    +0.000 OA
BRANCH  14  17
ATOM     17  N   UNL     1      -0.113  12.177  18.275  0.00  0.00    +0.000 NA
ATOM     18  H   UNL     1      -0.109  11.568  17.456  0.00  0.00    +0.000 HD
ATOM     19  H   UNL     1       0.798  12.583  18.496  0.00  0.00    +0.000 HD
ENDBRANCH  14  17
ENDBRANCH   1  14
BRANCH  10  20
ATOM     20  C   UNL     1       3.584   4.725  18.165  0.00  0.00    +0.000 C 
BRANCH  20  21
ATOM     21  C   UNL     1       4.812   4.555  17.313  0.00  0.00    +0.000 A 
ATOM     22  C   UNL     1       6.086   4.639  17.891  0.00  0.00    +0.000 A 
ATOM     23  C   UNL     1       7.231   4.511  17.105  0.00  0.00    +0.000 A 
ATOM     24  C   UNL     1       7.113   4.294  15.736  0.00  0.00    +0.000 A 
ATOM     25  C   UNL     1       5.852   4.196  15.152  0.00  0.00    +0.000 A 
ATOM     26  C   UNL     1       4.704   4.326  15.935  0.00  0.00    +0.000 A 
ENDBRANCH  20  21
ENDBRANCH  10  20
TORSDOF 4
ENDMDL
MODEL 7
REMARK VINA RESULT:      -7.1      4.014      7.715
REMARK  Name = 
REMARK  4 active torsions:
REMARK  status: ('A' for Active; 'I' for Inactive)
REMARK    1  A    between atoms: N_1  and  S_2
REMARK    2  A    between atoms: S_2  and  C_5
REMARK    3  A    between atoms: N_14  and  C_15
REMARK    4  A    between atoms: C_15  and  C_16
REMARK                            x       y       z     vdW  Elec       q    Type
REMARK                         _______ _______ _______ _____ _____    ______ ____
ROOT
ATOM      1  C   UNL     1       0.313  10.839  20.601  0.00  0.00    +0.000 A 
ATOM      2  C   UNL     1       0.630   9.586  21.153  0.00  0.00    +0.000 A 
ATOM      3  C   UNL     1       1.217   8.594  20.359  0.00  0.00    +0.000 A 
ATOM      4  C   UNL     1       1.503   8.880  19.015  0.00  0.00    +0.000 A 
ATOM      5  C   UNL     1       1.138  10.109  18.453  0.00  0.00    +0.000 A 
ATOM      6  C   UNL     1       0.541  11.093  19.245  0.00  0.00    +0.000 A 
ATOM      7 CL   UNL     1       0.183  12.595  18.469  0.00  0.00    +0.000 Cl
ATOM      8  C   UNL     1       2.374   7.951  18.245  0.00  0.00    +0.000 C 
ATOM      9  O   UNL     1       2.883   8.332  17.195  0.00  0.00    +0.000 OA
ATOM     10  N   UNL     1       2.675   6.745  18.879  0.00  0.00    +0.000 N 
ATOM     11  N   UNL     1       1.819   6.269  19.910  0.00  0.00    +0.000 NA
ATOM     12  C   UNL     1       1.646   7.278  20.953  0.00  0.00    +0.000 C 
ATOM     13  H   UNL     1       2.191   5.408  20.310  0.00  0.00    +0.000 HD
ENDROOT
BRANCH   1  14
ATOM     14  S   UNL     1      -0.334  12.086  21.673  0.00  0.00    +0.000 S 
ATOM     15  O   UNL     1      -1.686  12.397  21.257  0.00  0.00    +0.000 OA
ATOM     16  O   UNL     1       0.655  13.115  21.865  0.00  0.00    +0.000 OA
BRANCH  14  17
ATOM     17  N   UNL     1      -0.515  11.273  23.131  0.00  0.00    +0.000 NA
ATOM     18  H   UNL     1      -1.349  11.603  23.618  0.00  0.00    +0.000 HD
ATOM     19  H   UNL     1       0.343  11.341  23.683  0.00  0.00    +0.000 HD
ENDBRANCH  14  17
ENDBRANCH   1  14
BRANCH  10  20
ATOM     20  C   UNL     1       3.888   6.012  18.529  0.00  0.00    +0.000 C 
BRANCH  20  21
ATOM     21  C   UNL     1       3.702   4.520  18.480  0.00  0.00    +0.000 A 
ATOM     22  C   UNL     1       2.885   3.946  17.496  0.00  0.00    +0.000 A 
ATOM     23  C   UNL     1       2.684   2.566  17.458  0.00  0.00    +0.000 A 
ATOM     24  C   UNL     1       3.301   1.748  18.400  0.00  0.00    +0.000 A 
ATOM     25  C   UNL     1       4.125   2.306  19.375  0.00  0.00    +0.000 A 
ATOM     26  C   UNL     1       4.327   3.687  19.417  0.00  0.00    +0.000 A 
ENDBRANCH  20  21
ENDBRANCH  10  20
TORSDOF 4
ENDMDL
MODEL 8
REMARK VINA RESULT:      -7.1      1.139      1.763
REMARK  Name = 
REMARK  4 active torsions:
REMARK  status: ('A' for Active; 'I' for Inactive)
REMARK    1  A    between atoms: N_1  and  S_2
REMARK    2  A    between atoms: S_2  and  C_5
REMARK    3  A    between atoms: N_14  and  C_15
REMARK    4  A    between atoms: C_15  and  C_16
REMARK                            x       y       z     vdW  Elec       q    Type
REMARK                         _______ _______ _______ _____ _____    ______ ____
ROOT
ATOM      1  C   UNL     1       3.204   4.443  19.434  0.00  0.00    +0.000 A 
ATOM      2  C   UNL     1       2.460   5.196  20.360  0.00  0.00    +0.000 A 
ATOM      3  C   UNL     1       2.164   6.539  20.099  0.00  0.00    +0.000 A 
ATOM      4  C   UNL     1       2.603   7.112  18.896  0.00  0.00    +0.000 A 
ATOM      5  C   UNL     1       3.389   6.377  18.001  0.00  0.00    +0.000 A 
ATOM      6  C   UNL     1       3.693   5.039  18.267  0.00  0.00    +0.000 A 
ATOM      7 CL   UNL     1       4.620   4.205  17.072  0.00  0.00    +0.000 Cl
ATOM      8  C   UNL     1       2.061   8.434  18.481  0.00  0.00    +0.000 C 
ATOM      9  O   UNL     1       2.183   8.797  17.315  0.00  0.00    +0.000 OA
ATOM     10  N   UNL     1       1.300   9.099  19.443  0.00  0.00    +0.000 N 
ATOM     11  N   UNL     1       1.471   8.771  20.815  0.00  0.00    +0.000 NA
ATOM     12  C   UNL     1       1.293   7.336  21.035  0.00  0.00    +0.000 C 
ATOM     13  H   UNL     1       0.816   9.300  21.390  0.00  0.00    +0.000 HD
ENDROOT
BRANCH   1  14
ATOM     14  S   UNL     1       3.461   2.727  19.767  0.00  0.00    +0.000 S 
ATOM     15  O   UNL     1       4.875   2.506  19.988  0.00  0.00    +0.000 OA
ATOM     16  O   UNL     1       2.709   1.937  18.826  0.00  0.00    +0.000 OA
BRANCH  14  17
ATOM     17  N   UNL     1       2.759   2.526  21.279  0.00  0.00    +0.000 NA
ATOM     18  H   UNL     1       3.379   2.883  22.006  0.00  0.00    +0.000 HD
ATOM     19  H   UNL     1       2.478   1.553  21.412  0.00  0.00    +0.000 HD
ENDBRANCH  14  17
ENDBRANCH   1  14
BRANCH  10  20
ATOM     20  C   UNL     1       0.296  10.079  19.038  0.00  0.00    +0.000 C 
BRANCH  20  21
ATOM     21  C   UNL     1       0.158  11.235  19.990  0.00  0.00    +0.000 A 
ATOM     22  C   UNL     1       1.139  12.236  20.028  0.00  0.00    +0.000 A 
ATOM     23  C   UNL     1       1.034  13.298  20.926  0.00  0.00    +0.000 A 
ATOM     24  C   UNL     1      -0.053  13.371  21.791  0.00  0.00    +0.000 A 
ATOM     25  C   UNL     1      -1.041  12.389  21.754  0.00  0.00    +0.000 A 
ATOM     26  C   UNL     1      -0.939  11.324  20.858  0.00  0.00    +0.000 A 
ENDBRANCH  20  21
ENDBRANCH  10  20
TORSDOF 4
ENDMDL
MODEL 9
REMARK VINA RESULT:      -7.1      4.190      7.749
REMARK  Name = 
REMARK  4 active torsions:
REMARK  status: ('A' for Active; 'I' for Inactive)
REMARK    1  A    between atoms: N_1  and  S_2
REMARK    2  A    between atoms: S_2  and  C_5
REMARK    3  A    between atoms: N_14  and  C_15
REMARK    4  A    between atoms: C_15  and  C_16
REMARK                            x       y       z     vdW  Elec       q    Type
REMARK                         _______ _______ _______ _____ _____    ______ ____
ROOT
ATOM      1  C   UNL     1      -0.238  11.027  19.655  0.00  0.00    +0.000 A 
ATOM      2  C   UNL     1       0.526  10.567  18.568  0.00  0.00    +0.000 A 
ATOM      3  C   UNL     1       1.324   9.424  18.703  0.00  0.00    +0.000 A 
ATOM      4  C   UNL     1       1.330   8.739  19.927  0.00  0.00    +0.000 A 
ATOM      5  C   UNL     1       0.611   9.229  21.023  0.00  0.00    +0.000 A 
ATOM      6  C   UNL     1      -0.175  10.376  20.891  0.00  0.00    +0.000 A 
ATOM      7 CL   UNL     1      -1.069  10.864  22.286  0.00  0.00    +0.000 Cl
ATOM      8  C   UNL     1       1.940   7.383  19.996  0.00  0.00    +0.000 C 
ATOM      9  O   UNL     1       1.682   6.654  20.950  0.00  0.00    +0.000 OA
ATOM     10  N   UNL     1       2.648   6.984  18.862  0.00  0.00    +0.000 N 
ATOM     11  N   UNL     1       3.149   7.972  17.971  0.00  0.00    +0.000 NA
ATOM     12  C   UNL     1       2.079   8.864  17.525  0.00  0.00    +0.000 C 
ATOM     13  H   UNL     1       3.598   7.531  17.169  0.00  0.00    +0.000 HD
ENDROOT
BRANCH   1  14
ATOM     14  S   UNL     1      -1.303  12.414  19.400  0.00  0.00    +0.000 S 
ATOM     15  O   UNL     1      -0.780  13.541  20.143  0.00  0.00    +0.000 OA
ATOM     16  O   UNL     1      -2.675  11.995  19.525  0.00  0.00    +0.000 OA
BRANCH  14  17
ATOM     17  N   UNL     1      -1.033  12.806  17.789  0.00  0.00    +0.000 NA
ATOM     18  H   UNL     1      -1.448  12.100  17.180  0.00  0.00    +0.000 HD
ATOM     19  H   UNL     1      -0.037  12.963  17.625  0.00  0.00    +0.000 HD
ENDBRANCH  14  17
ENDBRANCH   1  14
BRANCH  10  20
ATOM     20  C   UNL     1       2.820   5.566  18.564  0.00  0.00    +0.000 C 
BRANCH  20  21
ATOM     21  C   UNL     1       4.209   5.205  18.110  0.00  0.00    +0.000 A 
ATOM     22  C   UNL     1       4.414   4.679  16.827  0.00  0.00    +0.000 A 
ATOM     23  C   UNL     1       5.693   4.316  16.406  0.00  0.00    +0.000 A 
ATOM     24  C   UNL     1       6.779   4.480  17.262  0.00  0.00    +0.000 A 
ATOM     25  C   UNL     1       6.588   5.014  18.535  0.00  0.00    +0.000 A 
ATOM     26  C   UNL     1       5.309   5.377  18.960  0.00  0.00    +0.000 A 
ENDBRANCH  20  21
ENDBRANCH  10  20
TORSDOF 4
ENDMDL
