MODEL 1
REMARK VINA RESULT:      -7.4      0.000      0.000
REMARK  Name = 
REMARK  4 active torsions:
REMARK  status: ('A' for Active; 'I' for Inactive)
REMARK    1  A    between atoms: C_4  and  C_5
REMARK    2  A    between atoms: C_5  and  C_6
REMARK    3  A    between atoms: C_6  and  C_7
REMARK    4  A    between atoms: C_7  and  N_8
REMARK                            x       y       z     vdW  Elec       q    Type
REMARK                         _______ _______ _______ _____ _____    ______ ____
ROOT
ATOM      1  O   UNL     1       5.192   6.942  15.391  0.00  0.00    +0.000 OA
ATOM      2  N   UNL     1       5.675   6.535  16.480  0.00  0.00    +0.000 N 
ATOM      3  N   UNL     1       6.757   7.185  16.894  0.00  0.00    +0.000 NA
ATOM      4  C   UNL     1       7.322   6.865  18.077  0.00  0.00    +0.000 A 
ATOM      5  N   UNL     1       6.852   5.830  18.862  0.00  0.00    +0.000 N 
ATOM      6  O   UNL     1       7.412   5.529  19.967  0.00  0.00    +0.000 OA
ATOM      7  C   UNL     1       5.716   5.132  18.423  0.00  0.00    +0.000 A 
ATOM      8  C   UNL     1       5.152   4.079  19.170  0.00  0.00    +0.000 A 
ATOM      9  C   UNL     1       3.989   3.434  18.738  0.00  0.00    +0.000 A 
ATOM     10  C   UNL     1       3.378   3.821  17.547  0.00  0.00    +0.000 A 
ATOM     11  C   UNL     1       3.933   4.842  16.781  0.00  0.00    +0.000 A 
ATOM     12  C   UNL     1       5.101   5.504  17.211  0.00  0.00    +0.000 A 
ENDROOT
BRANCH   4  13
ATOM     13  C   UNL     1       8.473   7.678  18.597  0.00  0.00    +0.000 C 
BRANCH  13  14
ATOM     14  C   UNL     1       8.491   9.148  18.162  0.00  0.00    +0.000 C 
BRANCH  14  15
ATOM     15  C   UNL     1       9.042  10.140  19.209  0.00  0.00    +0.000 C 
BRANCH  15  16
ATOM     16  N   UNL     1       9.237  11.451  18.584  0.00  0.00    +0.000 NA
ATOM     17  C   UNL     1      10.415  11.532  17.701  0.00  0.00    +0.000 C 
ATOM     18  C   UNL     1      11.734  11.802  18.434  0.00  0.00    +0.000 C 
ATOM     19  O   UNL     1      11.650  13.006  19.201  0.00  0.00    +0.000 OA
ATOM     20  C   UNL     1      10.611  12.893  20.180  0.00  0.00    +0.000 C 
ATOM     21  C   UNL     1       9.247  12.574  19.543  0.00  0.00    +0.000 C 
ENDBRANCH  15  16
ENDBRANCH  14  15
ENDBRANCH  13  14
ENDBRANCH   4  13
TORSDOF 4
ENDMDL
MODEL 2
REMARK VINA RESULT:      -7.4      4.215      7.899
REMARK  Name = 
REMARK  4 active torsions:
REMARK  status: ('A' for Active; 'I' for Inactive)
REMARK    1  A    between atoms: C_4  and  C_5
REMARK    2  A    between atoms: C_5  and  C_6
REMARK    3  A    between atoms: C_6  and  C_7
REMARK    4  A    between atoms: C_7  and  N_8
REMARK                            x       y       z     vdW  Elec       q    Type
REMARK                         _______ _______ _______ _____ _____    ______ ____
ROOT
ATOM      1  O   UNL     1       5.230   5.698  15.001  0.00  0.00    +0.000 OA
ATOM      2  N   UNL     1       5.266   5.172  16.144  0.00  0.00    +0.000 N 
ATOM      3  N   UNL     1       4.438   4.148  16.318  0.00  0.00    +0.000 NA
ATOM      4  C   UNL     1       4.435   3.476  17.488  0.00  0.00    +0.000 A 
ATOM      5  N   UNL     1       5.227   3.853  18.555  0.00  0.00    +0.000 N 
ATOM      6  O   UNL     1       5.197   3.219  19.661  0.00  0.00    +0.000 OA
ATOM      7  C   UNL     1       6.095   4.943  18.381  0.00  0.00    +0.000 A 
ATOM      8  C   UNL     1       6.958   5.382  19.405  0.00  0.00    +0.000 A 
ATOM      9  C   UNL     1       7.851   6.435  19.190  0.00  0.00    +0.000 A 
ATOM     10  C   UNL     1       7.890   7.075  17.953  0.00  0.00    +0.000 A 
ATOM     11  C   UNL     1       7.029   6.673  16.935  0.00  0.00    +0.000 A 
ATOM     12  C   UNL     1       6.129   5.608  17.140  0.00  0.00    +0.000 A 
ENDROOT
BRANCH   4  13
ATOM     13  C   UNL     1       3.584   2.248  17.641  0.00  0.00    +0.000 C 
BRANCH  13  14
ATOM     14  C   UNL     1       2.089   2.505  17.858  0.00  0.00    +0.000 C 
BRANCH  14  15
ATOM     15  C   UNL     1       1.722   3.939  18.297  0.00  0.00    +0.000 C 
BRANCH  15  16
ATOM     16  N   UNL     1       0.931   3.885  19.530  0.00  0.00    +0.000 NA
ATOM     17  C   UNL     1       1.233   4.960  20.491  0.00  0.00    +0.000 C 
ATOM     18  C   UNL     1       2.449   4.685  21.383  0.00  0.00    +0.000 C 
ATOM     19  O   UNL     1       2.284   3.459  22.101  0.00  0.00    +0.000 OA
ATOM     20  C   UNL     1       2.148   2.368  21.184  0.00  0.00    +0.000 C 
ATOM     21  C   UNL     1       0.975   2.574  20.209  0.00  0.00    +0.000 C 
ENDBRANCH  15  16
ENDBRANCH  14  15
ENDBRANCH  13  14
ENDBRANCH   4  13
TORSDOF 4
ENDMDL
MODEL 3
REMARK VINA RESULT:      -7.3      5.065      8.163
REMARK  Name = 
REMARK  4 active torsions:
REMARK  status: ('A' for Active; 'I' for Inactive)
REMARK    1  A    between atoms: C_4  and  C_5
REMARK    2  A    between atoms: C_5  and  C_6
REMARK    3  A    between atoms: C_6  and  C_7
REMARK    4  A    between atoms: C_7  and  N_8
REMARK                            x       y       z     vdW  Elec       q    Type
REMARK                         _______ _______ _______ _____ _____    ______ ____
ROOT
ATOM      1  O   UNL     1       7.415   5.195  19.629  0.00  0.00    +0.000 OA
ATOM      2  N   UNL     1       6.310   5.203  19.027  0.00  0.00    +0.000 N 
ATOM      3  N   UNL     1       5.261   5.510  19.783  0.00  0.00    +0.000 NA
ATOM      4  C   UNL     1       4.035   5.601  19.226  0.00  0.00    +0.000 A 
ATOM      5  N   UNL     1       3.810   5.324  17.892  0.00  0.00    +0.000 N 
ATOM      6  O   UNL     1       2.641   5.396  17.387  0.00  0.00    +0.000 OA
ATOM      7  C   UNL     1       4.914   4.989  17.091  0.00  0.00    +0.000 A 
ATOM      8  C   UNL     1       4.783   4.715  15.715  0.00  0.00    +0.000 A 
ATOM      9  C   UNL     1       5.904   4.436  14.929  0.00  0.00    +0.000 A 
ATOM     10  C   UNL     1       7.172   4.412  15.504  0.00  0.00    +0.000 A 
ATOM     11  C   UNL     1       7.321   4.654  16.868  0.00  0.00    +0.000 A 
ATOM     12  C   UNL     1       6.198   4.944  17.668  0.00  0.00    +0.000 A 
ENDROOT
BRANCH   4  13
ATOM     13  C   UNL     1       2.871   6.061  20.057  0.00  0.00    +0.000 C 
BRANCH  13  14
ATOM     14  C   UNL     1       2.174   4.970  20.875  0.00  0.00    +0.000 C 
BRANCH  14  15
ATOM     15  C   UNL     1       0.941   4.326  20.203  0.00  0.00    +0.000 C 
BRANCH  15  16
ATOM     16  N   UNL     1       1.076   2.866  20.233  0.00  0.00    +0.000 NA
ATOM     17  C   UNL     1       2.314   2.385  20.872  0.00  0.00    +0.000 C 
ATOM     18  C   UNL     1       3.536   2.374  19.947  0.00  0.00    +0.000 C 
ATOM     19  O   UNL     1       3.283   1.585  18.782  0.00  0.00    +0.000 OA
ATOM     20  C   UNL     1       2.177   2.128  18.052  0.00  0.00    +0.000 C 
ATOM     21  C   UNL     1       0.906   2.224  18.914  0.00  0.00    +0.000 C 
ENDBRANCH  15  16
ENDBRANCH  14  15
ENDBRANCH  13  14
ENDBRANCH   4  13
TORSDOF 4
ENDMDL
MODEL 4
REMARK VINA RESULT:      -7.0      0.873      1.321
REMARK  Name = 
REMARK  4 active torsions:
REMARK  status: ('A' for Active; 'I' for Inactive)
REMARK    1  A    between atoms: C_4  and  C_5
REMARK    2  A    between atoms: C_5  and  C_6
REMARK    3  A    between atoms: C_6  and  C_7
REMARK    4  A    between atoms: C_7  and  N_8
REMARK                            x       y       z     vdW  Elec       q    Type
REMARK                         _______ _______ _______ _____ _____    ______ ____
ROOT
ATOM      1  O   UNL     1       6.115   5.911  14.922  0.00  0.00    +0.000 OA
ATOM      2  N   UNL     1       6.303   5.774  16.159  0.00  0.00    +0.000 N 
ATOM      3  N   UNL     1       7.222   6.579  16.681  0.00  0.00    +0.000 NA
ATOM      4  C   UNL     1       7.463   6.554  18.008  0.00  0.00    +0.000 A 
ATOM      5  N   UNL     1       6.827   5.668  18.855  0.00  0.00    +0.000 N 
ATOM      6  O   UNL     1       7.082   5.644  20.105  0.00  0.00    +0.000 OA
ATOM      7  C   UNL     1       5.862   4.807  18.307  0.00  0.00    +0.000 A 
ATOM      8  C   UNL     1       5.145   3.888  19.099  0.00  0.00    +0.000 A 
ATOM      9  C   UNL     1       4.153   3.078  18.539  0.00  0.00    +0.000 A 
ATOM     10  C   UNL     1       3.868   3.164  17.178  0.00  0.00    +0.000 A 
ATOM     11  C   UNL     1       4.582   4.048  16.373  0.00  0.00    +0.000 A 
ATOM     12  C   UNL     1       5.580   4.873  16.929  0.00  0.00    +0.000 A 
ENDROOT
BRANCH   4  13
ATOM     13  C   UNL     1       8.417   7.545  18.612  0.00  0.00    +0.000 C 
BRANCH  13  14
ATOM     14  C   UNL     1       8.474   8.911  17.919  0.00  0.00    +0.000 C 
BRANCH  14  15
ATOM     15  C   UNL     1       8.534  10.130  18.866  0.00  0.00    +0.000 C 
BRANCH  15  16
ATOM     16  N   UNL     1       9.912  10.628  18.933  0.00  0.00    +0.000 NA
ATOM     17  C   UNL     1      10.220  11.392  20.154  0.00  0.00    +0.000 C 
ATOM     18  C   UNL     1       9.801  12.866  20.097  0.00  0.00    +0.000 C 
ATOM     19  O   UNL     1      10.405  13.522  18.979  0.00  0.00    +0.000 OA
ATOM     20  C   UNL     1       9.992  12.893  17.760  0.00  0.00    +0.000 C 
ATOM     21  C   UNL     1      10.328  11.392  17.740  0.00  0.00    +0.000 C 
ENDBRANCH  15  16
ENDBRANCH  14  15
ENDBRANCH  13  14
ENDBRANCH   4  13
TORSDOF 4
ENDMDL
MODEL 5
REMARK VINA RESULT:      -6.9      3.943      6.089
REMARK  Name = 
REMARK  4 active torsions:
REMARK  status: ('A' for Active; 'I' for Inactive)
REMARK    1  A    between atoms: C_4  and  C_5
REMARK    2  A    between atoms: C_5  and  C_6
REMARK    3  A    between atoms: C_6  and  C_7
REMARK    4  A    between atoms: C_7  and  N_8
REMARK                            x       y       z     vdW  Elec       q    Type
REMARK                         _______ _______ _______ _____ _____    ______ ____
ROOT
ATOM      1  O   UNL     1       2.827   8.279  17.004  0.00  0.00    +0.000 OA
ATOM      2  N   UNL     1       2.580   7.589  18.027  0.00  0.00    +0.000 N 
ATOM      3  N   UNL     1       3.020   6.337  17.982  0.00  0.00    +0.000 NA
ATOM      4  C   UNL     1       2.856   5.527  19.049  0.00  0.00    +0.000 A 
ATOM      5  N   UNL     1       2.183   5.933  20.185  0.00  0.00    +0.000 N 
ATOM      6  O   UNL     1       2.020   5.148  21.176  0.00  0.00    +0.000 OA
ATOM      7  C   UNL     1       1.706   7.253  20.234  0.00  0.00    +0.000 A 
ATOM      8  C   UNL     1       1.030   7.762  21.361  0.00  0.00    +0.000 A 
ATOM      9  C   UNL     1       0.612   9.094  21.406  0.00  0.00    +0.000 A 
ATOM     10  C   UNL     1       0.848   9.938  20.323  0.00  0.00    +0.000 A 
ATOM     11  C   UNL     1       1.491   9.448  19.189  0.00  0.00    +0.000 A 
ATOM     12  C   UNL     1       1.924   8.108  19.136  0.00  0.00    +0.000 A 
ENDROOT
BRANCH   4  13
ATOM     13  C   UNL     1       3.457   4.151  19.040  0.00  0.00    +0.000 C 
BRANCH  13  14
ATOM     14  C   UNL     1       4.943   4.083  18.673  0.00  0.00    +0.000 C 
BRANCH  14  15
ATOM     15  C   UNL     1       5.835   5.160  19.329  0.00  0.00    +0.000 C 
BRANCH  15  16
ATOM     16  N   UNL     1       7.172   5.119  18.727  0.00  0.00    +0.000 NA
ATOM     17  C   UNL     1       7.882   6.410  18.743  0.00  0.00    +0.000 C 
ATOM     18  C   UNL     1       7.507   7.350  17.591  0.00  0.00    +0.000 C 
ATOM     19  O   UNL     1       7.729   6.718  16.328  0.00  0.00    +0.000 OA
ATOM     20  C   UNL     1       6.924   5.538  16.221  0.00  0.00    +0.000 C 
ATOM     21  C   UNL     1       7.195   4.546  17.366  0.00  0.00    +0.000 C 
ENDBRANCH  15  16
ENDBRANCH  14  15
ENDBRANCH  13  14
ENDBRANCH   4  13
TORSDOF 4
ENDMDL
MODEL 6
REMARK VINA RESULT:      -6.8      5.091      7.178
REMARK  Name = 
REMARK  4 active torsions:
REMARK  status: ('A' for Active; 'I' for Inactive)
REMARK    1  A    between atoms: C_4  and  C_5
REMARK    2  A    between atoms: C_5  and  C_6
REMARK    3  A    between atoms: C_6  and  C_7
REMARK    4  A    between atoms: C_7  and  N_8
REMARK                            x       y       z     vdW  Elec       q    Type
REMARK                         _______ _______ _______ _____ _____    ______ ____
ROOT
ATOM      1  O   UNL     1       7.109   5.399  19.897  0.00  0.00    +0.000 OA
ATOM      2  N   UNL     1       6.068   5.156  19.233  0.00  0.00    +0.000 N 
ATOM      3  N   UNL     1       4.928   5.307  19.898  0.00  0.00    +0.000 NA
ATOM      4  C   UNL     1       3.750   5.126  19.265  0.00  0.00    +0.000 A 
ATOM      5  N   UNL     1       3.678   4.722  17.946  0.00  0.00    +0.000 N 
ATOM      6  O   UNL     1       2.556   4.535  17.369  0.00  0.00    +0.000 OA
ATOM      7  C   UNL     1       4.881   4.549  17.241  0.00  0.00    +0.000 A 
ATOM      8  C   UNL     1       4.903   4.164  15.886  0.00  0.00    +0.000 A 
ATOM      9  C   UNL     1       6.111   4.050  15.192  0.00  0.00    +0.000 A 
ATOM     10  C   UNL     1       7.317   4.306  15.841  0.00  0.00    +0.000 A 
ATOM     11  C   UNL     1       7.318   4.664  17.187  0.00  0.00    +0.000 A 
ATOM     12  C   UNL     1       6.105   4.789  17.894  0.00  0.00    +0.000 A 
ENDROOT
BRANCH   4  13
ATOM     13  C   UNL     1       2.464   5.411  19.986  0.00  0.00    +0.000 C 
BRANCH  13  14
ATOM     14  C   UNL     1       1.999   6.871  19.950  0.00  0.00    +0.000 C 
BRANCH  14  15
ATOM     15  C   UNL     1       1.238   7.353  21.204  0.00  0.00    +0.000 C 
BRANCH  15  16
ATOM     16  N   UNL     1       1.481   8.785  21.402  0.00  0.00    +0.000 NA
ATOM     17  C   UNL     1       0.956   9.318  22.672  0.00  0.00    +0.000 C 
ATOM     18  C   UNL     1      -0.532   9.683  22.634  0.00  0.00    +0.000 C 
ATOM     19  O   UNL     1      -0.796  10.628  21.593  0.00  0.00    +0.000 OA
ATOM     20  C   UNL     1      -0.442  10.070  20.323  0.00  0.00    +0.000 C 
ATOM     21  C   UNL     1       1.031   9.627  20.276  0.00  0.00    +0.000 C 
ENDBRANCH  15  16
ENDBRANCH  14  15
ENDBRANCH  13  14
ENDBRANCH   4  13
TORSDOF 4
ENDMDL
MODEL 7
REMARK VINA RESULT:      -6.8      4.072      7.250
REMARK  Name = 
REMARK  4 active torsions:
REMARK  status: ('A' for Active; 'I' for Inactive)
REMARK    1  A    between atoms: C_4  and  C_5
REMARK    2  A    between atoms: C_5  and  C_6
REMARK    3  A    between atoms: C_6  and  C_7
REMARK    4  A    between atoms: C_7  and  N_8
REMARK                            x       y       z     vdW  Elec       q    Type
REMARK                         _______ _______ _______ _____ _____    ______ ____
ROOT
ATOM      1  O   UNL     1       5.365   5.986  14.923  0.00  0.00    +0.000 OA
ATOM      2  N   UNL     1       5.442   5.394  16.031  0.00  0.00    +0.000 N 
ATOM      3  N   UNL     1       4.683   4.309  16.143  0.00  0.00    +0.000 NA
ATOM      4  C   UNL     1       4.731   3.568  17.269  0.00  0.00    +0.000 A 
ATOM      5  N   UNL     1       5.504   3.929  18.356  0.00  0.00    +0.000 N 
ATOM      6  O   UNL     1       5.521   3.228  19.421  0.00  0.00    +0.000 OA
ATOM      7  C   UNL     1       6.299   5.082  18.247  0.00  0.00    +0.000 A 
ATOM      8  C   UNL     1       7.138   5.512  19.295  0.00  0.00    +0.000 A 
ATOM      9  C   UNL     1       7.959   6.632  19.142  0.00  0.00    +0.000 A 
ATOM     10  C   UNL     1       7.949   7.349  17.948  0.00  0.00    +0.000 A 
ATOM     11  C   UNL     1       7.109   6.955  16.909  0.00  0.00    +0.000 A 
ATOM     12  C   UNL     1       6.282   5.823  17.049  0.00  0.00    +0.000 A 
ENDROOT
BRANCH   4  13
ATOM     13  C   UNL     1       3.962   2.280  17.348  0.00  0.00    +0.000 C 
BRANCH  13  14
ATOM     14  C   UNL     1       2.474   2.421  17.684  0.00  0.00    +0.000 C 
BRANCH  14  15
ATOM     15  C   UNL     1       2.163   2.929  19.108  0.00  0.00    +0.000 C 
BRANCH  15  16
ATOM     16  N   UNL     1       1.250   4.074  19.030  0.00  0.00    +0.000 NA
ATOM     17  C   UNL     1       1.693   5.139  18.113  0.00  0.00    +0.000 C 
ATOM     18  C   UNL     1       2.701   6.119  18.725  0.00  0.00    +0.000 C 
ATOM     19  O   UNL     1       2.168   6.721  19.908  0.00  0.00    +0.000 OA
ATOM     20  C   UNL     1       1.877   5.714  20.883  0.00  0.00    +0.000 C 
ATOM     21  C   UNL     1       0.903   4.651  20.344  0.00  0.00    +0.000 C 
ENDBRANCH  15  16
ENDBRANCH  14  15
ENDBRANCH  13  14
ENDBRANCH   4  13
TORSDOF 4
ENDMDL
MODEL 8
REMARK VINA RESULT:      -6.7      4.708      6.911
REMARK  Name = 
REMARK  4 active torsions:
REMARK  status: ('A' for Active; 'I' for Inactive)
REMARK    1  A    between atoms: C_4  and  C_5
REMARK    2  A    between atoms: C_5  and  C_6
REMARK    3  A    between atoms: C_6  and  C_7
REMARK    4  A    between atoms: C_7  and  N_8
REMARK                            x       y       z     vdW  Elec       q    Type
REMARK                         _______ _______ _______ _____ _____    ______ ____
ROOT
ATOM      1  O   UNL     1       2.230   9.311  17.277  0.00  0.00    +0.000 OA
ATOM      2  N   UNL     1       2.056   8.549  18.263  0.00  0.00    +0.000 N 
ATOM      3  N   UNL     1       2.534   7.319  18.116  0.00  0.00    +0.000 NA
ATOM      4  C   UNL     1       2.450   6.437  19.134  0.00  0.00    +0.000 A 
ATOM      5  N   UNL     1       1.821   6.746  20.325  0.00  0.00    +0.000 N 
ATOM      6  O   UNL     1       1.732   5.894  21.269  0.00  0.00    +0.000 OA
ATOM      7  C   UNL     1       1.304   8.042  20.482  0.00  0.00    +0.000 A 
ATOM      8  C   UNL     1       0.669   8.454  21.670  0.00  0.00    +0.000 A 
ATOM      9  C   UNL     1       0.209   9.765  21.822  0.00  0.00    +0.000 A 
ATOM     10  C   UNL     1       0.364  10.684  20.786  0.00  0.00    +0.000 A 
ATOM     11  C   UNL     1       0.967  10.290  19.594  0.00  0.00    +0.000 A 
ATOM     12  C   UNL     1       1.440   8.973  19.433  0.00  0.00    +0.000 A 
ENDROOT
BRANCH   4  13
ATOM     13  C   UNL     1       3.094   5.087  19.007  0.00  0.00    +0.000 C 
BRANCH  13  14
ATOM     14  C   UNL     1       3.084   4.482  17.599  0.00  0.00    +0.000 C 
BRANCH  14  15
ATOM     15  C   UNL     1       4.475   4.236  16.975  0.00  0.00    +0.000 C 
BRANCH  15  16
ATOM     16  N   UNL     1       4.866   5.403  16.178  0.00  0.00    +0.000 NA
ATOM     17  C   UNL     1       5.502   5.071  14.890  0.00  0.00    +0.000 C 
ATOM     18  C   UNL     1       7.001   4.767  14.988  0.00  0.00    +0.000 C 
ATOM     19  O   UNL     1       7.703   5.864  15.579  0.00  0.00    +0.000 OA
ATOM     20  C   UNL     1       7.210   6.107  16.901  0.00  0.00    +0.000 C 
ATOM     21  C   UNL     1       5.696   6.378  16.914  0.00  0.00    +0.000 C 
ENDBRANCH  15  16
ENDBRANCH  14  15
ENDBRANCH  13  14
ENDBRANCH   4  13
TORSDOF 4
ENDMDL
MODEL 9
REMARK VINA RESULT:      -6.7      1.401      1.529
REMARK  Name = 
REMARK  4 active torsions:
REMARK  status: ('A' for Active; 'I' for Inactive)
REMARK    1  A    between atoms: C_4  and  C_5
REMARK    2  A    between atoms: C_5  and  C_6
REMARK    3  A    between atoms: C_6  and  C_7
REMARK    4  A    between atoms: C_7  and  N_8
REMARK                            x       y       z     vdW  Elec       q    Type
REMARK                         _______ _______ _______ _____ _____    ______ ____
ROOT
ATOM      1  O   UNL     1       3.147   7.814  17.353  0.00  0.00    +0.000 OA
ATOM      2  N   UNL     1       4.036   6.944  17.544  0.00  0.00    +0.000 N 
ATOM      3  N   UNL     1       5.285   7.391  17.475  0.00  0.00    +0.000 NA
ATOM      4  C   UNL     1       6.315   6.553  17.719  0.00  0.00    +0.000 A 
ATOM      5  N   UNL     1       6.124   5.210  17.982  0.00  0.00    +0.000 N 
ATOM      6  O   UNL     1       7.110   4.429  18.189  0.00  0.00    +0.000 OA
ATOM      7  C   UNL     1       4.806   4.730  18.044  0.00  0.00    +0.000 A 
ATOM      8  C   UNL     1       4.516   3.381  18.331  0.00  0.00    +0.000 A 
ATOM      9  C   UNL     1       3.194   2.939  18.441  0.00  0.00    +0.000 A 
ATOM     10  C   UNL     1       2.141   3.831  18.253  0.00  0.00    +0.000 A 
ATOM     11  C   UNL     1       2.406   5.163  17.944  0.00  0.00    +0.000 A 
ATOM     12  C   UNL     1       3.735   5.621  17.838  0.00  0.00    +0.000 A 
ENDROOT
BRANCH   4  13
ATOM     13  C   UNL     1       7.718   7.087  17.755  0.00  0.00    +0.000 C 
BRANCH  13  14
ATOM     14  C   UNL     1       7.841   8.612  17.830  0.00  0.00    +0.000 C 
BRANCH  14  15
ATOM     15  C   UNL     1       8.959   9.141  18.755  0.00  0.00    +0.000 C 
BRANCH  15  16
ATOM     16  N   UNL     1       8.723  10.558  19.046  0.00  0.00    +0.000 NA
ATOM     17  C   UNL     1       9.011  11.464  17.920  0.00  0.00    +0.000 C 
ATOM     18  C   UNL     1      10.489  11.846  17.781  0.00  0.00    +0.000 C 
ATOM     19  O   UNL     1      10.973  12.443  18.988  0.00  0.00    +0.000 OA
ATOM     20  C   UNL     1      10.852  11.520  20.075  0.00  0.00    +0.000 C 
ATOM     21  C   UNL     1       9.403  11.037  20.266  0.00  0.00    +0.000 C 
ENDBRANCH  15  16
ENDBRANCH  14  15
ENDBRANCH  13  14
ENDBRANCH   4  13
TORSDOF 4
ENDMDL
