MODEL 1
REMARK VINA RESULT:      -8.1      0.000      0.000
REMARK  Name = 
REMARK  5 active torsions:
REMARK  status: ('A' for Active; 'I' for Inactive)
REMARK    1  A    between atoms: C_2  and  C_3
REMARK    2  A    between atoms: C_3  and  S_4
REMARK    3  A    between atoms: S_4  and  C_5
REMARK    4  A    between atoms: C_8  and  C_9
REMARK    5  A    between atoms: N_18  and  C_19
REMARK                            x       y       z     vdW  Elec       q    Type
REMARK                         _______ _______ _______ _____ _____    ______ ____
ROOT
ATOM      1  C   UNL     1       2.125   3.757  21.680  0.00  0.00    +0.000 C 
ENDROOT
BRANCH   1   3
ATOM      2  O   UNL     1       0.520   4.742  20.232  0.00  0.00    +0.000 OA
ATOM      3  C   UNL     1       1.601   4.884  20.804  0.00  0.00    +0.000 C 
ATOM      4  N   UNL     1       2.371   6.033  20.773  0.00  0.00    +0.000 N 
ATOM      5  H   UNL     1       3.316   5.944  21.131  0.00  0.00    +0.000 HD
BRANCH   4   6
ATOM      6  C   UNL     1       2.023   7.267  20.179  0.00  0.00    +0.000 A 
ATOM      7  C   UNL     1       2.320   7.576  18.847  0.00  0.00    +0.000 A 
ATOM      8  C   UNL     1       1.917   8.790  18.283  0.00  0.00    +0.000 A 
ATOM      9  C   UNL     1       1.216   9.711  19.048  0.00  0.00    +0.000 A 
ATOM     10  C   UNL     1       0.902   9.414  20.376  0.00  0.00    +0.000 A 
ATOM     11  C   UNL     1       1.309   8.201  20.944  0.00  0.00    +0.000 A 
ATOM     12  O   UNL     1       0.200  10.272  21.186  0.00  0.00    +0.000 OA
ATOM     13  C   UNL     1      -0.490  11.263  20.415  0.00  0.00    +0.000 C 
ATOM     14  C   UNL     1       0.424  11.867  19.362  0.00  0.00    +0.000 C 
ATOM     15  O   UNL     1       0.851  10.875  18.423  0.00  0.00    +0.000 OA
ENDBRANCH   4   6
ENDBRANCH   1   3
BRANCH   1  16
ATOM     16  S   UNL     1       2.402   2.194  20.788  0.00  0.00    +0.000 S 
BRANCH  16  17
ATOM     17  C   UNL     1       3.284   2.817  19.369  0.00  0.00    +0.000 A 
ATOM     18  C   UNL     1       2.693   2.789  18.121  0.00  0.00    +0.000 A 
ATOM     19  C   UNL     1       3.421   3.233  17.017  0.00  0.00    +0.000 A 
ATOM     20  C   UNL     1       4.722   3.694  17.189  0.00  0.00    +0.000 A 
ATOM     21  N   UNL     1       5.260   3.723  18.428  0.00  0.00    +0.000 NA
ATOM     22  N   UNL     1       4.537   3.287  19.521  0.00  0.00    +0.000 NA
BRANCH  20  23
ATOM     23  C   UNL     1       5.597   4.109  16.075  0.00  0.00    +0.000 A 
ATOM     24  C   UNL     1       6.669   5.001  16.259  0.00  0.00    +0.000 A 
ATOM     25  C   UNL     1       7.457   5.427  15.182  0.00  0.00    +0.000 A 
ATOM     26  C   UNL     1       7.189   4.961  13.899  0.00  0.00    +0.000 A 
ATOM     27 CL   UNL     1       8.141   5.503  12.573  0.00  0.00    +0.000 Cl
ATOM     28  C   UNL     1       6.151   4.061  13.685  0.00  0.00    +0.000 A 
ATOM     29  C   UNL     1       5.366   3.636  14.766  0.00  0.00    +0.000 A 
ENDBRANCH  20  23
ENDBRANCH  16  17
ENDBRANCH   1  16
TORSDOF 5
ENDMDL
MODEL 2
REMARK VINA RESULT:      -7.9      0.803      1.242
REMARK  Name = 
REMARK  5 active torsions:
REMARK  status: ('A' for Active; 'I' for Inactive)
REMARK    1  A    between atoms: C_2  and  C_3
REMARK    2  A    between atoms: C_3  and  S_4
REMARK    3  A    between atoms: S_4  and  C_5
REMARK    4  A    between atoms: C_8  and  C_9
REMARK    5  A    between atoms: N_18  and  C_19
REMARK                            x       y       z     vdW  Elec       q    Type
REMARK                         _______ _______ _______ _____ _____    ______ ____
ROOT
ATOM      1  C   UNL     1       1.590   2.995  21.481  0.00  0.00    +0.000 C 
ENDROOT
BRANCH   1   3
ATOM      2  O   UNL     1       0.637   3.988  19.545  0.00  0.00    +0.000 OA
ATOM      3  C   UNL     1       1.453   4.112  20.458  0.00  0.00    +0.000 C 
ATOM      4  N   UNL     1       2.232   5.233  20.681  0.00  0.00    +0.000 N 
ATOM      5  H   UNL     1       2.986   5.125  21.350  0.00  0.00    +0.000 HD
BRANCH   4   6
ATOM      6  C   UNL     1       2.165   6.461  19.983  0.00  0.00    +0.000 A 
ATOM      7  C   UNL     1       2.705   6.633  18.705  0.00  0.00    +0.000 A 
ATOM      8  C   UNL     1       2.577   7.849  18.027  0.00  0.00    +0.000 A 
ATOM      9  C   UNL     1       1.910   8.909  18.626  0.00  0.00    +0.000 A 
ATOM     10  C   UNL     1       1.356   8.750  19.898  0.00  0.00    +0.000 A 
ATOM     11  C   UNL     1       1.487   7.535  20.579  0.00  0.00    +0.000 A 
ATOM     12  O   UNL     1       0.671   9.751  20.542  0.00  0.00    +0.000 OA
ATOM     13  C   UNL     1       0.263  10.772  19.625  0.00  0.00    +0.000 C 
ATOM     14  C   UNL     1       1.407  11.171  18.708  0.00  0.00    +0.000 C 
ATOM     15  O   UNL     1       1.822  10.067  17.897  0.00  0.00    +0.000 OA
ENDBRANCH   4   6
ENDBRANCH   1   3
BRANCH   1  16
ATOM     16  S   UNL     1       3.235   2.215  21.509  0.00  0.00    +0.000 S 
BRANCH  16  17
ATOM     17  C   UNL     1       3.860   2.790  19.941  0.00  0.00    +0.000 A 
ATOM     18  C   UNL     1       3.308   2.324  18.764  0.00  0.00    +0.000 A 
ATOM     19  C   UNL     1       3.848   2.746  17.548  0.00  0.00    +0.000 A 
ATOM     20  C   UNL     1       4.926   3.625  17.542  0.00  0.00    +0.000 A 
ATOM     21  N   UNL     1       5.426   4.074  18.713  0.00  0.00    +0.000 NA
ATOM     22  N   UNL     1       4.889   3.658  19.916  0.00  0.00    +0.000 NA
BRANCH  20  23
ATOM     23  C   UNL     1       5.613   4.068  16.312  0.00  0.00    +0.000 A 
ATOM     24  C   UNL     1       5.148   3.722  15.030  0.00  0.00    +0.000 A 
ATOM     25  C   UNL     1       5.841   4.105  13.875  0.00  0.00    +0.000 A 
ATOM     26  C   UNL     1       7.012   4.848  13.983  0.00  0.00    +0.000 A 
ATOM     27 CL   UNL     1       7.875   5.297  12.565  0.00  0.00    +0.000 Cl
ATOM     28  C   UNL     1       7.487   5.226  15.233  0.00  0.00    +0.000 A 
ATOM     29  C   UNL     1       6.790   4.842  16.387  0.00  0.00    +0.000 A 
ENDBRANCH  20  23
ENDBRANCH  16  17
ENDBRANCH   1  16
TORSDOF 5
ENDMDL
MODEL 3
REMARK VINA RESULT:      -7.8      4.470      5.650
REMARK  Name = 
REMARK  5 active torsions:
REMARK  status: ('A' for Active; 'I' for Inactive)
REMARK    1  A    between atoms: C_2  and  C_3
REMARK    2  A    between atoms: C_3  and  S_4
REMARK    3  A    between atoms: S_4  and  C_5
REMARK    4  A    between atoms: C_8  and  C_9
REMARK    5  A    between atoms: N_18  and  C_19
REMARK                            x       y       z     vdW  Elec       q    Type
REMARK                         _______ _______ _______ _____ _____    ______ ____
ROOT
ATOM      1  C   UNL     1       5.215   4.580  16.241  0.00  0.00    +0.000 C 
ENDROOT
BRANCH   1   3
ATOM      2  O   UNL     1       3.283   4.192  17.568  0.00  0.00    +0.000 OA
ATOM      3  C   UNL     1       4.045   5.037  17.098  0.00  0.00    +0.000 C 
ATOM      4  N   UNL     1       3.969   6.398  17.339  0.00  0.00    +0.000 N 
ATOM      5  H   UNL     1       4.539   6.988  16.743  0.00  0.00    +0.000 HD
BRANCH   4   6
ATOM      6  C   UNL     1       3.087   7.050  18.231  0.00  0.00    +0.000 A 
ATOM      7  C   UNL     1       2.778   6.538  19.496  0.00  0.00    +0.000 A 
ATOM      8  C   UNL     1       1.937   7.237  20.369  0.00  0.00    +0.000 A 
ATOM      9  C   UNL     1       1.393   8.453  19.982  0.00  0.00    +0.000 A 
ATOM     10  C   UNL     1       1.701   8.982  18.726  0.00  0.00    +0.000 A 
ATOM     11  C   UNL     1       2.538   8.283  17.850  0.00  0.00    +0.000 A 
ATOM     12  O   UNL     1       1.210  10.186  18.285  0.00  0.00    +0.000 OA
ATOM     13  C   UNL     1       0.715  10.974  19.374  0.00  0.00    +0.000 C 
ATOM     14  C   UNL     1      -0.164  10.142  20.293  0.00  0.00    +0.000 C 
ATOM     15  O   UNL     1       0.584   9.080  20.893  0.00  0.00    +0.000 OA
ENDBRANCH   4   6
ENDBRANCH   1   3
BRANCH   1  16
ATOM     16  S   UNL     1       6.690   4.105  17.196  0.00  0.00    +0.000 S 
BRANCH  16  17
ATOM     17  C   UNL     1       7.334   5.725  17.568  0.00  0.00    +0.000 A 
ATOM     18  C   UNL     1       7.870   5.986  18.815  0.00  0.00    +0.000 A 
ATOM     19  C   UNL     1       8.320   7.275  19.102  0.00  0.00    +0.000 A 
ATOM     20  C   UNL     1       8.223   8.270  18.135  0.00  0.00    +0.000 A 
ATOM     21  N   UNL     1       7.710   7.972  16.922  0.00  0.00    +0.000 NA
ATOM     22  N   UNL     1       7.269   6.695  16.637  0.00  0.00    +0.000 NA
BRANCH  20  23
ATOM     23  C   UNL     1       8.599   9.679  18.370  0.00  0.00    +0.000 A 
ATOM     24  C   UNL     1       8.218  10.710  17.493  0.00  0.00    +0.000 A 
ATOM     25  C   UNL     1       8.628  12.033  17.702  0.00  0.00    +0.000 A 
ATOM     26  C   UNL     1       9.423  12.349  18.799  0.00  0.00    +0.000 A 
ATOM     27 CL   UNL     1       9.945  13.969  19.041  0.00  0.00    +0.000 Cl
ATOM     28  C   UNL     1       9.798  11.357  19.698  0.00  0.00    +0.000 A 
ATOM     29  C   UNL     1       9.385  10.035  19.486  0.00  0.00    +0.000 A 
ENDBRANCH  20  23
ENDBRANCH  16  17
ENDBRANCH   1  16
TORSDOF 5
ENDMDL
MODEL 4
REMARK VINA RESULT:      -7.7      3.770      7.743
REMARK  Name = 
REMARK  5 active torsions:
REMARK  status: ('A' for Active; 'I' for Inactive)
REMARK    1  A    between atoms: C_2  and  C_3
REMARK    2  A    between atoms: C_3  and  S_4
REMARK    3  A    between atoms: S_4  and  C_5
REMARK    4  A    between atoms: C_8  and  C_9
REMARK    5  A    between atoms: N_18  and  C_19
REMARK                            x       y       z     vdW  Elec       q    Type
REMARK                         _______ _______ _______ _____ _____    ______ ____
ROOT
ATOM      1  C   UNL     1       3.820   2.265  19.603  0.00  0.00    +0.000 C 
ENDROOT
BRANCH   1   3
ATOM      2  O   UNL     1       5.568   3.867  19.457  0.00  0.00    +0.000 OA
ATOM      3  C   UNL     1       4.741   3.201  18.835  0.00  0.00    +0.000 C 
ATOM      4  N   UNL     1       4.614   3.176  17.457  0.00  0.00    +0.000 N 
ATOM      5  H   UNL     1       3.777   2.732  17.096  0.00  0.00    +0.000 HD
BRANCH   4   6
ATOM      6  C   UNL     1       5.457   3.816  16.520  0.00  0.00    +0.000 A 
ATOM      7  C   UNL     1       6.411   4.769  16.890  0.00  0.00    +0.000 A 
ATOM      8  C   UNL     1       7.259   5.345  15.938  0.00  0.00    +0.000 A 
ATOM      9  C   UNL     1       7.155   4.977  14.604  0.00  0.00    +0.000 A 
ATOM     10  C   UNL     1       6.213   4.019  14.220  0.00  0.00    +0.000 A 
ATOM     11  C   UNL     1       5.362   3.444  15.171  0.00  0.00    +0.000 A 
ATOM     12  O   UNL     1       6.066   3.597  12.922  0.00  0.00    +0.000 OA
ATOM     13  C   UNL     1       7.214   3.935  12.135  0.00  0.00    +0.000 C 
ATOM     14  C   UNL     1       7.632   5.377  12.371  0.00  0.00    +0.000 C 
ATOM     15  O   UNL     1       8.023   5.581  13.733  0.00  0.00    +0.000 OA
ENDBRANCH   4   6
ENDBRANCH   1   3
BRANCH   1  16
ATOM     16  S   UNL     1       2.051   2.532  19.271  0.00  0.00    +0.000 S 
BRANCH  16  17
ATOM     17  C   UNL     1       2.010   4.315  19.307  0.00  0.00    +0.000 A 
ATOM     18  C   UNL     1       1.839   4.978  20.506  0.00  0.00    +0.000 A 
ATOM     19  C   UNL     1       1.756   6.371  20.504  0.00  0.00    +0.000 A 
ATOM     20  C   UNL     1       1.849   7.065  19.302  0.00  0.00    +0.000 A 
ATOM     21  N   UNL     1       2.035   6.382  18.152  0.00  0.00    +0.000 NA
ATOM     22  N   UNL     1       2.120   5.003  18.155  0.00  0.00    +0.000 NA
BRANCH  20  23
ATOM     23  C   UNL     1       1.696   8.529  19.189  0.00  0.00    +0.000 A 
ATOM     24  C   UNL     1       1.035   9.290  20.170  0.00  0.00    +0.000 A 
ATOM     25  C   UNL     1       0.853  10.671  20.022  0.00  0.00    +0.000 A 
ATOM     26  C   UNL     1       1.336  11.317  18.889  0.00  0.00    +0.000 A 
ATOM     27 CL   UNL     1       1.090  13.008  18.697  0.00  0.00    +0.000 Cl
ATOM     28  C   UNL     1       2.014  10.598  17.911  0.00  0.00    +0.000 A 
ATOM     29  C   UNL     1       2.196   9.217  18.064  0.00  0.00    +0.000 A 
ENDBRANCH  20  23
ENDBRANCH  16  17
ENDBRANCH   1  16
TORSDOF 5
ENDMDL
MODEL 5
REMARK VINA RESULT:      -7.6      0.731      1.281
REMARK  Name = 
REMARK  5 active torsions:
REMARK  status: ('A' for Active; 'I' for Inactive)
REMARK    1  A    between atoms: C_2  and  C_3
REMARK    2  A    between atoms: C_3  and  S_4
REMARK    3  A    between atoms: S_4  and  C_5
REMARK    4  A    between atoms: C_8  and  C_9
REMARK    5  A    between atoms: N_18  and  C_19
REMARK                            x       y       z     vdW  Elec       q    Type
REMARK                         _______ _______ _______ _____ _____    ______ ____
ROOT
ATOM      1  C   UNL     1       2.069   3.797  21.722  0.00  0.00    +0.000 C 
ENDROOT
BRANCH   1   3
ATOM      2  O   UNL     1       0.604   4.713  20.092  0.00  0.00    +0.000 OA
ATOM      3  C   UNL     1       1.594   4.906  20.797  0.00  0.00    +0.000 C 
ATOM      4  N   UNL     1       2.295   6.097  20.874  0.00  0.00    +0.000 N 
ATOM      5  H   UNL     1       3.191   6.056  21.347  0.00  0.00    +0.000 HD
BRANCH   4   6
ATOM      6  C   UNL     1       1.954   7.319  20.251  0.00  0.00    +0.000 A 
ATOM      7  C   UNL     1       2.287   7.611  18.924  0.00  0.00    +0.000 A 
ATOM      8  C   UNL     1       1.890   8.813  18.330  0.00  0.00    +0.000 A 
ATOM      9  C   UNL     1       1.159   9.739  19.060  0.00  0.00    +0.000 A 
ATOM     10  C   UNL     1       0.809   9.458  20.383  0.00  0.00    +0.000 A 
ATOM     11  C   UNL     1       1.209   8.258  20.981  0.00  0.00    +0.000 A 
ATOM     12  O   UNL     1       0.075  10.321  21.158  0.00  0.00    +0.000 OA
ATOM     13  C   UNL     1      -0.600  11.295  20.353  0.00  0.00    +0.000 C 
ATOM     14  C   UNL     1       0.339  11.892  19.318  0.00  0.00    +0.000 C 
ATOM     15  O   UNL     1       0.802  10.890  18.407  0.00  0.00    +0.000 OA
ENDBRANCH   4   6
ENDBRANCH   1   3
BRANCH   1  16
ATOM     16  S   UNL     1       2.288   2.189  20.898  0.00  0.00    +0.000 S 
BRANCH  16  17
ATOM     17  C   UNL     1       3.339   2.691  19.548  0.00  0.00    +0.000 A 
ATOM     18  C   UNL     1       4.480   3.429  19.798  0.00  0.00    +0.000 A 
ATOM     19  C   UNL     1       5.259   3.856  18.722  0.00  0.00    +0.000 A 
ATOM     20  C   UNL     1       4.877   3.534  17.424  0.00  0.00    +0.000 A 
ATOM     21  N   UNL     1       3.765   2.796  17.220  0.00  0.00    +0.000 NA
ATOM     22  N   UNL     1       2.996   2.370  18.286  0.00  0.00    +0.000 NA
BRANCH  20  23
ATOM     23  C   UNL     1       5.591   4.005  16.220  0.00  0.00    +0.000 A 
ATOM     24  C   UNL     1       5.136   3.719  14.921  0.00  0.00    +0.000 A 
ATOM     25  C   UNL     1       5.854   4.128  13.790  0.00  0.00    +0.000 A 
ATOM     26  C   UNL     1       7.040   4.839  13.940  0.00  0.00    +0.000 A 
ATOM     27 CL   UNL     1       7.933   5.319  12.551  0.00  0.00    +0.000 Cl
ATOM     28  C   UNL     1       7.506   5.158  15.210  0.00  0.00    +0.000 A 
ATOM     29  C   UNL     1       6.785   4.748  16.339  0.00  0.00    +0.000 A 
ENDBRANCH  20  23
ENDBRANCH  16  17
ENDBRANCH   1  16
TORSDOF 5
ENDMDL
MODEL 6
REMARK VINA RESULT:      -7.6      5.629     10.867
REMARK  Name = 
REMARK  5 active torsions:
REMARK  status: ('A' for Active; 'I' for Inactive)
REMARK    1  A    between atoms: C_2  and  C_3
REMARK    2  A    between atoms: C_3  and  S_4
REMARK    3  A    between atoms: S_4  and  C_5
REMARK    4  A    between atoms: C_8  and  C_9
REMARK    5  A    between atoms: N_18  and  C_19
REMARK                            x       y       z     vdW  Elec       q    Type
REMARK                         _______ _______ _______ _____ _____    ______ ____
ROOT
ATOM      1  C   UNL     1       1.351   9.451  19.328  0.00  0.00    +0.000 C 
ENDROOT
BRANCH   1   3
ATOM      2  O   UNL     1       2.160   8.929  17.156  0.00  0.00    +0.000 OA
ATOM      3  C   UNL     1       1.994   8.525  18.307  0.00  0.00    +0.000 C 
ATOM      4  N   UNL     1       2.409   7.295  18.785  0.00  0.00    +0.000 N 
ATOM      5  H   UNL     1       2.043   7.023  19.692  0.00  0.00    +0.000 HD
BRANCH   4   6
ATOM      6  C   UNL     1       3.176   6.333  18.089  0.00  0.00    +0.000 A 
ATOM      7  C   UNL     1       2.768   5.004  17.941  0.00  0.00    +0.000 A 
ATOM      8  C   UNL     1       3.533   4.094  17.204  0.00  0.00    +0.000 A 
ATOM      9  C   UNL     1       4.719   4.505  16.612  0.00  0.00    +0.000 A 
ATOM     10  C   UNL     1       5.135   5.832  16.742  0.00  0.00    +0.000 A 
ATOM     11  C   UNL     1       4.373   6.743  17.482  0.00  0.00    +0.000 A 
ATOM     12  O   UNL     1       6.288   6.310  16.171  0.00  0.00    +0.000 OA
ATOM     13  C   UNL     1       6.758   5.432  15.141  0.00  0.00    +0.000 C 
ATOM     14  C   UNL     1       6.743   3.986  15.608  0.00  0.00    +0.000 C 
ATOM     15  O   UNL     1       5.409   3.558  15.903  0.00  0.00    +0.000 OA
ENDBRANCH   4   6
ENDBRANCH   1   3
BRANCH   1  16
ATOM     16  S   UNL     1       1.346   8.792  21.025  0.00  0.00    +0.000 S 
BRANCH  16  17
ATOM     17  C   UNL     1       0.391  10.064  21.831  0.00  0.00    +0.000 A 
ATOM     18  C   UNL     1      -0.600   9.718  22.730  0.00  0.00    +0.000 A 
ATOM     19  C   UNL     1      -1.371  10.727  23.309  0.00  0.00    +0.000 A 
ATOM     20  C   UNL     1      -1.130  12.055  22.975  0.00  0.00    +0.000 A 
ATOM     21  N   UNL     1      -0.140  12.355  22.107  0.00  0.00    +0.000 NA
ATOM     22  N   UNL     1       0.625  11.356  21.537  0.00  0.00    +0.000 NA
BRANCH  20  23
ATOM     23  C   UNL     1      -1.941  13.184  23.475  0.00  0.00    +0.000 A 
ATOM     24  C   UNL     1      -3.329  13.077  23.672  0.00  0.00    +0.000 A 
ATOM     25  C   UNL     1      -4.092  14.173  24.096  0.00  0.00    +0.000 A 
ATOM     26  C   UNL     1      -3.476  15.396  24.336  0.00  0.00    +0.000 A 
ATOM     27 CL   UNL     1      -4.417  16.747  24.833  0.00  0.00    +0.000 Cl
ATOM     28  C   UNL     1      -2.102  15.530  24.172  0.00  0.00    +0.000 A 
ATOM     29  C   UNL     1      -1.342  14.431  23.750  0.00  0.00    +0.000 A 
ENDBRANCH  20  23
ENDBRANCH  16  17
ENDBRANCH   1  16
TORSDOF 5
ENDMDL
MODEL 7
REMARK VINA RESULT:      -7.4      4.701      7.111
REMARK  Name = 
REMARK  5 active torsions:
REMARK  status: ('A' for Active; 'I' for Inactive)
REMARK    1  A    between atoms: C_2  and  C_3
REMARK    2  A    between atoms: C_3  and  S_4
REMARK    3  A    between atoms: S_4  and  C_5
REMARK    4  A    between atoms: C_8  and  C_9
REMARK    5  A    between atoms: N_18  and  C_19
REMARK                            x       y       z     vdW  Elec       q    Type
REMARK                         _______ _______ _______ _____ _____    ______ ____
ROOT
ATOM      1  C   UNL     1       0.733  11.614  21.070  0.00  0.00    +0.000 C 
ENDROOT
BRANCH   1   3
ATOM      2  O   UNL     1      -0.857  10.316  22.266  0.00  0.00    +0.000 OA
ATOM      3  C   UNL     1      -0.632  11.387  21.702  0.00  0.00    +0.000 C 
ATOM      4  N   UNL     1      -1.508  12.456  21.646  0.00  0.00    +0.000 N 
ATOM      5  H   UNL     1      -1.267  13.196  20.996  0.00  0.00    +0.000 HD
BRANCH   4   6
ATOM      6  C   UNL     1      -2.758  12.558  22.299  0.00  0.00    +0.000 A 
ATOM      7  C   UNL     1      -2.881  12.612  23.692  0.00  0.00    +0.000 A 
ATOM      8  C   UNL     1      -4.132  12.760  24.298  0.00  0.00    +0.000 A 
ATOM      9  C   UNL     1      -5.275  12.852  23.517  0.00  0.00    +0.000 A 
ATOM     10  C   UNL     1      -5.168  12.810  22.124  0.00  0.00    +0.000 A 
ATOM     11  C   UNL     1      -3.917  12.658  21.516  0.00  0.00    +0.000 A 
ATOM     12  O   UNL     1      -6.254  12.910  21.291  0.00  0.00    +0.000 OA
ATOM     13  C   UNL     1      -7.388  13.450  21.980  0.00  0.00    +0.000 C 
ATOM     14  C   UNL     1      -7.584  12.770  23.325  0.00  0.00    +0.000 C 
ATOM     15  O   UNL     1      -6.462  13.001  24.184  0.00  0.00    +0.000 OA
ENDBRANCH   4   6
ENDBRANCH   1   3
BRANCH   1  16
ATOM     16  S   UNL     1       0.738  11.481  19.254  0.00  0.00    +0.000 S 
BRANCH  16  17
ATOM     17  C   UNL     1       1.374   9.824  19.083  0.00  0.00    +0.000 A 
ATOM     18  C   UNL     1       1.950   9.424  17.893  0.00  0.00    +0.000 A 
ATOM     19  C   UNL     1       2.393   8.107  17.763  0.00  0.00    +0.000 A 
ATOM     20  C   UNL     1       2.248   7.224  18.827  0.00  0.00    +0.000 A 
ATOM     21  N   UNL     1       1.696   7.656  19.982  0.00  0.00    +0.000 NA
ATOM     22  N   UNL     1       1.262   8.961  20.111  0.00  0.00    +0.000 NA
BRANCH  20  23
ATOM     23  C   UNL     1       2.613   5.795  18.759  0.00  0.00    +0.000 A 
ATOM     24  C   UNL     1       3.695   5.265  19.486  0.00  0.00    +0.000 A 
ATOM     25  C   UNL     1       4.061   3.917  19.370  0.00  0.00    +0.000 A 
ATOM     26  C   UNL     1       3.345   3.074  18.527  0.00  0.00    +0.000 A 
ATOM     27 CL   UNL     1       3.811   1.426  18.367  0.00  0.00    +0.000 Cl
ATOM     28  C   UNL     1       2.257   3.561  17.812  0.00  0.00    +0.000 A 
ATOM     29  C   UNL     1       1.893   4.909  17.932  0.00  0.00    +0.000 A 
ENDBRANCH  20  23
ENDBRANCH  16  17
ENDBRANCH   1  16
TORSDOF 5
ENDMDL
MODEL 8
REMARK VINA RESULT:      -7.4      3.708      7.350
REMARK  Name = 
REMARK  5 active torsions:
REMARK  status: ('A' for Active; 'I' for Inactive)
REMARK    1  A    between atoms: C_2  and  C_3
REMARK    2  A    between atoms: C_3  and  S_4
REMARK    3  A    between atoms: S_4  and  C_5
REMARK    4  A    between atoms: C_8  and  C_9
REMARK    5  A    between atoms: N_18  and  C_19
REMARK                            x       y       z     vdW  Elec       q    Type
REMARK                         _______ _______ _______ _____ _____    ______ ____
ROOT
ATOM      1  C   UNL     1       3.196   2.489  20.791  0.00  0.00    +0.000 C 
ENDROOT
BRANCH   1   3
ATOM      2  O   UNL     1       5.212   1.794  19.744  0.00  0.00    +0.000 OA
ATOM      3  C   UNL     1       4.372   2.688  19.848  0.00  0.00    +0.000 C 
ATOM      4  N   UNL     1       4.367   3.863  19.116  0.00  0.00    +0.000 N 
ATOM      5  H   UNL     1       3.729   4.583  19.435  0.00  0.00    +0.000 HD
BRANCH   4   6
ATOM      6  C   UNL     1       5.245   4.204  18.061  0.00  0.00    +0.000 A 
ATOM      7  C   UNL     1       6.523   4.727  18.281  0.00  0.00    +0.000 A 
ATOM      8  C   UNL     1       7.379   5.009  17.212  0.00  0.00    +0.000 A 
ATOM      9  C   UNL     1       6.962   4.774  15.910  0.00  0.00    +0.000 A 
ATOM     10  C   UNL     1       5.692   4.242  15.674  0.00  0.00    +0.000 A 
ATOM     11  C   UNL     1       4.832   3.964  16.742  0.00  0.00    +0.000 A 
ATOM     12  O   UNL     1       5.220   3.972  14.413  0.00  0.00    +0.000 OA
ATOM     13  C   UNL     1       6.290   3.915  13.461  0.00  0.00    +0.000 C 
ATOM     14  C   UNL     1       7.233   5.094  13.630  0.00  0.00    +0.000 C 
ATOM     15  O   UNL     1       7.859   5.070  14.917  0.00  0.00    +0.000 OA
ENDBRANCH   4   6
ENDBRANCH   1   3
BRANCH   1  16
ATOM     16  S   UNL     1       1.573   2.780  20.020  0.00  0.00    +0.000 S 
BRANCH  16  17
ATOM     17  C   UNL     1       1.653   4.550  19.823  0.00  0.00    +0.000 A 
ATOM     18  C   UNL     1       1.591   5.372  20.932  0.00  0.00    +0.000 A 
ATOM     19  C   UNL     1       1.601   6.756  20.750  0.00  0.00    +0.000 A 
ATOM     20  C   UNL     1       1.675   7.282  19.464  0.00  0.00    +0.000 A 
ATOM     21  N   UNL     1       1.753   6.446  18.406  0.00  0.00    +0.000 NA
ATOM     22  N   UNL     1       1.746   5.076  18.587  0.00  0.00    +0.000 NA
BRANCH  20  23
ATOM     23  C   UNL     1       1.615   8.726  19.167  0.00  0.00    +0.000 A 
ATOM     24  C   UNL     1       2.197   9.276  18.011  0.00  0.00    +0.000 A 
ATOM     25  C   UNL     1       2.177  10.656  17.769  0.00  0.00    +0.000 A 
ATOM     26  C   UNL     1       1.566  11.511  18.681  0.00  0.00    +0.000 A 
ATOM     27 CL   UNL     1       1.563  13.207  18.395  0.00  0.00    +0.000 Cl
ATOM     28  C   UNL     1       0.960  10.998  19.822  0.00  0.00    +0.000 A 
ATOM     29  C   UNL     1       0.982   9.617  20.059  0.00  0.00    +0.000 A 
ENDBRANCH  20  23
ENDBRANCH  16  17
ENDBRANCH   1  16
TORSDOF 5
ENDMDL
MODEL 9
REMARK VINA RESULT:      -7.3      3.939      8.239
REMARK  Name = 
REMARK  5 active torsions:
REMARK  status: ('A' for Active; 'I' for Inactive)
REMARK    1  A    between atoms: C_2  and  C_3
REMARK    2  A    between atoms: C_3  and  S_4
REMARK    3  A    between atoms: S_4  and  C_5
REMARK    4  A    between atoms: C_8  and  C_9
REMARK    5  A    between atoms: N_18  and  C_19
REMARK                            x       y       z     vdW  Elec       q    Type
REMARK                         _______ _______ _______ _____ _____    ______ ____
ROOT
ATOM      1  C   UNL     1       2.617   2.379  18.689  0.00  0.00    +0.000 C 
ENDROOT
BRANCH   1   3
ATOM      2  O   UNL     1       2.543   3.344  16.519  0.00  0.00    +0.000 OA
ATOM      3  C   UNL     1       3.263   2.958  17.440  0.00  0.00    +0.000 C 
ATOM      4  N   UNL     1       4.642   3.066  17.469  0.00  0.00    +0.000 N 
ATOM      5  H   UNL     1       5.114   2.543  18.198  0.00  0.00    +0.000 HD
BRANCH   4   6
ATOM      6  C   UNL     1       5.459   3.719  16.517  0.00  0.00    +0.000 A 
ATOM      7  C   UNL     1       6.396   4.696  16.868  0.00  0.00    +0.000 A 
ATOM      8  C   UNL     1       7.218   5.284  15.902  0.00  0.00    +0.000 A 
ATOM      9  C   UNL     1       7.106   4.904  14.572  0.00  0.00    +0.000 A 
ATOM     10  C   UNL     1       6.182   3.922  14.207  0.00  0.00    +0.000 A 
ATOM     11  C   UNL     1       5.356   3.335  15.171  0.00  0.00    +0.000 A 
ATOM     12  O   UNL     1       6.029   3.488  12.913  0.00  0.00    +0.000 OA
ATOM     13  C   UNL     1       7.159   3.846  12.109  0.00  0.00    +0.000 C 
ATOM     14  C   UNL     1       7.546   5.299  12.330  0.00  0.00    +0.000 C 
ATOM     15  O   UNL     1       7.949   5.522  13.685  0.00  0.00    +0.000 OA
ENDBRANCH   4   6
ENDBRANCH   1   3
BRANCH   1  16
ATOM     16  S   UNL     1       3.338   2.987  20.245  0.00  0.00    +0.000 S 
BRANCH  16  17
ATOM     17  C   UNL     1       2.703   4.654  20.232  0.00  0.00    +0.000 A 
ATOM     18  C   UNL     1       3.311   5.619  19.452  0.00  0.00    +0.000 A 
ATOM     19  C   UNL     1       2.830   6.928  19.498  0.00  0.00    +0.000 A 
ATOM     20  C   UNL     1       1.754   7.239  20.323  0.00  0.00    +0.000 A 
ATOM     21  N   UNL     1       1.175   6.264  21.057  0.00  0.00    +0.000 NA
ATOM     22  N   UNL     1       1.649   4.967  21.008  0.00  0.00    +0.000 NA
BRANCH  20  23
ATOM     23  C   UNL     1       1.225   8.606  20.498  0.00  0.00    +0.000 A 
ATOM     24  C   UNL     1       0.850   9.106  21.757  0.00  0.00    +0.000 A 
ATOM     25  C   UNL     1       0.301  10.387  21.899  0.00  0.00    +0.000 A 
ATOM     26  C   UNL     1       0.123  11.194  20.780  0.00  0.00    +0.000 A 
ATOM     27 CL   UNL     1      -0.574  12.757  20.952  0.00  0.00    +0.000 Cl
ATOM     28  C   UNL     1       0.504  10.738  19.523  0.00  0.00    +0.000 A 
ATOM     29  C   UNL     1       1.055   9.457  19.386  0.00  0.00    +0.000 A 
ENDBRANCH  20  23
ENDBRANCH  16  17
ENDBRANCH   1  16
TORSDOF 5
ENDMDL
