MODEL 1
REMARK VINA RESULT:      -7.5      0.000      0.000
REMARK  Name = 
REMARK  4 active torsions:
REMARK  status: ('A' for Active; 'I' for Inactive)
REMARK    1  A    between atoms: C_1  and  C_2
REMARK    2  A    between atoms: C_6  and  N_7
REMARK    3  A    between atoms: C_8  and  O_9
REMARK    4  A    between atoms: C_10  and  C_11
REMARK                            x       y       z     vdW  Elec       q    Type
REMARK                         _______ _______ _______ _____ _____    ______ ____
ROOT
ATOM      1  N   UNL     1       4.046   5.189  18.279  0.00  0.00    +0.000 N 
ATOM      2  C   UNL     1       5.345   4.635  18.256  0.00  0.00    +0.000 A 
ATOM      3  C   UNL     1       6.439   5.305  17.862  0.00  0.00    +0.000 A 
ATOM      4  C   UNL     1       7.835   4.764  17.845  0.00  0.00    +0.000 C 
ATOM      5  C   UNL     1       6.280   6.676  17.355  0.00  0.00    +0.000 A 
ATOM      6  O   UNL     1       7.225   7.349  16.962  0.00  0.00    +0.000 OA
ATOM      7  N   UNL     1       5.008   7.155  17.358  0.00  0.00    +0.000 N 
ATOM      8  C   UNL     1       3.888   6.544  17.872  0.00  0.00    +0.000 A 
ATOM      9  S   UNL     1       2.552   7.563  17.982  0.00  0.00    +0.000 S 
ATOM     10  H   UNL     1       4.910   8.114  17.058  0.00  0.00    +0.000 HD
ENDROOT
BRANCH   1  16
ATOM     11  C   UNL     1       1.686   2.889  22.059  0.00  0.00    +0.000 C 
ATOM     12  C   UNL     1       1.714   3.315  20.619  0.00  0.00    +0.000 A 
ATOM     13  C   UNL     1       0.728   2.886  19.731  0.00  0.00    +0.000 A 
ATOM     14  C   UNL     1       0.822   3.208  18.381  0.00  0.00    +0.000 A 
ATOM     15  C   UNL     1       1.915   3.940  17.910  0.00  0.00    +0.000 A 
ATOM     16  C   UNL     1       2.902   4.434  18.778  0.00  0.00    +0.000 A 
ATOM     17  C   UNL     1       2.770   4.115  20.144  0.00  0.00    +0.000 A 
ENDBRANCH   1  16
BRANCH   2  18
ATOM     18  O   UNL     1       5.506   3.303  18.591  0.00  0.00    +0.000 OA
ATOM     19  H   UNL     1       6.445   3.089  18.459  0.00  0.00    +0.000 HD
ENDBRANCH   2  18
TORSDOF 2
ENDMDL
MODEL 2
REMARK VINA RESULT:      -7.3      0.856      1.558
REMARK  Name = 
REMARK  4 active torsions:
REMARK  status: ('A' for Active; 'I' for Inactive)
REMARK    1  A    between atoms: C_1  and  C_2
REMARK    2  A    between atoms: C_6  and  N_7
REMARK    3  A    between atoms: C_8  and  O_9
REMARK    4  A    between atoms: C_10  and  C_11
REMARK                            x       y       z     vdW  Elec       q    Type
REMARK                         _______ _______ _______ _____ _____    ______ ____
ROOT
ATOM      1  N   UNL     1       4.374   5.333  18.388  0.00  0.00    +0.000 N 
ATOM      2  C   UNL     1       5.624   4.674  18.417  0.00  0.00    +0.000 A 
ATOM      3  C   UNL     1       6.731   5.140  17.820  0.00  0.00    +0.000 A 
ATOM      4  C   UNL     1       8.079   4.488  17.846  0.00  0.00    +0.000 C 
ATOM      5  C   UNL     1       6.636   6.374  17.026  0.00  0.00    +0.000 A 
ATOM      6  O   UNL     1       7.596   6.859  16.439  0.00  0.00    +0.000 OA
ATOM      7  N   UNL     1       5.407   6.953  16.993  0.00  0.00    +0.000 N 
ATOM      8  C   UNL     1       4.287   6.573  17.694  0.00  0.00    +0.000 A 
ATOM      9  S   UNL     1       3.042   7.705  17.647  0.00  0.00    +0.000 S 
ATOM     10  H   UNL     1       5.358   7.828  16.490  0.00  0.00    +0.000 HD
ENDROOT
BRANCH   1  16
ATOM     11  C   UNL     1       0.519   2.138  18.657  0.00  0.00    +0.000 C 
ATOM     12  C   UNL     1       1.330   3.241  19.273  0.00  0.00    +0.000 A 
ATOM     13  C   UNL     1       0.916   3.855  20.455  0.00  0.00    +0.000 A 
ATOM     14  C   UNL     1       1.625   4.940  20.960  0.00  0.00    +0.000 A 
ATOM     15  C   UNL     1       2.738   5.430  20.272  0.00  0.00    +0.000 A 
ATOM     16  C   UNL     1       3.218   4.811  19.107  0.00  0.00    +0.000 A 
ATOM     17  C   UNL     1       2.496   3.698  18.630  0.00  0.00    +0.000 A 
ENDBRANCH   1  16
BRANCH   2  18
ATOM     18  O   UNL     1       5.710   3.440  19.034  0.00  0.00    +0.000 OA
ATOM     19  H   UNL     1       4.907   3.335  19.572  0.00  0.00    +0.000 HD
ENDBRANCH   2  18
TORSDOF 2
ENDMDL
MODEL 3
REMARK VINA RESULT:      -7.0      2.310      5.424
REMARK  Name = 
REMARK  4 active torsions:
REMARK  status: ('A' for Active; 'I' for Inactive)
REMARK    1  A    between atoms: C_1  and  C_2
REMARK    2  A    between atoms: C_6  and  N_7
REMARK    3  A    between atoms: C_8  and  O_9
REMARK    4  A    between atoms: C_10  and  C_11
REMARK                            x       y       z     vdW  Elec       q    Type
REMARK                         _______ _______ _______ _____ _____    ______ ____
ROOT
ATOM      1  N   UNL     1       3.935   4.555  18.128  0.00  0.00    +0.000 N 
ATOM      2  C   UNL     1       3.428   3.348  18.658  0.00  0.00    +0.000 A 
ATOM      3  C   UNL     1       2.346   3.272  19.449  0.00  0.00    +0.000 A 
ATOM      4  C   UNL     1       1.762   2.013  20.012  0.00  0.00    +0.000 C 
ATOM      5  C   UNL     1       1.681   4.519  19.852  0.00  0.00    +0.000 A 
ATOM      6  O   UNL     1       0.697   4.538  20.583  0.00  0.00    +0.000 OA
ATOM      7  N   UNL     1       2.225   5.659  19.351  0.00  0.00    +0.000 N 
ATOM      8  C   UNL     1       3.250   5.763  18.440  0.00  0.00    +0.000 A 
ATOM      9  S   UNL     1       3.445   7.314  17.815  0.00  0.00    +0.000 S 
ATOM     10  H   UNL     1       1.734   6.510  19.588  0.00  0.00    +0.000 HD
ENDROOT
BRANCH   1  16
ATOM     11  C   UNL     1       5.833   3.890  13.535  0.00  0.00    +0.000 C 
ATOM     12  C   UNL     1       6.031   4.270  14.974  0.00  0.00    +0.000 A 
ATOM     13  C   UNL     1       7.310   4.508  15.477  0.00  0.00    +0.000 A 
ATOM     14  C   UNL     1       7.486   4.763  16.833  0.00  0.00    +0.000 A 
ATOM     15  C   UNL     1       6.386   4.756  17.696  0.00  0.00    +0.000 A 
ATOM     16  C   UNL     1       5.078   4.571  17.222  0.00  0.00    +0.000 A 
ATOM     17  C   UNL     1       4.924   4.340  15.840  0.00  0.00    +0.000 A 
ENDBRANCH   1  16
BRANCH   2  18
ATOM     18  O   UNL     1       4.116   2.174  18.415  0.00  0.00    +0.000 OA
ATOM     19  H   UNL     1       3.970   1.595  19.182  0.00  0.00    +0.000 HD
ENDBRANCH   2  18
TORSDOF 2
ENDMDL
MODEL 4
REMARK VINA RESULT:      -6.9      2.556      3.000
REMARK  Name = 
REMARK  4 active torsions:
REMARK  status: ('A' for Active; 'I' for Inactive)
REMARK    1  A    between atoms: C_1  and  C_2
REMARK    2  A    between atoms: C_6  and  N_7
REMARK    3  A    between atoms: C_8  and  O_9
REMARK    4  A    between atoms: C_10  and  C_11
REMARK                            x       y       z     vdW  Elec       q    Type
REMARK                         _______ _______ _______ _____ _____    ______ ____
ROOT
ATOM      1  N   UNL     1       5.277   4.516  17.628  0.00  0.00    +0.000 N 
ATOM      2  C   UNL     1       5.008   4.139  16.293  0.00  0.00    +0.000 A 
ATOM      3  C   UNL     1       5.844   4.362  15.268  0.00  0.00    +0.000 A 
ATOM      4  C   UNL     1       5.609   3.958  13.845  0.00  0.00    +0.000 C 
ATOM      5  C   UNL     1       7.088   5.103  15.523  0.00  0.00    +0.000 A 
ATOM      6  O   UNL     1       7.898   5.361  14.640  0.00  0.00    +0.000 OA
ATOM      7  N   UNL     1       7.288   5.481  16.813  0.00  0.00    +0.000 N 
ATOM      8  C   UNL     1       6.516   5.160  17.905  0.00  0.00    +0.000 A 
ATOM      9  S   UNL     1       7.239   5.536  19.379  0.00  0.00    +0.000 S 
ATOM     10  H   UNL     1       8.167   5.944  16.994  0.00  0.00    +0.000 HD
ENDROOT
BRANCH   1  16
ATOM     11  C   UNL     1       1.626   5.904  20.773  0.00  0.00    +0.000 C 
ATOM     12  C   UNL     1       2.554   4.843  20.255  0.00  0.00    +0.000 A 
ATOM     13  C   UNL     1       2.636   3.601  20.885  0.00  0.00    +0.000 A 
ATOM     14  C   UNL     1       3.570   2.664  20.454  0.00  0.00    +0.000 A 
ATOM     15  C   UNL     1       4.441   2.975  19.406  0.00  0.00    +0.000 A 
ATOM     16  C   UNL     1       4.358   4.193  18.713  0.00  0.00    +0.000 A 
ATOM     17  C   UNL     1       3.387   5.115  19.154  0.00  0.00    +0.000 A 
ENDBRANCH   1  16
BRANCH   2  18
ATOM     18  O   UNL     1       3.784   3.569  15.998  0.00  0.00    +0.000 OA
ATOM     19  H   UNL     1       3.211   4.281  15.667  0.00  0.00    +0.000 HD
ENDBRANCH   2  18
TORSDOF 2
ENDMDL
MODEL 5
REMARK VINA RESULT:      -6.7      2.964      5.743
REMARK  Name = 
REMARK  4 active torsions:
REMARK  status: ('A' for Active; 'I' for Inactive)
REMARK    1  A    between atoms: C_1  and  C_2
REMARK    2  A    between atoms: C_6  and  N_7
REMARK    3  A    between atoms: C_8  and  O_9
REMARK    4  A    between atoms: C_10  and  C_11
REMARK                            x       y       z     vdW  Elec       q    Type
REMARK                         _______ _______ _______ _____ _____    ______ ____
ROOT
ATOM      1  N   UNL     1       3.832   4.503  18.124  0.00  0.00    +0.000 N 
ATOM      2  C   UNL     1       3.343   5.697  18.699  0.00  0.00    +0.000 A 
ATOM      3  C   UNL     1       2.326   5.746  19.573  0.00  0.00    +0.000 A 
ATOM      4  C   UNL     1       1.793   6.985  20.224  0.00  0.00    +0.000 C 
ATOM      5  C   UNL     1       1.624   4.498  19.908  0.00  0.00    +0.000 A 
ATOM      6  O   UNL     1       0.678   4.459  20.685  0.00  0.00    +0.000 OA
ATOM      7  N   UNL     1       2.102   3.380  19.302  0.00  0.00    +0.000 N 
ATOM      8  C   UNL     1       3.217   3.276  18.504  0.00  0.00    +0.000 A 
ATOM      9  S   UNL     1       3.679   1.687  18.190  0.00  0.00    +0.000 S 
ATOM     10  H   UNL     1       1.651   2.518  19.573  0.00  0.00    +0.000 HD
ENDROOT
BRANCH   1  16
ATOM     11  C   UNL     1       5.732   3.938  13.518  0.00  0.00    +0.000 C 
ATOM     12  C   UNL     1       5.937   4.248  14.973  0.00  0.00    +0.000 A 
ATOM     13  C   UNL     1       7.221   4.405  15.493  0.00  0.00    +0.000 A 
ATOM     14  C   UNL     1       7.399   4.594  16.860  0.00  0.00    +0.000 A 
ATOM     15  C   UNL     1       6.293   4.604  17.715  0.00  0.00    +0.000 A 
ATOM     16  C   UNL     1       4.981   4.502  17.226  0.00  0.00    +0.000 A 
ATOM     17  C   UNL     1       4.827   4.335  15.835  0.00  0.00    +0.000 A 
ENDBRANCH   1  16
BRANCH   2  18
ATOM     18  O   UNL     1       3.888   6.901  18.294  0.00  0.00    +0.000 OA
ATOM     19  H   UNL     1       3.857   7.498  19.061  0.00  0.00    +0.000 HD
ENDBRANCH   2  18
TORSDOF 2
ENDMDL
MODEL 6
REMARK VINA RESULT:      -6.5      2.507      2.890
REMARK  Name = 
REMARK  4 active torsions:
REMARK  status: ('A' for Active; 'I' for Inactive)
REMARK    1  A    between atoms: C_1  and  C_2
REMARK    2  A    between atoms: C_6  and  N_7
REMARK    3  A    between atoms: C_8  and  O_9
REMARK    4  A    between atoms: C_10  and  C_11
REMARK                            x       y       z     vdW  Elec       q    Type
REMARK                         _______ _______ _______ _____ _____    ______ ____
ROOT
ATOM      1  N   UNL     1       5.182   4.965  17.667  0.00  0.00    +0.000 N 
ATOM      2  C   UNL     1       4.863   4.504  16.370  0.00  0.00    +0.000 A 
ATOM      3  C   UNL     1       5.731   4.485  15.347  0.00  0.00    +0.000 A 
ATOM      4  C   UNL     1       5.442   3.983  13.966  0.00  0.00    +0.000 C 
ATOM      5  C   UNL     1       7.077   5.039  15.555  0.00  0.00    +0.000 A 
ATOM      6  O   UNL     1       7.922   5.073  14.669  0.00  0.00    +0.000 OA
ATOM      7  N   UNL     1       7.327   5.508  16.806  0.00  0.00    +0.000 N 
ATOM      8  C   UNL     1       6.507   5.426  17.907  0.00  0.00    +0.000 A 
ATOM      9  S   UNL     1       7.273   5.828  19.352  0.00  0.00    +0.000 S 
ATOM     10  H   UNL     1       8.269   5.840  16.960  0.00  0.00    +0.000 HD
ENDROOT
BRANCH   1  16
ATOM     11  C   UNL     1       2.851   2.342  21.249  0.00  0.00    +0.000 C 
ATOM     12  C   UNL     1       3.072   3.645  20.536  0.00  0.00    +0.000 A 
ATOM     13  C   UNL     1       2.275   4.754  20.817  0.00  0.00    +0.000 A 
ATOM     14  C   UNL     1       2.427   5.924  20.080  0.00  0.00    +0.000 A 
ATOM     15  C   UNL     1       3.361   5.980  19.041  0.00  0.00    +0.000 A 
ATOM     16  C   UNL     1       4.217   4.905  18.758  0.00  0.00    +0.000 A 
ATOM     17  C   UNL     1       4.059   3.740  19.537  0.00  0.00    +0.000 A 
ENDBRANCH   1  16
BRANCH   2  18
ATOM     18  O   UNL     1       3.565   4.110  16.106  0.00  0.00    +0.000 OA
ATOM     19  H   UNL     1       3.610   3.427  15.416  0.00  0.00    +0.000 HD
ENDBRANCH   2  18
TORSDOF 2
ENDMDL
MODEL 7
REMARK VINA RESULT:      -6.2      2.385      5.535
REMARK  Name = 
REMARK  4 active torsions:
REMARK  status: ('A' for Active; 'I' for Inactive)
REMARK    1  A    between atoms: C_1  and  C_2
REMARK    2  A    between atoms: C_6  and  N_7
REMARK    3  A    between atoms: C_8  and  O_9
REMARK    4  A    between atoms: C_10  and  C_11
REMARK                            x       y       z     vdW  Elec       q    Type
REMARK                         _______ _______ _______ _____ _____    ______ ____
ROOT
ATOM      1  N   UNL     1       4.098   4.802  18.172  0.00  0.00    +0.000 N 
ATOM      2  C   UNL     1       3.166   4.933  19.226  0.00  0.00    +0.000 A 
ATOM      3  C   UNL     1       2.013   4.251  19.297  0.00  0.00    +0.000 A 
ATOM      4  C   UNL     1       1.011   4.341  20.405  0.00  0.00    +0.000 C 
ATOM      5  C   UNL     1       1.652   3.362  18.182  0.00  0.00    +0.000 A 
ATOM      6  O   UNL     1       0.612   2.715  18.162  0.00  0.00    +0.000 OA
ATOM      7  N   UNL     1       2.559   3.296  17.172  0.00  0.00    +0.000 N 
ATOM      8  C   UNL     1       3.802   3.881  17.128  0.00  0.00    +0.000 A 
ATOM      9  S   UNL     1       4.767   3.326  15.864  0.00  0.00    +0.000 S 
ATOM     10  H   UNL     1       2.332   2.646  16.433  0.00  0.00    +0.000 HD
ENDROOT
BRANCH   1  16
ATOM     11  C   UNL     1       8.646   5.552  20.147  0.00  0.00    +0.000 C 
ATOM     12  C   UNL     1       7.609   5.899  19.118  0.00  0.00    +0.000 A 
ATOM     13  C   UNL     1       7.794   6.982  18.259  0.00  0.00    +0.000 A 
ATOM     14  C   UNL     1       6.782   7.350  17.378  0.00  0.00    +0.000 A 
ATOM     15  C   UNL     1       5.573   6.650  17.368  0.00  0.00    +0.000 A 
ATOM     16  C   UNL     1       5.366   5.523  18.179  0.00  0.00    +0.000 A 
ATOM     17  C   UNL     1       6.416   5.156  19.045  0.00  0.00    +0.000 A 
ENDBRANCH   1  16
BRANCH   2  18
ATOM     18  O   UNL     1       3.410   5.867  20.216  0.00  0.00    +0.000 OA
ATOM     19  H   UNL     1       3.409   6.740  19.788  0.00  0.00    +0.000 HD
ENDBRANCH   2  18
TORSDOF 2
ENDMDL
MODEL 8
REMARK VINA RESULT:      -6.1      2.849      4.823
REMARK  Name = 
REMARK  4 active torsions:
REMARK  status: ('A' for Active; 'I' for Inactive)
REMARK    1  A    between atoms: C_1  and  C_2
REMARK    2  A    between atoms: C_6  and  N_7
REMARK    3  A    between atoms: C_8  and  O_9
REMARK    4  A    between atoms: C_10  and  C_11
REMARK                            x       y       z     vdW  Elec       q    Type
REMARK                         _______ _______ _______ _____ _____    ______ ____
ROOT
ATOM      1  N   UNL     1       3.202   5.378  19.534  0.00  0.00    +0.000 N 
ATOM      2  C   UNL     1       2.499   4.425  20.303  0.00  0.00    +0.000 A 
ATOM      3  C   UNL     1       2.991   3.222  20.638  0.00  0.00    +0.000 A 
ATOM      4  C   UNL     1       2.291   2.193  21.470  0.00  0.00    +0.000 C 
ATOM      5  C   UNL     1       4.311   2.832  20.121  0.00  0.00    +0.000 A 
ATOM      6  O   UNL     1       4.824   1.748  20.367  0.00  0.00    +0.000 OA
ATOM      7  N   UNL     1       4.934   3.764  19.353  0.00  0.00    +0.000 N 
ATOM      8  C   UNL     1       4.517   5.049  19.097  0.00  0.00    +0.000 A 
ATOM      9  S   UNL     1       5.692   6.011  18.369  0.00  0.00    +0.000 S 
ATOM     10  H   UNL     1       5.863   3.514  19.042  0.00  0.00    +0.000 HD
ENDROOT
BRANCH   1  16
ATOM     11  C   UNL     1       0.685   9.435  21.068  0.00  0.00    +0.000 C 
ATOM     12  C   UNL     1       1.427   8.705  19.985  0.00  0.00    +0.000 A 
ATOM     13  C   UNL     1       1.472   9.214  18.688  0.00  0.00    +0.000 A 
ATOM     14  C   UNL     1       2.080   8.479  17.674  0.00  0.00    +0.000 A 
ATOM     15  C   UNL     1       2.623   7.221  17.951  0.00  0.00    +0.000 A 
ATOM     16  C   UNL     1       2.643   6.696  19.252  0.00  0.00    +0.000 A 
ATOM     17  C   UNL     1       2.043   7.471  20.265  0.00  0.00    +0.000 A 
ENDBRANCH   1  16
BRANCH   2  18
ATOM     18  O   UNL     1       1.200   4.705  20.683  0.00  0.00    +0.000 OA
ATOM     19  H   UNL     1       1.112   5.673  20.700  0.00  0.00    +0.000 HD
ENDBRANCH   2  18
TORSDOF 2
ENDMDL
MODEL 9
REMARK VINA RESULT:      -6.1      2.051      5.283
REMARK  Name = 
REMARK  4 active torsions:
REMARK  status: ('A' for Active; 'I' for Inactive)
REMARK    1  A    between atoms: C_1  and  C_2
REMARK    2  A    between atoms: C_6  and  N_7
REMARK    3  A    between atoms: C_8  and  O_9
REMARK    4  A    between atoms: C_10  and  C_11
REMARK                            x       y       z     vdW  Elec       q    Type
REMARK                         _______ _______ _______ _____ _____    ______ ____
ROOT
ATOM      1  N   UNL     1       4.134   4.820  18.776  0.00  0.00    +0.000 N 
ATOM      2  C   UNL     1       4.170   3.617  19.515  0.00  0.00    +0.000 A 
ATOM      3  C   UNL     1       3.177   3.199  20.316  0.00  0.00    +0.000 A 
ATOM      4  C   UNL     1       3.164   1.922  21.097  0.00  0.00    +0.000 C 
ATOM      5  C   UNL     1       2.007   4.070  20.498  0.00  0.00    +0.000 A 
ATOM      6  O   UNL     1       1.065   3.770  21.222  0.00  0.00    +0.000 OA
ATOM      7  N   UNL     1       2.032   5.235  19.799  0.00  0.00    +0.000 N 
ATOM      8  C   UNL     1       2.970   5.633  18.876  0.00  0.00    +0.000 A 
ATOM      9  S   UNL     1       2.511   6.987  17.985  0.00  0.00    +0.000 S 
ATOM     10  H   UNL     1       1.204   5.807  19.886  0.00  0.00    +0.000 HD
ENDROOT
BRANCH   1  16
ATOM     11  C   UNL     1       7.944   7.863  17.603  0.00  0.00    +0.000 C 
ATOM     12  C   UNL     1       7.102   6.661  17.283  0.00  0.00    +0.000 A 
ATOM     13  C   UNL     1       7.259   5.984  16.074  0.00  0.00    +0.000 A 
ATOM     14  C   UNL     1       6.407   4.933  15.750  0.00  0.00    +0.000 A 
ATOM     15  C   UNL     1       5.377   4.572  16.625  0.00  0.00    +0.000 A 
ATOM     16  C   UNL     1       5.216   5.194  17.872  0.00  0.00    +0.000 A 
ATOM     17  C   UNL     1       6.109   6.239  18.187  0.00  0.00    +0.000 A 
ENDBRANCH   1  16
BRANCH   2  18
ATOM     18  O   UNL     1       5.317   2.847  19.476  0.00  0.00    +0.000 OA
ATOM     19  H   UNL     1       5.381   2.390  20.332  0.00  0.00    +0.000 HD
ENDBRANCH   2  18
TORSDOF 2
ENDMDL
