MODEL 1
REMARK VINA RESULT:      -7.9      0.000      0.000
REMARK  Name = 
REMARK  8 active torsions:
REMARK  status: ('A' for Active; 'I' for Inactive)
REMARK    1  A    between atoms: C_1  and  O_2
REMARK    2  A    between atoms: O_2  and  C_3
REMARK    3  A    between atoms: C_5  and  C_6
REMARK    4  A    between atoms: N_10  and  C_11
REMARK    5  A    between atoms: C_22  and  O_23
REMARK    6  A    between atoms: O_23  and  C_24
REMARK    7  A    between atoms: C_25  and  O_26
REMARK    8  A    between atoms: O_26  and  C_27
REMARK                            x       y       z     vdW  Elec       q    Type
REMARK                         _______ _______ _______ _____ _____    ______ ____
ROOT
ATOM      1  C   UNL     1       3.103   4.087  18.827  0.00  0.00    +0.000 A 
ATOM      2  C   UNL     1       2.699   2.754  18.858  0.00  0.00    +0.000 A 
ATOM      3  C   UNL     1       1.429   2.672  19.454  0.00  0.00    +0.000 A 
ATOM      4  C   UNL     1       1.066   3.950  19.789  0.00  0.00    +0.000 A 
ATOM      5  N   UNL     1       2.045   4.839  19.370  0.00  0.00    +0.000 N 
ENDROOT
BRANCH   5   6
ATOM      6  C   UNL     1       1.941   6.249  19.588  0.00  0.00    +0.000 A 
ATOM      7  C   UNL     1       2.198   7.096  18.495  0.00  0.00    +0.000 A 
ATOM      8  C   UNL     1       1.891   8.447  18.564  0.00  0.00    +0.000 A 
ATOM      9  C   UNL     1       1.323   8.987  19.718  0.00  0.00    +0.000 A 
ATOM     10  C   UNL     1       0.812  10.290  19.711  0.00  0.00    +0.000 A 
ATOM     11  C   UNL     1       0.238  10.834  20.856  0.00  0.00    +0.000 A 
ATOM     12  C   UNL     1       0.272  10.121  22.047  0.00  0.00    +0.000 A 
ATOM     13  C   UNL     1       0.754   8.807  22.064  0.00  0.00    +0.000 A 
ATOM     14  C   UNL     1       1.213   8.188  20.881  0.00  0.00    +0.000 A 
ATOM     15  C   UNL     1       1.513   6.808  20.798  0.00  0.00    +0.000 A 
ENDBRANCH   5   6
BRANCH   1  18
ATOM     16  C   UNL     1       5.769   5.536  16.559  0.00  0.00    +0.000 A 
ATOM     17  C   UNL     1       4.613   4.873  17.007  0.00  0.00    +0.000 A 
ATOM     18  C   UNL     1       4.406   4.595  18.362  0.00  0.00    +0.000 A 
ATOM     19  C   UNL     1       5.454   4.843  19.237  0.00  0.00    +0.000 A 
ATOM     20  C   UNL     1       6.590   5.554  18.838  0.00  0.00    +0.000 A 
ATOM     21  C   UNL     1       6.765   5.917  17.488  0.00  0.00    +0.000 A 
BRANCH  16  23
ATOM     22  C   UNL     1       6.620   4.829  14.449  0.00  0.00    +0.000 C 
ATOM     23  O   UNL     1       5.950   5.818  15.227  0.00  0.00    +0.000 OA
ENDBRANCH  16  23
BRANCH  20  24
ATOM     24  O   UNL     1       7.335   5.939  19.924  0.00  0.00    +0.000 OA
ATOM     25  C   UNL     1       8.508   5.215  20.241  0.00  0.00    +0.000 C 
ENDBRANCH  20  24
BRANCH  21  26
ATOM     26  O   UNL     1       7.889   6.645  17.214  0.00  0.00    +0.000 OA
ATOM     27  C   UNL     1       7.925   8.036  17.488  0.00  0.00    +0.000 C 
ENDBRANCH  21  26
ENDBRANCH   1  18
TORSDOF 5
ENDMDL
MODEL 2
REMARK VINA RESULT:      -7.7      2.606      6.766
REMARK  Name = 
REMARK  8 active torsions:
REMARK  status: ('A' for Active; 'I' for Inactive)
REMARK    1  A    between atoms: C_1  and  O_2
REMARK    2  A    between atoms: O_2  and  C_3
REMARK    3  A    between atoms: C_5  and  C_6
REMARK    4  A    between atoms: N_10  and  C_11
REMARK    5  A    between atoms: C_22  and  O_23
REMARK    6  A    between atoms: O_23  and  C_24
REMARK    7  A    between atoms: C_25  and  O_26
REMARK    8  A    between atoms: O_26  and  C_27
REMARK                            x       y       z     vdW  Elec       q    Type
REMARK                         _______ _______ _______ _____ _____    ______ ____
ROOT
ATOM      1  C   UNL     1       2.460   4.709  20.509  0.00  0.00    +0.000 A 
ATOM      2  C   UNL     1       1.941   3.831  21.458  0.00  0.00    +0.000 A 
ATOM      3  C   UNL     1       2.621   2.604  21.371  0.00  0.00    +0.000 A 
ATOM      4  C   UNL     1       3.545   2.735  20.368  0.00  0.00    +0.000 A 
ATOM      5  N   UNL     1       3.505   4.025  19.860  0.00  0.00    +0.000 N 
ENDROOT
BRANCH   5   6
ATOM      6  C   UNL     1       4.358   4.455  18.795  0.00  0.00    +0.000 A 
ATOM      7  C   UNL     1       5.569   5.080  19.145  0.00  0.00    +0.000 A 
ATOM      8  C   UNL     1       6.545   5.309  18.186  0.00  0.00    +0.000 A 
ATOM      9  C   UNL     1       6.342   4.923  16.862  0.00  0.00    +0.000 A 
ATOM     10  C   UNL     1       7.402   4.949  15.948  0.00  0.00    +0.000 A 
ATOM     11  C   UNL     1       7.210   4.559  14.626  0.00  0.00    +0.000 A 
ATOM     12  C   UNL     1       5.932   4.247  14.180  0.00  0.00    +0.000 A 
ATOM     13  C   UNL     1       4.868   4.189  15.088  0.00  0.00    +0.000 A 
ATOM     14  C   UNL     1       5.071   4.446  16.460  0.00  0.00    +0.000 A 
ATOM     15  C   UNL     1       4.087   4.201  17.446  0.00  0.00    +0.000 A 
ENDBRANCH   5   6
BRANCH   1  18
ATOM     16  C   UNL     1       0.827   8.096  20.970  0.00  0.00    +0.000 A 
ATOM     17  C   UNL     1       1.152   6.736  21.129  0.00  0.00    +0.000 A 
ATOM     18  C   UNL     1       1.970   6.067  20.214  0.00  0.00    +0.000 A 
ATOM     19  C   UNL     1       2.316   6.738  19.049  0.00  0.00    +0.000 A 
ATOM     20  C   UNL     1       2.062   8.103  18.887  0.00  0.00    +0.000 A 
ATOM     21  C   UNL     1       1.314   8.808  19.850  0.00  0.00    +0.000 A 
BRANCH  16  23
ATOM     22  C   UNL     1       0.709   9.406  22.957  0.00  0.00    +0.000 C 
ATOM     23  O   UNL     1       0.037   8.745  21.888  0.00  0.00    +0.000 OA
ENDBRANCH  16  23
BRANCH  20  24
ATOM     24  O   UNL     1       2.753   8.607  17.813  0.00  0.00    +0.000 OA
ATOM     25  C   UNL     1       3.800   7.838  17.252  0.00  0.00    +0.000 C 
ENDBRANCH  20  24
BRANCH  21  26
ATOM     26  O   UNL     1       1.159  10.146  19.614  0.00  0.00    +0.000 OA
ATOM     27  C   UNL     1       0.031  10.620  18.899  0.00  0.00    +0.000 C 
ENDBRANCH  21  26
ENDBRANCH   1  18
TORSDOF 5
ENDMDL
MODEL 3
REMARK VINA RESULT:      -7.5      1.436      3.025
REMARK  Name = 
REMARK  8 active torsions:
REMARK  status: ('A' for Active; 'I' for Inactive)
REMARK    1  A    between atoms: C_1  and  O_2
REMARK    2  A    between atoms: O_2  and  C_3
REMARK    3  A    between atoms: C_5  and  C_6
REMARK    4  A    between atoms: N_10  and  C_11
REMARK    5  A    between atoms: C_22  and  O_23
REMARK    6  A    between atoms: O_23  and  C_24
REMARK    7  A    between atoms: C_25  and  O_26
REMARK    8  A    between atoms: O_26  and  C_27
REMARK                            x       y       z     vdW  Elec       q    Type
REMARK                         _______ _______ _______ _____ _____    ______ ____
ROOT
ATOM      1  C   UNL     1       3.771   3.578  17.732  0.00  0.00    +0.000 A 
ATOM      2  C   UNL     1       3.536   2.219  17.930  0.00  0.00    +0.000 A 
ATOM      3  C   UNL     1       2.524   2.061  18.892  0.00  0.00    +0.000 A 
ATOM      4  C   UNL     1       2.150   3.321  19.281  0.00  0.00    +0.000 A 
ATOM      5  N   UNL     1       2.857   4.266  18.552  0.00  0.00    +0.000 N 
ENDROOT
BRANCH   5   6
ATOM      6  C   UNL     1       2.680   5.672  18.746  0.00  0.00    +0.000 A 
ATOM      7  C   UNL     1       2.857   6.508  17.629  0.00  0.00    +0.000 A 
ATOM      8  C   UNL     1       2.476   7.842  17.682  0.00  0.00    +0.000 A 
ATOM      9  C   UNL     1       1.911   8.373  18.841  0.00  0.00    +0.000 A 
ATOM     10  C   UNL     1       1.327   9.644  18.823  0.00  0.00    +0.000 A 
ATOM     11  C   UNL     1       0.755  10.179  19.974  0.00  0.00    +0.000 A 
ATOM     12  C   UNL     1       0.862   9.493  21.177  0.00  0.00    +0.000 A 
ATOM     13  C   UNL     1       1.419   8.209  21.205  0.00  0.00    +0.000 A 
ATOM     14  C   UNL     1       1.879   7.593  20.022  0.00  0.00    +0.000 A 
ATOM     15  C   UNL     1       2.255   6.231  19.956  0.00  0.00    +0.000 A 
ENDBRANCH   5   6
BRANCH   1  18
ATOM     16  C   UNL     1       6.870   5.477  16.665  0.00  0.00    +0.000 A 
ATOM     17  C   UNL     1       5.756   5.049  17.408  0.00  0.00    +0.000 A 
ATOM     18  C   UNL     1       4.811   4.169  16.872  0.00  0.00    +0.000 A 
ATOM     19  C   UNL     1       4.915   3.859  15.522  0.00  0.00    +0.000 A 
ATOM     20  C   UNL     1       6.039   4.217  14.772  0.00  0.00    +0.000 A 
ATOM     21  C   UNL     1       7.041   5.032  15.334  0.00  0.00    +0.000 A 
BRANCH  16  23
ATOM     22  C   UNL     1       7.376   7.669  17.453  0.00  0.00    +0.000 C 
ATOM     23  O   UNL     1       7.799   6.329  17.213  0.00  0.00    +0.000 OA
ENDBRANCH  16  23
BRANCH  20  24
ATOM     24  O   UNL     1       6.059   3.552  13.571  0.00  0.00    +0.000 OA
ATOM     25  C   UNL     1       4.932   3.639  12.721  0.00  0.00    +0.000 C 
ENDBRANCH  20  24
BRANCH  21  26
ATOM     26  O   UNL     1       8.115   5.287  14.528  0.00  0.00    +0.000 OA
ATOM     27  C   UNL     1       7.921   5.644  13.170  0.00  0.00    +0.000 C 
ENDBRANCH  21  26
ENDBRANCH   1  18
TORSDOF 5
ENDMDL
MODEL 4
REMARK VINA RESULT:      -7.4      1.066      1.882
REMARK  Name = 
REMARK  8 active torsions:
REMARK  status: ('A' for Active; 'I' for Inactive)
REMARK    1  A    between atoms: C_1  and  O_2
REMARK    2  A    between atoms: O_2  and  C_3
REMARK    3  A    between atoms: C_5  and  C_6
REMARK    4  A    between atoms: N_10  and  C_11
REMARK    5  A    between atoms: C_22  and  O_23
REMARK    6  A    between atoms: O_23  and  C_24
REMARK    7  A    between atoms: C_25  and  O_26
REMARK    8  A    between atoms: O_26  and  C_27
REMARK                            x       y       z     vdW  Elec       q    Type
REMARK                         _______ _______ _______ _____ _____    ______ ____
ROOT
ATOM      1  C   UNL     1       3.737   3.243  18.275  0.00  0.00    +0.000 A 
ATOM      2  C   UNL     1       3.656   1.853  18.221  0.00  0.00    +0.000 A 
ATOM      3  C   UNL     1       2.413   1.444  18.734  0.00  0.00    +0.000 A 
ATOM      4  C   UNL     1       1.744   2.581  19.103  0.00  0.00    +0.000 A 
ATOM      5  N   UNL     1       2.507   3.696  18.786  0.00  0.00    +0.000 N 
ENDROOT
BRANCH   5   6
ATOM      6  C   UNL     1       2.065   5.029  19.061  0.00  0.00    +0.000 A 
ATOM      7  C   UNL     1       1.680   5.325  20.381  0.00  0.00    +0.000 A 
ATOM      8  C   UNL     1       1.468   6.639  20.774  0.00  0.00    +0.000 A 
ATOM      9  C   UNL     1       1.634   7.686  19.867  0.00  0.00    +0.000 A 
ATOM     10  C   UNL     1       1.639   9.012  20.312  0.00  0.00    +0.000 A 
ATOM     11  C   UNL     1       1.811  10.063  19.415  0.00  0.00    +0.000 A 
ATOM     12  C   UNL     1       1.866   9.800  18.053  0.00  0.00    +0.000 A 
ATOM     13  C   UNL     1       1.891   8.477  17.594  0.00  0.00    +0.000 A 
ATOM     14  C   UNL     1       1.858   7.395  18.499  0.00  0.00    +0.000 A 
ATOM     15  C   UNL     1       2.088   6.055  18.111  0.00  0.00    +0.000 A 
ENDBRANCH   5   6
BRANCH   1  18
ATOM     16  C   UNL     1       6.108   5.382  16.237  0.00  0.00    +0.000 A 
ATOM     17  C   UNL     1       5.119   4.445  16.586  0.00  0.00    +0.000 A 
ATOM     18  C   UNL     1       4.906   4.065  17.915  0.00  0.00    +0.000 A 
ATOM     19  C   UNL     1       5.812   4.515  18.866  0.00  0.00    +0.000 A 
ATOM     20  C   UNL     1       6.766   5.491  18.565  0.00  0.00    +0.000 A 
ATOM     21  C   UNL     1       6.928   5.946  17.242  0.00  0.00    +0.000 A 
BRANCH  16  23
ATOM     22  C   UNL     1       6.870   4.787  14.059  0.00  0.00    +0.000 C 
ATOM     23  O   UNL     1       6.294   5.759  14.929  0.00  0.00    +0.000 OA
ENDBRANCH  16  23
BRANCH  20  24
ATOM     24  O   UNL     1       7.333   5.992  19.710  0.00  0.00    +0.000 OA
ATOM     25  C   UNL     1       8.459   5.336  20.260  0.00  0.00    +0.000 C 
ENDBRANCH  20  24
BRANCH  21  26
ATOM     26  O   UNL     1       7.860   6.931  17.066  0.00  0.00    +0.000 OA
ATOM     27  C   UNL     1       7.608   8.244  17.537  0.00  0.00    +0.000 C 
ENDBRANCH  21  26
ENDBRANCH   1  18
TORSDOF 5
ENDMDL
MODEL 5
REMARK VINA RESULT:      -7.3      1.200      2.610
REMARK  Name = 
REMARK  8 active torsions:
REMARK  status: ('A' for Active; 'I' for Inactive)
REMARK    1  A    between atoms: C_1  and  O_2
REMARK    2  A    between atoms: O_2  and  C_3
REMARK    3  A    between atoms: C_5  and  C_6
REMARK    4  A    between atoms: N_10  and  C_11
REMARK    5  A    between atoms: C_22  and  O_23
REMARK    6  A    between atoms: O_23  and  C_24
REMARK    7  A    between atoms: C_25  and  O_26
REMARK    8  A    between atoms: O_26  and  C_27
REMARK                            x       y       z     vdW  Elec       q    Type
REMARK                         _______ _______ _______ _____ _____    ______ ____
ROOT
ATOM      1  C   UNL     1       3.316   4.029  19.412  0.00  0.00    +0.000 A 
ATOM      2  C   UNL     1       3.014   2.793  19.980  0.00  0.00    +0.000 A 
ATOM      3  C   UNL     1       1.919   2.940  20.849  0.00  0.00    +0.000 A 
ATOM      4  C   UNL     1       1.562   4.262  20.813  0.00  0.00    +0.000 A 
ATOM      5  N   UNL     1       2.363   4.939  19.905  0.00  0.00    +0.000 N 
ENDROOT
BRANCH   5   6
ATOM      6  C   UNL     1       2.223   6.341  19.658  0.00  0.00    +0.000 A 
ATOM      7  C   UNL     1       2.526   6.806  18.365  0.00  0.00    +0.000 A 
ATOM      8  C   UNL     1       2.192   8.098  17.986  0.00  0.00    +0.000 A 
ATOM      9  C   UNL     1       1.552   8.956  18.879  0.00  0.00    +0.000 A 
ATOM     10  C   UNL     1       1.019  10.171  18.434  0.00  0.00    +0.000 A 
ATOM     11  C   UNL     1       0.373  11.031  19.317  0.00  0.00    +0.000 A 
ATOM     12  C   UNL     1       0.352  10.733  20.674  0.00  0.00    +0.000 A 
ATOM     13  C   UNL     1       0.856   9.509  21.131  0.00  0.00    +0.000 A 
ATOM     14  C   UNL     1       1.390   8.563  20.230  0.00  0.00    +0.000 A 
ATOM     15  C   UNL     1       1.718   7.240  20.604  0.00  0.00    +0.000 A 
ENDBRANCH   5   6
BRANCH   1  18
ATOM     16  C   UNL     1       6.750   5.100  18.226  0.00  0.00    +0.000 A 
ATOM     17  C   UNL     1       5.584   4.976  19.001  0.00  0.00    +0.000 A 
ATOM     18  C   UNL     1       4.446   4.325  18.514  0.00  0.00    +0.000 A 
ATOM     19  C   UNL     1       4.442   3.951  17.177  0.00  0.00    +0.000 A 
ATOM     20  C   UNL     1       5.601   4.006  16.397  0.00  0.00    +0.000 A 
ATOM     21  C   UNL     1       6.780   4.580  16.912  0.00  0.00    +0.000 A 
BRANCH  16  23
ATOM     22  C   UNL     1       8.006   7.115  18.434  0.00  0.00    +0.000 C 
ATOM     23  O   UNL     1       7.867   5.727  18.726  0.00  0.00    +0.000 OA
ENDBRANCH  16  23
BRANCH  20  24
ATOM     24  O   UNL     1       5.437   3.311  15.224  0.00  0.00    +0.000 OA
ATOM     25  C   UNL     1       5.197   4.032  14.031  0.00  0.00    +0.000 C 
ENDBRANCH  20  24
BRANCH  21  26
ATOM     26  O   UNL     1       7.865   4.544  16.081  0.00  0.00    +0.000 OA
ATOM     27  C   UNL     1       7.936   5.408  14.960  0.00  0.00    +0.000 C 
ENDBRANCH  21  26
ENDBRANCH   1  18
TORSDOF 5
ENDMDL
MODEL 6
REMARK VINA RESULT:      -7.3      2.692      6.562
REMARK  Name = 
REMARK  8 active torsions:
REMARK  status: ('A' for Active; 'I' for Inactive)
REMARK    1  A    between atoms: C_1  and  O_2
REMARK    2  A    between atoms: O_2  and  C_3
REMARK    3  A    between atoms: C_5  and  C_6
REMARK    4  A    between atoms: N_10  and  C_11
REMARK    5  A    between atoms: C_22  and  O_23
REMARK    6  A    between atoms: O_23  and  C_24
REMARK    7  A    between atoms: C_25  and  O_26
REMARK    8  A    between atoms: O_26  and  C_27
REMARK                            x       y       z     vdW  Elec       q    Type
REMARK                         _______ _______ _______ _____ _____    ______ ____
ROOT
ATOM      1  C   UNL     1       2.155   4.784  20.522  0.00  0.00    +0.000 A 
ATOM      2  C   UNL     1       1.453   3.889  21.328  0.00  0.00    +0.000 A 
ATOM      3  C   UNL     1       1.936   2.589  21.101  0.00  0.00    +0.000 A 
ATOM      4  C   UNL     1       2.923   2.694  20.156  0.00  0.00    +0.000 A 
ATOM      5  N   UNL     1       3.114   4.027  19.824  0.00  0.00    +0.000 N 
ENDROOT
BRANCH   5   6
ATOM      6  C   UNL     1       4.081   4.443  18.856  0.00  0.00    +0.000 A 
ATOM      7  C   UNL     1       5.326   4.891  19.333  0.00  0.00    +0.000 A 
ATOM      8  C   UNL     1       6.386   5.085  18.458  0.00  0.00    +0.000 A 
ATOM      9  C   UNL     1       6.234   4.839  17.094  0.00  0.00    +0.000 A 
ATOM     10  C   UNL     1       7.350   4.819  16.251  0.00  0.00    +0.000 A 
ATOM     11  C   UNL     1       7.208   4.568  14.889  0.00  0.00    +0.000 A 
ATOM     12  C   UNL     1       5.938   4.446  14.342  0.00  0.00    +0.000 A 
ATOM     13  C   UNL     1       4.813   4.435  15.176  0.00  0.00    +0.000 A 
ATOM     14  C   UNL     1       4.948   4.550  16.576  0.00  0.00    +0.000 A 
ATOM     15  C   UNL     1       3.877   4.339  17.475  0.00  0.00    +0.000 A 
ENDBRANCH   5   6
BRANCH   1  18
ATOM     16  C   UNL     1       2.023   8.271  19.047  0.00  0.00    +0.000 A 
ATOM     17  C   UNL     1       2.406   6.942  19.302  0.00  0.00    +0.000 A 
ATOM     18  C   UNL     1       1.899   6.230  20.394  0.00  0.00    +0.000 A 
ATOM     19  C   UNL     1       1.134   6.928  21.318  0.00  0.00    +0.000 A 
ATOM     20  C   UNL     1       0.686   8.228  21.066  0.00  0.00    +0.000 A 
ATOM     21  C   UNL     1       1.122   8.922  19.921  0.00  0.00    +0.000 A 
BRANCH  16  23
ATOM     22  C   UNL     1       3.513   8.288  17.188  0.00  0.00    +0.000 C 
ATOM     23  O   UNL     1       2.516   8.952  17.960  0.00  0.00    +0.000 OA
ENDBRANCH  16  23
BRANCH  20  24
ATOM     24  O   UNL     1      -0.288   8.593  21.961  0.00  0.00    +0.000 OA
ATOM     25  C   UNL     1       0.058   9.435  23.044  0.00  0.00    +0.000 C 
ENDBRANCH  20  24
BRANCH  21  26
ATOM     26  O   UNL     1       0.591  10.171  19.750  0.00  0.00    +0.000 OA
ATOM     27  C   UNL     1      -0.571  10.351  18.958  0.00  0.00    +0.000 C 
ENDBRANCH  21  26
ENDBRANCH   1  18
TORSDOF 5
ENDMDL
MODEL 7
REMARK VINA RESULT:      -7.3      1.308      1.796
REMARK  Name = 
REMARK  8 active torsions:
REMARK  status: ('A' for Active; 'I' for Inactive)
REMARK    1  A    between atoms: C_1  and  O_2
REMARK    2  A    between atoms: O_2  and  C_3
REMARK    3  A    between atoms: C_5  and  C_6
REMARK    4  A    between atoms: N_10  and  C_11
REMARK    5  A    between atoms: C_22  and  O_23
REMARK    6  A    between atoms: O_23  and  C_24
REMARK    7  A    between atoms: C_25  and  O_26
REMARK    8  A    between atoms: O_26  and  C_27
REMARK                            x       y       z     vdW  Elec       q    Type
REMARK                         _______ _______ _______ _____ _____    ______ ____
ROOT
ATOM      1  C   UNL     1       3.699   3.409  18.208  0.00  0.00    +0.000 A 
ATOM      2  C   UNL     1       3.391   2.089  18.531  0.00  0.00    +0.000 A 
ATOM      3  C   UNL     1       2.345   2.076  19.470  0.00  0.00    +0.000 A 
ATOM      4  C   UNL     1       2.024   3.384  19.721  0.00  0.00    +0.000 A 
ATOM      5  N   UNL     1       2.798   4.217  18.926  0.00  0.00    +0.000 N 
ENDROOT
BRANCH   5   6
ATOM      6  C   UNL     1       2.686   5.642  18.975  0.00  0.00    +0.000 A 
ATOM      7  C   UNL     1       3.071   6.363  17.831  0.00  0.00    +0.000 A 
ATOM      8  C   UNL     1       2.772   7.714  17.717  0.00  0.00    +0.000 A 
ATOM      9  C   UNL     1       2.086   8.377  18.733  0.00  0.00    +0.000 A 
ATOM     10  C   UNL     1       1.593   9.669  18.526  0.00  0.00    +0.000 A 
ATOM     11  C   UNL     1       0.900  10.336  19.533  0.00  0.00    +0.000 A 
ATOM     12  C   UNL     1       0.794   9.758  20.792  0.00  0.00    +0.000 A 
ATOM     13  C   UNL     1       1.258   8.455  21.006  0.00  0.00    +0.000 A 
ATOM     14  C   UNL     1       1.838   7.710  19.958  0.00  0.00    +0.000 A 
ATOM     15  C   UNL     1       2.132   6.331  20.060  0.00  0.00    +0.000 A 
ENDBRANCH   5   6
BRANCH   1  18
ATOM     16  C   UNL     1       5.571   4.437  15.080  0.00  0.00    +0.000 A 
ATOM     17  C   UNL     1       4.633   3.836  15.939  0.00  0.00    +0.000 A 
ATOM     18  C   UNL     1       4.790   3.861  17.328  0.00  0.00    +0.000 A 
ATOM     19  C   UNL     1       5.987   4.352  17.831  0.00  0.00    +0.000 A 
ATOM     20  C   UNL     1       6.912   5.009  17.013  0.00  0.00    +0.000 A 
ATOM     21  C   UNL     1       6.716   5.065  15.619  0.00  0.00    +0.000 A 
BRANCH  16  23
ATOM     22  C   UNL     1       5.620   3.176  13.058  0.00  0.00    +0.000 C 
ATOM     23  O   UNL     1       5.394   4.419  13.717  0.00  0.00    +0.000 OA
ENDBRANCH  16  23
BRANCH  20  24
ATOM     24  O   UNL     1       7.854   5.665  17.766  0.00  0.00    +0.000 OA
ATOM     25  C   UNL     1       7.725   5.664  19.175  0.00  0.00    +0.000 C 
ENDBRANCH  20  24
BRANCH  21  26
ATOM     26  O   UNL     1       7.658   5.767  14.920  0.00  0.00    +0.000 OA
ATOM     27  C   UNL     1       8.037   5.354  13.618  0.00  0.00    +0.000 C 
ENDBRANCH  21  26
ENDBRANCH   1  18
TORSDOF 5
ENDMDL
MODEL 8
REMARK VINA RESULT:      -7.1      1.223      2.737
REMARK  Name = 
REMARK  8 active torsions:
REMARK  status: ('A' for Active; 'I' for Inactive)
REMARK    1  A    between atoms: C_1  and  O_2
REMARK    2  A    between atoms: O_2  and  C_3
REMARK    3  A    between atoms: C_5  and  C_6
REMARK    4  A    between atoms: N_10  and  C_11
REMARK    5  A    between atoms: C_22  and  O_23
REMARK    6  A    between atoms: O_23  and  C_24
REMARK    7  A    between atoms: C_25  and  O_26
REMARK    8  A    between atoms: O_26  and  C_27
REMARK                            x       y       z     vdW  Elec       q    Type
REMARK                         _______ _______ _______ _____ _____    ______ ____
ROOT
ATOM      1  C   UNL     1       3.072   3.672  18.287  0.00  0.00    +0.000 A 
ATOM      2  C   UNL     1       2.638   2.358  18.447  0.00  0.00    +0.000 A 
ATOM      3  C   UNL     1       1.498   2.346  19.269  0.00  0.00    +0.000 A 
ATOM      4  C   UNL     1       1.245   3.649  19.611  0.00  0.00    +0.000 A 
ATOM      5  N   UNL     1       2.158   4.484  18.984  0.00  0.00    +0.000 N 
ENDROOT
BRANCH   5   6
ATOM      6  C   UNL     1       2.143   5.903  19.159  0.00  0.00    +0.000 A 
ATOM      7  C   UNL     1       2.378   6.699  18.023  0.00  0.00    +0.000 A 
ATOM      8  C   UNL     1       2.148   8.068  18.064  0.00  0.00    +0.000 A 
ATOM      9  C   UNL     1       1.680   8.674  19.229  0.00  0.00    +0.000 A 
ATOM     10  C   UNL     1       1.240  10.001  19.207  0.00  0.00    +0.000 A 
ATOM     11  C   UNL     1       0.765  10.613  20.364  0.00  0.00    +0.000 A 
ATOM     12  C   UNL     1       0.833   9.936  21.575  0.00  0.00    +0.000 A 
ATOM     13  C   UNL     1       1.245   8.598  21.609  0.00  0.00    +0.000 A 
ATOM     14  C   UNL     1       1.598   7.918  20.424  0.00  0.00    +0.000 A 
ATOM     15  C   UNL     1       1.819   6.523  20.371  0.00  0.00    +0.000 A 
ENDBRANCH   5   6
BRANCH   1  18
ATOM     16  C   UNL     1       6.697   4.519  17.584  0.00  0.00    +0.000 A 
ATOM     17  C   UNL     1       5.486   4.290  18.261  0.00  0.00    +0.000 A 
ATOM     18  C   UNL     1       4.283   4.111  17.571  0.00  0.00    +0.000 A 
ATOM     19  C   UNL     1       4.289   4.331  16.200  0.00  0.00    +0.000 A 
ATOM     20  C   UNL     1       5.482   4.500  15.490  0.00  0.00    +0.000 A 
ATOM     21  C   UNL     1       6.710   4.593  16.173  0.00  0.00    +0.000 A 
BRANCH  16  23
ATOM     22  C   UNL     1       7.905   5.707  19.260  0.00  0.00    +0.000 C 
ATOM     23  O   UNL     1       7.874   4.676  18.276  0.00  0.00    +0.000 OA
ENDBRANCH  16  23
BRANCH  20  24
ATOM     24  O   UNL     1       5.267   4.394  14.138  0.00  0.00    +0.000 OA
ATOM     25  C   UNL     1       5.561   3.171  13.493  0.00  0.00    +0.000 C 
ENDBRANCH  20  24
BRANCH  21  26
ATOM     26  O   UNL     1       7.818   4.715  15.380  0.00  0.00    +0.000 OA
ATOM     27  C   UNL     1       7.806   5.591  14.266  0.00  0.00    +0.000 C 
ENDBRANCH  21  26
ENDBRANCH   1  18
TORSDOF 5
ENDMDL
MODEL 9
REMARK VINA RESULT:      -7.1      4.580      8.095
REMARK  Name = 
REMARK  8 active torsions:
REMARK  status: ('A' for Active; 'I' for Inactive)
REMARK    1  A    between atoms: C_1  and  O_2
REMARK    2  A    between atoms: O_2  and  C_3
REMARK    3  A    between atoms: C_5  and  C_6
REMARK    4  A    between atoms: N_10  and  C_11
REMARK    5  A    between atoms: C_22  and  O_23
REMARK    6  A    between atoms: O_23  and  C_24
REMARK    7  A    between atoms: C_25  and  O_26
REMARK    8  A    between atoms: O_26  and  C_27
REMARK                            x       y       z     vdW  Elec       q    Type
REMARK                         _______ _______ _______ _____ _____    ______ ____
ROOT
ATOM      1  C   UNL     1      -0.025  11.978  18.759  0.00  0.00    +0.000 A 
ATOM      2  C   UNL     1      -1.210  12.493  18.238  0.00  0.00    +0.000 A 
ATOM      3  C   UNL     1      -1.975  11.441  17.705  0.00  0.00    +0.000 A 
ATOM      4  C   UNL     1      -1.253  10.292  17.897  0.00  0.00    +0.000 A 
ATOM      5  N   UNL     1      -0.083  10.583  18.584  0.00  0.00    +0.000 N 
ENDROOT
BRANCH   5   6
ATOM      6  C   UNL     1       0.875   9.577  18.923  0.00  0.00    +0.000 A 
ATOM      7  C   UNL     1       0.819   9.039  20.221  0.00  0.00    +0.000 A 
ATOM      8  C   UNL     1       1.553   7.906  20.545  0.00  0.00    +0.000 A 
ATOM      9  C   UNL     1       2.355   7.284  19.590  0.00  0.00    +0.000 A 
ATOM     10  C   UNL     1       2.915   6.027  19.847  0.00  0.00    +0.000 A 
ATOM     11  C   UNL     1       3.712   5.396  18.896  0.00  0.00    +0.000 A 
ATOM     12  C   UNL     1       4.047   6.066  17.727  0.00  0.00    +0.000 A 
ATOM     13  C   UNL     1       3.473   7.311  17.443  0.00  0.00    +0.000 A 
ATOM     14  C   UNL     1       2.552   7.904  18.332  0.00  0.00    +0.000 A 
ATOM     15  C   UNL     1       1.790   9.049  18.005  0.00  0.00    +0.000 A 
ENDBRANCH   5   6
BRANCH   1  18
ATOM     16  C   UNL     1       3.164  14.010  18.991  0.00  0.00    +0.000 A 
ATOM     17  C   UNL     1       2.183  13.112  18.535  0.00  0.00    +0.000 A 
ATOM     18  C   UNL     1       1.089  12.755  19.330  0.00  0.00    +0.000 A 
ATOM     19  C   UNL     1       1.086  13.185  20.650  0.00  0.00    +0.000 A 
ATOM     20  C   UNL     1       2.011  14.125  21.118  0.00  0.00    +0.000 A 
ATOM     21  C   UNL     1       3.066  14.557  20.291  0.00  0.00    +0.000 A 
BRANCH  16  23
ATOM     22  C   UNL     1       4.063  15.538  17.399  0.00  0.00    +0.000 C 
ATOM     23  O   UNL     1       4.224  14.364  18.191  0.00  0.00    +0.000 OA
ENDBRANCH  16  23
BRANCH  20  24
ATOM     24  O   UNL     1       1.631  14.620  22.340  0.00  0.00    +0.000 OA
ATOM     25  C   UNL     1       0.377  15.264  22.458  0.00  0.00    +0.000 C 
ENDBRANCH  20  24
BRANCH  21  26
ATOM     26  O   UNL     1       3.887  15.508  20.832  0.00  0.00    +0.000 OA
ATOM     27  C   UNL     1       5.071  15.127  21.511  0.00  0.00    +0.000 C 
ENDBRANCH  21  26
ENDBRANCH   1  18
TORSDOF 5
ENDMDL
