MODEL 1
REMARK VINA RESULT:      -9.2      0.000      0.000
REMARK  Name = 
REMARK  7 active torsions:
REMARK  status: ('A' for Active; 'I' for Inactive)
REMARK    1  A    between atoms: C_1  and  C_2
REMARK    2  A    between atoms: C_5  and  S_6
REMARK    3  A    between atoms: S_6  and  N_9
REMARK    4  A    between atoms: C_15  and  C_16
REMARK    5  A    between atoms: C_16  and  C_17
REMARK    6  A    between atoms: N_19  and  C_20
REMARK    7  A    between atoms: C_23  and  O_24
REMARK                            x       y       z     vdW  Elec       q    Type
REMARK                         _______ _______ _______ _____ _____    ______ ____
ROOT
ATOM      1  N   UNL     1       4.808   5.327  18.493  0.00  0.00    +0.000 N 
ATOM      2  C   UNL     1       5.095   4.149  19.242  0.00  0.00    +0.000 C 
ATOM      3  C   UNL     1       4.113   3.234  19.338  0.00  0.00    +0.000 C 
ATOM      4  N   UNL     1       2.908   3.367  18.712  0.00  0.00    +0.000 N 
ATOM      5  C   UNL     1       2.524   4.466  17.960  0.00  0.00    +0.000 C 
ATOM      6  O   UNL     1       1.479   4.471  17.336  0.00  0.00    +0.000 OA
ATOM      7  C   UNL     1       3.439   5.691  18.131  0.00  0.00    +0.000 C 
ATOM      8  H   UNL     1       2.256   2.588  18.707  0.00  0.00    +0.000 HD
ENDROOT
BRANCH   1   9
ATOM      9  S   UNL     1       6.101   6.025  17.668  0.00  0.00    +0.000 S 
ATOM     10  O   UNL     1       7.328   5.725  18.365  0.00  0.00    +0.000 OA
ATOM     11  O   UNL     1       5.761   7.394  17.310  0.00  0.00    +0.000 OA
BRANCH   9  16
ATOM     12  C   UNL     1       6.086   3.303  12.229  0.00  0.00    +0.000 C 
ATOM     13  C   UNL     1       6.121   3.885  13.611  0.00  0.00    +0.000 A 
ATOM     14  C   UNL     1       5.089   3.642  14.527  0.00  0.00    +0.000 A 
ATOM     15  C   UNL     1       5.098   4.249  15.785  0.00  0.00    +0.000 A 
ATOM     16  C   UNL     1       6.149   5.100  16.134  0.00  0.00    +0.000 A 
ATOM     17  C   UNL     1       7.188   5.349  15.225  0.00  0.00    +0.000 A 
ATOM     18  C   UNL     1       7.173   4.738  13.972  0.00  0.00    +0.000 A 
ENDBRANCH   9  16
ENDBRANCH   1   9
BRANCH   7  19
ATOM     19  C   UNL     1       2.786   6.542  19.241  0.00  0.00    +0.000 C 
BRANCH  19  20
ATOM     20  C   UNL     1       2.218   7.844  18.734  0.00  0.00    +0.000 C 
ATOM     21  O   UNL     1       2.440   8.270  17.607  0.00  0.00    +0.000 OA
ATOM     22  N   UNL     1       1.457   8.471  19.682  0.00  0.00    +0.000 N 
ATOM     23  H   UNL     1       1.463   8.088  20.619  0.00  0.00    +0.000 HD
BRANCH  22  24
ATOM     24  C   UNL     1       0.741   9.715  19.590  0.00  0.00    +0.000 C 
ATOM     25  C   UNL     1       1.496  11.069  19.542  0.00  0.00    +0.000 C 
ATOM     26  C   UNL     1       0.533  12.137  18.930  0.00  0.00    +0.000 C 
ATOM     27  C   UNL     1      -0.961  11.841  19.228  0.00  0.00    +0.000 C 
ATOM     28  C   UNL     1      -1.015  11.144  20.574  0.00  0.00    +0.000 A 
ATOM     29  C   UNL     1      -1.435  11.805  21.727  0.00  0.00    +0.000 A 
ATOM     30  C   UNL     1      -1.148  11.257  22.979  0.00  0.00    +0.000 A 
ATOM     31  C   UNL     1      -0.555   9.996  23.089  0.00  0.00    +0.000 A 
ATOM     32  C   UNL     1      -0.150   9.310  21.950  0.00  0.00    +0.000 A 
ATOM     33  C   UNL     1      -0.273   9.937  20.704  0.00  0.00    +0.000 A 
BRANCH  27  34
ATOM     34  O   UNL     1      -1.526  10.970  18.239  0.00  0.00    +0.000 OA
ATOM     35  H   UNL     1      -1.268  11.291  17.358  0.00  0.00    +0.000 HD
ENDBRANCH  27  34
ENDBRANCH  22  24
ENDBRANCH  19  20
ENDBRANCH   7  19
TORSDOF 6
ENDMDL
MODEL 2
REMARK VINA RESULT:      -9.0      2.084      3.004
REMARK  Name = 
REMARK  7 active torsions:
REMARK  status: ('A' for Active; 'I' for Inactive)
REMARK    1  A    between atoms: C_1  and  C_2
REMARK    2  A    between atoms: C_5  and  S_6
REMARK    3  A    between atoms: S_6  and  N_9
REMARK    4  A    between atoms: C_15  and  C_16
REMARK    5  A    between atoms: C_16  and  C_17
REMARK    6  A    between atoms: N_19  and  C_20
REMARK    7  A    between atoms: C_23  and  O_24
REMARK                            x       y       z     vdW  Elec       q    Type
REMARK                         _______ _______ _______ _____ _____    ______ ____
ROOT
ATOM      1  N   UNL     1       4.707   4.860  17.828  0.00  0.00    +0.000 N 
ATOM      2  C   UNL     1       4.948   3.687  18.600  0.00  0.00    +0.000 C 
ATOM      3  C   UNL     1       3.872   2.977  18.983  0.00  0.00    +0.000 C 
ATOM      4  N   UNL     1       2.597   3.301  18.617  0.00  0.00    +0.000 N 
ATOM      5  C   UNL     1       2.249   4.416  17.870  0.00  0.00    +0.000 C 
ATOM      6  O   UNL     1       1.106   4.585  17.483  0.00  0.00    +0.000 OA
ATOM      7  C   UNL     1       3.374   5.455  17.734  0.00  0.00    +0.000 C 
ATOM      8  H   UNL     1       1.837   2.658  18.819  0.00  0.00    +0.000 HD
ENDROOT
BRANCH   1   9
ATOM      9  S   UNL     1       5.882   5.265  16.690  0.00  0.00    +0.000 S 
ATOM     10  O   UNL     1       5.243   5.846  15.534  0.00  0.00    +0.000 OA
ATOM     11  O   UNL     1       6.818   4.159  16.550  0.00  0.00    +0.000 OA
BRANCH   9  16
ATOM     12  C   UNL     1       9.273   9.743  19.022  0.00  0.00    +0.000 C 
ATOM     13  C   UNL     1       8.377   8.645  18.531  0.00  0.00    +0.000 A 
ATOM     14  C   UNL     1       8.490   7.340  19.027  0.00  0.00    +0.000 A 
ATOM     15  C   UNL     1       7.699   6.312  18.509  0.00  0.00    +0.000 A 
ATOM     16  C   UNL     1       6.783   6.590  17.491  0.00  0.00    +0.000 A 
ATOM     17  C   UNL     1       6.661   7.894  16.989  0.00  0.00    +0.000 A 
ATOM     18  C   UNL     1       7.453   8.915  17.513  0.00  0.00    +0.000 A 
ENDBRANCH   9  16
ENDBRANCH   1   9
BRANCH   7  19
ATOM     19  C   UNL     1       3.143   6.466  18.878  0.00  0.00    +0.000 C 
BRANCH  19  20
ATOM     20  C   UNL     1       2.459   7.730  18.424  0.00  0.00    +0.000 C 
ATOM     21  O   UNL     1       2.567   8.169  17.285  0.00  0.00    +0.000 OA
ATOM     22  N   UNL     1       1.737   8.309  19.431  0.00  0.00    +0.000 N 
ATOM     23  H   UNL     1       1.840   7.928  20.363  0.00  0.00    +0.000 HD
BRANCH  22  24
ATOM     24  C   UNL     1       0.942   9.507  19.401  0.00  0.00    +0.000 C 
ATOM     25  C   UNL     1       1.608  10.907  19.354  0.00  0.00    +0.000 C 
ATOM     26  C   UNL     1       0.554  11.926  18.811  0.00  0.00    +0.000 C 
ATOM     27  C   UNL     1      -0.904  11.529  19.167  0.00  0.00    +0.000 C 
ATOM     28  C   UNL     1      -0.853  10.800  20.496  0.00  0.00    +0.000 A 
ATOM     29  C   UNL     1      -1.261  11.408  21.683  0.00  0.00    +0.000 A 
ATOM     30  C   UNL     1      -0.884  10.852  22.907  0.00  0.00    +0.000 A 
ATOM     31  C   UNL     1      -0.209   9.629  22.959  0.00  0.00    +0.000 A 
ATOM     32  C   UNL     1       0.186   8.996  21.787  0.00  0.00    +0.000 A 
ATOM     33  C   UNL     1      -0.032   9.640  20.564  0.00  0.00    +0.000 A 
BRANCH  27  34
ATOM     34  O   UNL     1      -1.458  10.646  18.183  0.00  0.00    +0.000 OA
ATOM     35  H   UNL     1      -0.734  10.301  17.632  0.00  0.00    +0.000 HD
ENDBRANCH  27  34
ENDBRANCH  22  24
ENDBRANCH  19  20
ENDBRANCH   7  19
TORSDOF 6
ENDMDL
MODEL 3
REMARK VINA RESULT:      -8.8      2.946      8.588
REMARK  Name = 
REMARK  7 active torsions:
REMARK  status: ('A' for Active; 'I' for Inactive)
REMARK    1  A    between atoms: C_1  and  C_2
REMARK    2  A    between atoms: C_5  and  S_6
REMARK    3  A    between atoms: S_6  and  N_9
REMARK    4  A    between atoms: C_15  and  C_16
REMARK    5  A    between atoms: C_16  and  C_17
REMARK    6  A    between atoms: N_19  and  C_20
REMARK    7  A    between atoms: C_23  and  O_24
REMARK                            x       y       z     vdW  Elec       q    Type
REMARK                         _______ _______ _______ _____ _____    ______ ____
ROOT
ATOM      1  N   UNL     1      -0.135  10.556  21.039  0.00  0.00    +0.000 N 
ATOM      2  C   UNL     1      -1.207  10.631  21.975  0.00  0.00    +0.000 C 
ATOM      3  C   UNL     1      -0.965  10.177  23.218  0.00  0.00    +0.000 C 
ATOM      4  N   UNL     1       0.256   9.716  23.617  0.00  0.00    +0.000 N 
ATOM      5  C   UNL     1       1.366   9.600  22.794  0.00  0.00    +0.000 C 
ATOM      6  O   UNL     1       2.454   9.288  23.241  0.00  0.00    +0.000 OA
ATOM      7  C   UNL     1       1.049   9.736  21.295  0.00  0.00    +0.000 C 
ATOM      8  H   UNL     1       0.420   9.513  24.599  0.00  0.00    +0.000 HD
ENDROOT
BRANCH   1   9
ATOM      9  S   UNL     1      -0.072  11.768  19.871  0.00  0.00    +0.000 S 
ATOM     10  O   UNL     1       1.226  11.754  19.240  0.00  0.00    +0.000 OA
ATOM     11  O   UNL     1      -0.621  12.998  20.422  0.00  0.00    +0.000 OA
BRANCH   9  16
ATOM     12  C   UNL     1      -3.753  10.081  15.332  0.00  0.00    +0.000 C 
ATOM     13  C   UNL     1      -2.911  10.453  16.517  0.00  0.00    +0.000 A 
ATOM     14  C   UNL     1      -3.247  11.540  17.334  0.00  0.00    +0.000 A 
ATOM     15  C   UNL     1      -2.415  11.919  18.390  0.00  0.00    +0.000 A 
ATOM     16  C   UNL     1      -1.242  11.202  18.636  0.00  0.00    +0.000 A 
ATOM     17  C   UNL     1      -0.897  10.111  17.826  0.00  0.00    +0.000 A 
ATOM     18  C   UNL     1      -1.734   9.738  16.775  0.00  0.00    +0.000 A 
ENDBRANCH   9  16
ENDBRANCH   1   9
BRANCH   7  19
ATOM     19  C   UNL     1       0.838   8.294  20.785  0.00  0.00    +0.000 C 
BRANCH  19  20
ATOM     20  C   UNL     1       1.838   7.884  19.734  0.00  0.00    +0.000 C 
ATOM     21  O   UNL     1       2.104   8.583  18.764  0.00  0.00    +0.000 OA
ATOM     22  N   UNL     1       2.379   6.655  19.997  0.00  0.00    +0.000 N 
ATOM     23  H   UNL     1       1.976   6.116  20.753  0.00  0.00    +0.000 HD
BRANCH  22  24
ATOM     24  C   UNL     1       3.366   5.922  19.251  0.00  0.00    +0.000 C 
ATOM     25  C   UNL     1       3.687   6.289  17.778  0.00  0.00    +0.000 C 
ATOM     26  C   UNL     1       5.097   5.708  17.433  0.00  0.00    +0.000 C 
ATOM     27  C   UNL     1       5.428   4.420  18.233  0.00  0.00    +0.000 C 
ATOM     28  C   UNL     1       4.115   3.701  18.479  0.00  0.00    +0.000 A 
ATOM     29  C   UNL     1       3.756   2.561  17.762  0.00  0.00    +0.000 A 
ATOM     30  C   UNL     1       2.425   2.136  17.762  0.00  0.00    +0.000 A 
ATOM     31  C   UNL     1       1.475   2.766  18.570  0.00  0.00    +0.000 A 
ATOM     32  C   UNL     1       1.819   3.891  19.311  0.00  0.00    +0.000 A 
ATOM     33  C   UNL     1       3.105   4.424  19.172  0.00  0.00    +0.000 A 
BRANCH  27  34
ATOM     34  O   UNL     1       6.023   4.732  19.499  0.00  0.00    +0.000 OA
ATOM     35  H   UNL     1       6.057   3.921  20.035  0.00  0.00    +0.000 HD
ENDBRANCH  27  34
ENDBRANCH  22  24
ENDBRANCH  19  20
ENDBRANCH   7  19
TORSDOF 6
ENDMDL
MODEL 4
REMARK VINA RESULT:      -8.7      4.643      7.786
REMARK  Name = 
REMARK  7 active torsions:
REMARK  status: ('A' for Active; 'I' for Inactive)
REMARK    1  A    between atoms: C_1  and  C_2
REMARK    2  A    between atoms: C_5  and  S_6
REMARK    3  A    between atoms: S_6  and  N_9
REMARK    4  A    between atoms: C_15  and  C_16
REMARK    5  A    between atoms: C_16  and  C_17
REMARK    6  A    between atoms: N_19  and  C_20
REMARK    7  A    between atoms: C_23  and  O_24
REMARK                            x       y       z     vdW  Elec       q    Type
REMARK                         _______ _______ _______ _____ _____    ______ ____
ROOT
ATOM      1  N   UNL     1       4.876   5.514  17.546  0.00  0.00    +0.000 N 
ATOM      2  C   UNL     1       4.378   4.970  16.326  0.00  0.00    +0.000 C 
ATOM      3  C   UNL     1       5.278   4.426  15.488  0.00  0.00    +0.000 C 
ATOM      4  N   UNL     1       6.607   4.328  15.785  0.00  0.00    +0.000 N 
ATOM      5  C   UNL     1       7.198   4.821  16.938  0.00  0.00    +0.000 C 
ATOM      6  O   UNL     1       8.369   4.601  17.191  0.00  0.00    +0.000 OA
ATOM      7  C   UNL     1       6.301   5.778  17.741  0.00  0.00    +0.000 C 
ATOM      8  H   UNL     1       7.219   3.790  15.178  0.00  0.00    +0.000 HD
ENDROOT
BRANCH   1   9
ATOM      9  S   UNL     1       3.857   5.418  18.883  0.00  0.00    +0.000 S 
ATOM     10  O   UNL     1       4.651   5.406  20.087  0.00  0.00    +0.000 OA
ATOM     11  O   UNL     1       2.846   4.398  18.646  0.00  0.00    +0.000 OA
BRANCH   9  16
ATOM     12  C   UNL     1       0.526  10.502  18.670  0.00  0.00    +0.000 C 
ATOM     13  C   UNL     1       1.430   9.307  18.741  0.00  0.00    +0.000 A 
ATOM     14  C   UNL     1       2.248   8.951  17.661  0.00  0.00    +0.000 A 
ATOM     15  C   UNL     1       3.030   7.795  17.713  0.00  0.00    +0.000 A 
ATOM     16  C   UNL     1       3.000   6.992  18.855  0.00  0.00    +0.000 A 
ATOM     17  C   UNL     1       2.186   7.340  19.942  0.00  0.00    +0.000 A 
ATOM     18  C   UNL     1       1.409   8.497  19.883  0.00  0.00    +0.000 A 
ENDBRANCH   9  16
ENDBRANCH   1   9
BRANCH   7  19
ATOM     19  C   UNL     1       6.669   7.196  17.252  0.00  0.00    +0.000 C 
BRANCH  19  20
ATOM     20  C   UNL     1       7.797   7.819  18.034  0.00  0.00    +0.000 C 
ATOM     21  O   UNL     1       8.441   7.203  18.874  0.00  0.00    +0.000 OA
ATOM     22  N   UNL     1       7.986   9.132  17.697  0.00  0.00    +0.000 N 
ATOM     23  H   UNL     1       7.301   9.565  17.091  0.00  0.00    +0.000 HD
BRANCH  22  24
ATOM     24  C   UNL     1       8.958  10.064  18.201  0.00  0.00    +0.000 C 
ATOM     25  C   UNL     1       9.139  10.281  19.727  0.00  0.00    +0.000 C 
ATOM     26  C   UNL     1      10.552  10.907  19.960  0.00  0.00    +0.000 C 
ATOM     27  C   UNL     1      11.028  11.779  18.768  0.00  0.00    +0.000 C 
ATOM     28  C   UNL     1       9.788  12.388  18.141  0.00  0.00    +0.000 A 
ATOM     29  C   UNL     1       9.449  13.726  18.334  0.00  0.00    +0.000 A 
ATOM     30  C   UNL     1       8.153  14.158  18.044  0.00  0.00    +0.000 A 
ATOM     31  C   UNL     1       7.230  13.296  17.447  0.00  0.00    +0.000 A 
ATOM     32  C   UNL     1       7.556  11.963  17.225  0.00  0.00    +0.000 A 
ATOM     33  C   UNL     1       8.790  11.485  17.680  0.00  0.00    +0.000 A 
BRANCH  27  34
ATOM     34  O   UNL     1      11.698  10.987  17.779  0.00  0.00    +0.000 OA
ATOM     35  H   UNL     1      12.073  10.201  18.211  0.00  0.00    +0.000 HD
ENDBRANCH  27  34
ENDBRANCH  22  24
ENDBRANCH  19  20
ENDBRANCH   7  19
TORSDOF 6
ENDMDL
MODEL 5
REMARK VINA RESULT:      -8.6      1.192      2.063
REMARK  Name = 
REMARK  7 active torsions:
REMARK  status: ('A' for Active; 'I' for Inactive)
REMARK    1  A    between atoms: C_1  and  C_2
REMARK    2  A    between atoms: C_5  and  S_6
REMARK    3  A    between atoms: S_6  and  N_9
REMARK    4  A    between atoms: C_15  and  C_16
REMARK    5  A    between atoms: C_16  and  C_17
REMARK    6  A    between atoms: N_19  and  C_20
REMARK    7  A    between atoms: C_23  and  O_24
REMARK                            x       y       z     vdW  Elec       q    Type
REMARK                         _______ _______ _______ _____ _____    ______ ____
ROOT
ATOM      1  N   UNL     1       4.422   5.272  18.607  0.00  0.00    +0.000 N 
ATOM      2  C   UNL     1       4.650   4.065  19.330  0.00  0.00    +0.000 C 
ATOM      3  C   UNL     1       3.663   3.151  19.316  0.00  0.00    +0.000 C 
ATOM      4  N   UNL     1       2.508   3.312  18.606  0.00  0.00    +0.000 N 
ATOM      5  C   UNL     1       2.184   4.441  17.870  0.00  0.00    +0.000 C 
ATOM      6  O   UNL     1       1.189   4.474  17.169  0.00  0.00    +0.000 OA
ATOM      7  C   UNL     1       3.085   5.654  18.156  0.00  0.00    +0.000 C 
ATOM      8  H   UNL     1       1.857   2.537  18.522  0.00  0.00    +0.000 HD
ENDROOT
BRANCH   1   9
ATOM      9  S   UNL     1       5.775   5.995  17.909  0.00  0.00    +0.000 S 
ATOM     10  O   UNL     1       6.941   5.685  18.700  0.00  0.00    +0.000 OA
ATOM     11  O   UNL     1       5.456   7.370  17.555  0.00  0.00    +0.000 OA
BRANCH   9  16
ATOM     12  C   UNL     1       6.245   3.403  12.427  0.00  0.00    +0.000 C 
ATOM     13  C   UNL     1       6.155   3.951  13.820  0.00  0.00    +0.000 A 
ATOM     14  C   UNL     1       5.039   3.700  14.629  0.00  0.00    +0.000 A 
ATOM     15  C   UNL     1       4.936   4.276  15.897  0.00  0.00    +0.000 A 
ATOM     16  C   UNL     1       5.958   5.106  16.364  0.00  0.00    +0.000 A 
ATOM     17  C   UNL     1       7.081   5.363  15.563  0.00  0.00    +0.000 A 
ATOM     18  C   UNL     1       7.177   4.782  14.299  0.00  0.00    +0.000 A 
ENDBRANCH   9  16
ENDBRANCH   1   9
BRANCH   7  19
ATOM     19  C   UNL     1       2.350   6.466  19.246  0.00  0.00    +0.000 C 
BRANCH  19  20
ATOM     20  C   UNL     1       2.238   7.933  18.918  0.00  0.00    +0.000 C 
ATOM     21  O   UNL     1       2.812   8.446  17.965  0.00  0.00    +0.000 OA
ATOM     22  N   UNL     1       1.442   8.595  19.813  0.00  0.00    +0.000 N 
ATOM     23  H   UNL     1       1.138   8.090  20.636  0.00  0.00    +0.000 HD
BRANCH  22  24
ATOM     24  C   UNL     1       1.078   9.986  19.843  0.00  0.00    +0.000 C 
ATOM     25  C   UNL     1       0.305  10.583  21.049  0.00  0.00    +0.000 C 
ATOM     26  C   UNL     1       0.521  12.131  21.042  0.00  0.00    +0.000 C 
ATOM     27  C   UNL     1       0.733  12.702  19.615  0.00  0.00    +0.000 C 
ATOM     28  C   UNL     1      -0.064  11.829  18.664  0.00  0.00    +0.000 A 
ATOM     29  C   UNL     1      -1.271  12.256  18.112  0.00  0.00    +0.000 A 
ATOM     30  C   UNL     1      -2.134  11.322  17.535  0.00  0.00    +0.000 A 
ATOM     31  C   UNL     1      -1.750   9.986  17.394  0.00  0.00    +0.000 A 
ATOM     32  C   UNL     1      -0.540   9.545  17.917  0.00  0.00    +0.000 A 
ATOM     33  C   UNL     1       0.244  10.440  18.653  0.00  0.00    +0.000 A 
BRANCH  27  34
ATOM     34  O   UNL     1       2.114  12.650  19.233  0.00  0.00    +0.000 OA
ATOM     35  H   UNL     1       2.251  13.247  18.478  0.00  0.00    +0.000 HD
ENDBRANCH  27  34
ENDBRANCH  22  24
ENDBRANCH  19  20
ENDBRANCH   7  19
TORSDOF 6
ENDMDL
MODEL 6
REMARK VINA RESULT:      -8.5      3.438      8.601
REMARK  Name = 
REMARK  7 active torsions:
REMARK  status: ('A' for Active; 'I' for Inactive)
REMARK    1  A    between atoms: C_1  and  C_2
REMARK    2  A    between atoms: C_5  and  S_6
REMARK    3  A    between atoms: S_6  and  N_9
REMARK    4  A    between atoms: C_15  and  C_16
REMARK    5  A    between atoms: C_16  and  C_17
REMARK    6  A    between atoms: N_19  and  C_20
REMARK    7  A    between atoms: C_23  and  O_24
REMARK                            x       y       z     vdW  Elec       q    Type
REMARK                         _______ _______ _______ _____ _____    ______ ____
ROOT
ATOM      1  N   UNL     1       0.461  11.335  19.618  0.00  0.00    +0.000 N 
ATOM      2  C   UNL     1       1.281  12.447  19.266  0.00  0.00    +0.000 C 
ATOM      3  C   UNL     1       2.255  12.225  18.365  0.00  0.00    +0.000 C 
ATOM      4  N   UNL     1       2.441  11.020  17.752  0.00  0.00    +0.000 N 
ATOM      5  C   UNL     1       1.704   9.876  18.016  0.00  0.00    +0.000 C 
ATOM      6  O   UNL     1       1.847   8.865  17.352  0.00  0.00    +0.000 OA
ATOM      7  C   UNL     1       0.848   9.964  19.290  0.00  0.00    +0.000 C 
ATOM      8  H   UNL     1       3.102  10.943  16.984  0.00  0.00    +0.000 HD
ENDROOT
BRANCH   1   9
ATOM      9  S   UNL     1      -1.143  11.678  20.005  0.00  0.00    +0.000 S 
ATOM     10  O   UNL     1      -1.318  13.108  20.082  0.00  0.00    +0.000 OA
ATOM     11  O   UNL     1      -1.571  10.813  21.093  0.00  0.00    +0.000 OA
BRANCH   9  16
ATOM     12  C   UNL     1      -3.857  10.127  14.788  0.00  0.00    +0.000 C 
ATOM     13  C   UNL     1      -3.259  10.454  16.123  0.00  0.00    +0.000 A 
ATOM     14  C   UNL     1      -3.829  11.424  16.957  0.00  0.00    +0.000 A 
ATOM     15  C   UNL     1      -3.221  11.770  18.166  0.00  0.00    +0.000 A 
ATOM     16  C   UNL     1      -2.036  11.136  18.549  0.00  0.00    +0.000 A 
ATOM     17  C   UNL     1      -1.458  10.161  17.723  0.00  0.00    +0.000 A 
ATOM     18  C   UNL     1      -2.072   9.821  16.518  0.00  0.00    +0.000 A 
ENDBRANCH   9  16
ENDBRANCH   1   9
BRANCH   7  19
ATOM     19  C   UNL     1       1.716   9.356  20.413  0.00  0.00    +0.000 C 
BRANCH  19  20
ATOM     20  C   UNL     1       1.307   7.954  20.787  0.00  0.00    +0.000 C 
ATOM     21  O   UNL     1       0.439   7.716  21.618  0.00  0.00    +0.000 OA
ATOM     22  N   UNL     1       2.027   7.013  20.102  0.00  0.00    +0.000 N 
ATOM     23  H   UNL     1       2.811   7.333  19.548  0.00  0.00    +0.000 HD
BRANCH  22  24
ATOM     24  C   UNL     1       1.933   5.580  20.165  0.00  0.00    +0.000 C 
ATOM     25  C   UNL     1       2.703   4.775  21.245  0.00  0.00    +0.000 C 
ATOM     26  C   UNL     1       2.013   3.380  21.390  0.00  0.00    +0.000 C 
ATOM     27  C   UNL     1       1.352   2.896  20.072  0.00  0.00    +0.000 C 
ATOM     28  C   UNL     1       2.179   3.457  18.930  0.00  0.00    +0.000 A 
ATOM     29  C   UNL     1       3.054   2.658  18.196  0.00  0.00    +0.000 A 
ATOM     30  C   UNL     1       4.035   3.259  17.403  0.00  0.00    +0.000 A 
ATOM     31  C   UNL     1       4.071   4.646  17.240  0.00  0.00    +0.000 A 
ATOM     32  C   UNL     1       3.191   5.459  17.945  0.00  0.00    +0.000 A 
ATOM     33  C   UNL     1       2.328   4.871  18.876  0.00  0.00    +0.000 A 
BRANCH  27  34
ATOM     34  O   UNL     1       0.012   3.388  19.950  0.00  0.00    +0.000 OA
ATOM     35  H   UNL     1      -0.493   3.114  20.736  0.00  0.00    +0.000 HD
ENDBRANCH  27  34
ENDBRANCH  22  24
ENDBRANCH  19  20
ENDBRANCH   7  19
TORSDOF 6
ENDMDL
MODEL 7
REMARK VINA RESULT:      -8.4      3.163      9.521
REMARK  Name = 
REMARK  7 active torsions:
REMARK  status: ('A' for Active; 'I' for Inactive)
REMARK    1  A    between atoms: C_1  and  C_2
REMARK    2  A    between atoms: C_5  and  S_6
REMARK    3  A    between atoms: S_6  and  N_9
REMARK    4  A    between atoms: C_15  and  C_16
REMARK    5  A    between atoms: C_16  and  C_17
REMARK    6  A    between atoms: N_19  and  C_20
REMARK    7  A    between atoms: C_23  and  O_24
REMARK                            x       y       z     vdW  Elec       q    Type
REMARK                         _______ _______ _______ _____ _____    ______ ____
ROOT
ATOM      1  N   UNL     1       0.252  11.169  19.072  0.00  0.00    +0.000 N 
ATOM      2  C   UNL     1       1.000  12.360  18.838  0.00  0.00    +0.000 C 
ATOM      3  C   UNL     1       2.177  12.226  18.203  0.00  0.00    +0.000 C 
ATOM      4  N   UNL     1       2.639  11.030  17.736  0.00  0.00    +0.000 N 
ATOM      5  C   UNL     1       1.997   9.813  17.906  0.00  0.00    +0.000 C 
ATOM      6  O   UNL     1       2.407   8.801  17.367  0.00  0.00    +0.000 OA
ATOM      7  C   UNL     1       0.860   9.846  18.941  0.00  0.00    +0.000 C 
ATOM      8  H   UNL     1       3.467  11.006  17.147  0.00  0.00    +0.000 HD
ENDROOT
BRANCH   1   9
ATOM      9  S   UNL     1      -1.426  11.321  19.056  0.00  0.00    +0.000 S 
ATOM     10  O   UNL     1      -2.022  10.008  19.105  0.00  0.00    +0.000 OA
ATOM     11  O   UNL     1      -1.813  12.280  18.032  0.00  0.00    +0.000 OA
BRANCH   9  16
ATOM     12  C   UNL     1      -2.258  14.299  24.294  0.00  0.00    +0.000 C 
ATOM     13  C   UNL     1      -2.123  13.496  23.034  0.00  0.00    +0.000 A 
ATOM     14  C   UNL     1      -1.370  12.315  23.003  0.00  0.00    +0.000 A 
ATOM     15  C   UNL     1      -1.192  11.616  21.807  0.00  0.00    +0.000 A 
ATOM     16  C   UNL     1      -1.777  12.097  20.633  0.00  0.00    +0.000 A 
ATOM     17  C   UNL     1      -2.534  13.277  20.653  0.00  0.00    +0.000 A 
ATOM     18  C   UNL     1      -2.708  13.968  21.852  0.00  0.00    +0.000 A 
ENDBRANCH   9  16
ENDBRANCH   1   9
BRANCH   7  19
ATOM     19  C   UNL     1       1.502   9.403  20.273  0.00  0.00    +0.000 C 
BRANCH  19  20
ATOM     20  C   UNL     1       1.134   7.996  20.671  0.00  0.00    +0.000 C 
ATOM     21  O   UNL     1       0.242   7.746  21.474  0.00  0.00    +0.000 OA
ATOM     22  N   UNL     1       1.918   7.067  20.044  0.00  0.00    +0.000 N 
ATOM     23  H   UNL     1       2.711   7.403  19.512  0.00  0.00    +0.000 HD
BRANCH  22  24
ATOM     24  C   UNL     1       1.878   5.633  20.145  0.00  0.00    +0.000 C 
ATOM     25  C   UNL     1       2.675   4.888  21.248  0.00  0.00    +0.000 C 
ATOM     26  C   UNL     1       2.039   3.472  21.429  0.00  0.00    +0.000 C 
ATOM     27  C   UNL     1       1.400   2.928  20.123  0.00  0.00    +0.000 C 
ATOM     28  C   UNL     1       2.207   3.489  18.968  0.00  0.00    +0.000 A 
ATOM     29  C   UNL     1       3.114   2.704  18.257  0.00  0.00    +0.000 A 
ATOM     30  C   UNL     1       4.074   3.320  17.450  0.00  0.00    +0.000 A 
ATOM     31  C   UNL     1       4.057   4.703  17.249  0.00  0.00    +0.000 A 
ATOM     32  C   UNL     1       3.146   5.500  17.932  0.00  0.00    +0.000 A 
ATOM     33  C   UNL     1       2.303   4.905  18.877  0.00  0.00    +0.000 A 
BRANCH  27  34
ATOM     34  O   UNL     1       0.042   3.365  19.987  0.00  0.00    +0.000 OA
ATOM     35  H   UNL     1      -0.407   3.259  20.843  0.00  0.00    +0.000 HD
ENDBRANCH  27  34
ENDBRANCH  22  24
ENDBRANCH  19  20
ENDBRANCH   7  19
TORSDOF 6
ENDMDL
MODEL 8
REMARK VINA RESULT:      -8.4      2.091      2.808
REMARK  Name = 
REMARK  7 active torsions:
REMARK  status: ('A' for Active; 'I' for Inactive)
REMARK    1  A    between atoms: C_1  and  C_2
REMARK    2  A    between atoms: C_5  and  S_6
REMARK    3  A    between atoms: S_6  and  N_9
REMARK    4  A    between atoms: C_15  and  C_16
REMARK    5  A    between atoms: C_16  and  C_17
REMARK    6  A    between atoms: N_19  and  C_20
REMARK    7  A    between atoms: C_23  and  O_24
REMARK                            x       y       z     vdW  Elec       q    Type
REMARK                         _______ _______ _______ _____ _____    ______ ____
ROOT
ATOM      1  N   UNL     1       3.894   3.984  18.965  0.00  0.00    +0.000 N 
ATOM      2  C   UNL     1       4.446   3.020  19.859  0.00  0.00    +0.000 C 
ATOM      3  C   UNL     1       3.617   2.502  20.784  0.00  0.00    +0.000 C 
ATOM      4  N   UNL     1       2.291   2.816  20.855  0.00  0.00    +0.000 N 
ATOM      5  C   UNL     1       1.651   3.736  20.039  0.00  0.00    +0.000 C 
ATOM      6  O   UNL     1       0.444   3.885  20.081  0.00  0.00    +0.000 OA
ATOM      7  C   UNL     1       2.610   4.629  19.233  0.00  0.00    +0.000 C 
ATOM      8  H   UNL     1       1.685   2.296  21.483  0.00  0.00    +0.000 HD
ENDROOT
BRANCH   1   9
ATOM      9  S   UNL     1       4.533   4.015  17.407  0.00  0.00    +0.000 S 
ATOM     10  O   UNL     1       3.520   4.470  16.486  0.00  0.00    +0.000 OA
ATOM     11  O   UNL     1       5.266   2.781  17.162  0.00  0.00    +0.000 OA
BRANCH   9  16
ATOM     12  C   UNL     1       8.463   8.598  18.142  0.00  0.00    +0.000 C 
ATOM     13  C   UNL     1       7.542   7.445  17.873  0.00  0.00    +0.000 A 
ATOM     14  C   UNL     1       6.487   7.558  16.958  0.00  0.00    +0.000 A 
ATOM     15  C   UNL     1       5.594   6.500  16.771  0.00  0.00    +0.000 A 
ATOM     16  C   UNL     1       5.759   5.319  17.498  0.00  0.00    +0.000 A 
ATOM     17  C   UNL     1       6.814   5.195  18.414  0.00  0.00    +0.000 A 
ATOM     18  C   UNL     1       7.702   6.255  18.594  0.00  0.00    +0.000 A 
ENDBRANCH   9  16
ENDBRANCH   1   9
BRANCH   7  19
ATOM     19  C   UNL     1       2.802   5.902  20.086  0.00  0.00    +0.000 C 
BRANCH  19  20
ATOM     20  C   UNL     1       2.356   7.160  19.384  0.00  0.00    +0.000 C 
ATOM     21  O   UNL     1       2.725   7.454  18.253  0.00  0.00    +0.000 OA
ATOM     22  N   UNL     1       1.521   7.910  20.166  0.00  0.00    +0.000 N 
ATOM     23  H   UNL     1       1.403   7.630  21.131  0.00  0.00    +0.000 HD
BRANCH  22  24
ATOM     24  C   UNL     1       0.877   9.160  19.862  0.00  0.00    +0.000 C 
ATOM     25  C   UNL     1       1.706  10.456  19.659  0.00  0.00    +0.000 C 
ATOM     26  C   UNL     1       0.829  11.468  18.854  0.00  0.00    +0.000 C 
ATOM     27  C   UNL     1      -0.690  11.289  19.116  0.00  0.00    +0.000 C 
ATOM     28  C   UNL     1      -0.838  10.797  20.544  0.00  0.00    +0.000 A 
ATOM     29  C   UNL     1      -1.271  11.638  21.569  0.00  0.00    +0.000 A 
ATOM     30  C   UNL     1      -1.067  11.264  22.899  0.00  0.00    +0.000 A 
ATOM     31  C   UNL     1      -0.548  10.006  23.216  0.00  0.00    +0.000 A 
ATOM     32  C   UNL     1      -0.132   9.144  22.208  0.00  0.00    +0.000 A 
ATOM     33  C   UNL     1      -0.169   9.588  20.881  0.00  0.00    +0.000 A 
BRANCH  27  34
ATOM     34  O   UNL     1      -1.259  10.312  18.235  0.00  0.00    +0.000 OA
ATOM     35  H   UNL     1      -2.158  10.597  17.994  0.00  0.00    +0.000 HD
ENDBRANCH  27  34
ENDBRANCH  22  24
ENDBRANCH  19  20
ENDBRANCH   7  19
TORSDOF 6
ENDMDL
MODEL 9
REMARK VINA RESULT:      -8.4      4.953      7.947
REMARK  Name = 
REMARK  7 active torsions:
REMARK  status: ('A' for Active; 'I' for Inactive)
REMARK    1  A    between atoms: C_1  and  C_2
REMARK    2  A    between atoms: C_5  and  S_6
REMARK    3  A    between atoms: S_6  and  N_9
REMARK    4  A    between atoms: C_15  and  C_16
REMARK    5  A    between atoms: C_16  and  C_17
REMARK    6  A    between atoms: N_19  and  C_20
REMARK    7  A    between atoms: C_23  and  O_24
REMARK                            x       y       z     vdW  Elec       q    Type
REMARK                         _______ _______ _______ _____ _____    ______ ____
ROOT
ATOM      1  N   UNL     1       0.435  12.573  19.745  0.00  0.00    +0.000 N 
ATOM      2  C   UNL     1       0.900  12.947  18.450  0.00  0.00    +0.000 C 
ATOM      3  C   UNL     1       2.090  13.569  18.386  0.00  0.00    +0.000 C 
ATOM      4  N   UNL     1       2.872  13.795  19.482  0.00  0.00    +0.000 N 
ATOM      5  C   UNL     1       2.522  13.474  20.784  0.00  0.00    +0.000 C 
ATOM      6  O   UNL     1       3.313  13.600  21.701  0.00  0.00    +0.000 OA
ATOM      7  C   UNL     1       1.036  13.119  20.961  0.00  0.00    +0.000 C 
ATOM      8  H   UNL     1       3.818  14.146  19.360  0.00  0.00    +0.000 HD
ENDROOT
BRANCH   1   9
ATOM      9  S   UNL     1      -0.496  11.172  19.833  0.00  0.00    +0.000 S 
ATOM     10  O   UNL     1      -1.458  11.172  18.757  0.00  0.00    +0.000 OA
ATOM     11  O   UNL     1      -0.914  10.957  21.210  0.00  0.00    +0.000 OA
BRANCH   9  16
ATOM     12  C   UNL     1       3.120   6.503  18.376  0.00  0.00    +0.000 C 
ATOM     13  C   UNL     1       2.311   7.701  18.775  0.00  0.00    +0.000 A 
ATOM     14  C   UNL     1       1.893   7.887  20.099  0.00  0.00    +0.000 A 
ATOM     15  C   UNL     1       1.080   8.969  20.443  0.00  0.00    +0.000 A 
ATOM     16  C   UNL     1       0.685   9.876  19.457  0.00  0.00    +0.000 A 
ATOM     17  C   UNL     1       1.099   9.701  18.129  0.00  0.00    +0.000 A 
ATOM     18  C   UNL     1       1.913   8.619  17.794  0.00  0.00    +0.000 A 
ENDBRANCH   9  16
ENDBRANCH   1   9
BRANCH   7  19
ATOM     19  C   UNL     1       0.343  14.437  21.371  0.00  0.00    +0.000 C 
BRANCH  19  20
ATOM     20  C   UNL     1      -0.690  14.253  22.454  0.00  0.00    +0.000 C 
ATOM     21  O   UNL     1      -0.461  14.487  23.634  0.00  0.00    +0.000 OA
ATOM     22  N   UNL     1      -1.876  13.789  21.953  0.00  0.00    +0.000 N 
ATOM     23  H   UNL     1      -1.896  13.502  20.983  0.00  0.00    +0.000 HD
BRANCH  22  24
ATOM     24  C   UNL     1      -3.099  13.497  22.650  0.00  0.00    +0.000 C 
ATOM     25  C   UNL     1      -3.227  12.238  23.547  0.00  0.00    +0.000 C 
ATOM     26  C   UNL     1      -4.413  12.470  24.538  0.00  0.00    +0.000 C 
ATOM     27  C   UNL     1      -5.517  13.389  23.951  0.00  0.00    +0.000 C 
ATOM     28  C   UNL     1      -5.536  13.157  22.452  0.00  0.00    +0.000 A 
ATOM     29  C   UNL     1      -6.537  12.406  21.838  0.00  0.00    +0.000 A 
ATOM     30  C   UNL     1      -6.342  11.926  20.541  0.00  0.00    +0.000 A 
ATOM     31  C   UNL     1      -5.211  12.293  19.806  0.00  0.00    +0.000 A 
ATOM     32  C   UNL     1      -4.212  13.061  20.393  0.00  0.00    +0.000 A 
ATOM     33  C   UNL     1      -4.321  13.391  21.748  0.00  0.00    +0.000 A 
BRANCH  27  34
ATOM     34  O   UNL     1      -5.227  14.772  24.195  0.00  0.00    +0.000 OA
ATOM     35  H   UNL     1      -5.713  15.310  23.547  0.00  0.00    +0.000 HD
ENDBRANCH  27  34
ENDBRANCH  22  24
ENDBRANCH  19  20
ENDBRANCH   7  19
TORSDOF 6
ENDMDL
