MODEL 1
REMARK VINA RESULT:      -7.6      0.000      0.000
REMARK  Name = 
REMARK  4 active torsions:
REMARK  status: ('A' for Active; 'I' for Inactive)
REMARK    1  A    between atoms: C_2  and  C_3
REMARK    2  A    between atoms: C_3  and  N_4
REMARK    3  A    between atoms: C_16  and  N_17
REMARK    4  A    between atoms: C_21  and  C_22
REMARK                            x       y       z     vdW  Elec       q    Type
REMARK                         _______ _______ _______ _____ _____    ______ ____
ROOT
ATOM      1  N   UNL     1       5.793   4.003  13.599  0.00  0.00    +0.000 N 
ATOM      2  N   UNL     1       7.080   4.211  13.195  0.00  0.00    +0.000 NA
ATOM      3  C   UNL     1       7.617   4.921  14.194  0.00  0.00    +0.000 A 
ATOM      4  C   UNL     1       6.695   5.154  15.216  0.00  0.00    +0.000 A 
ATOM      5  C   UNL     1       6.723   5.868  16.448  0.00  0.00    +0.000 A 
ATOM      6  O   UNL     1       7.701   6.457  16.893  0.00  0.00    +0.000 OA
ATOM      7  N   UNL     1       5.509   5.832  17.100  0.00  0.00    +0.000 N 
ATOM      8  C   UNL     1       4.387   5.127  16.679  0.00  0.00    +0.000 A 
ATOM      9  N   UNL     1       3.326   5.151  17.568  0.00  0.00    +0.000 N 
ATOM     10  C   UNL     1       2.864   6.387  18.199  0.00  0.00    +0.000 C 
ATOM     11  C   UNL     1       2.562   6.127  19.673  0.00  0.00    +0.000 C 
ATOM     12  C   UNL     1       1.536   5.004  19.831  0.00  0.00    +0.000 C 
ATOM     13  C   UNL     1       1.969   3.714  19.107  0.00  0.00    +0.000 C 
ATOM     14  C   UNL     1       2.372   4.028  17.638  0.00  0.00    +0.000 C 
ATOM     15  N   UNL     1       4.368   4.457  15.552  0.00  0.00    +0.000 NA
ATOM     16  C   UNL     1       5.533   4.519  14.846  0.00  0.00    +0.000 A 
ATOM     17  H   UNL     1       5.506   6.264  18.006  0.00  0.00    +0.000 HD
ENDROOT
BRANCH  13  18
ATOM     18  N   UNL     1       2.970   2.976  19.878  0.00  0.00    +0.000 N 
ATOM     19  C   UNL     1       4.253   2.686  19.490  0.00  0.00    +0.000 A 
ATOM     20  C   UNL     1       4.822   2.011  20.537  0.00  0.00    +0.000 A 
ATOM     21  N   UNL     1       3.933   1.880  21.561  0.00  0.00    +0.000 NA
ATOM     22  C   UNL     1       2.821   2.465  21.156  0.00  0.00    +0.000 A 
ATOM     23  C   UNL     1       1.592   2.557  21.983  0.00  0.00    +0.000 C 
ENDBRANCH  13  18
BRANCH   1  24
ATOM     24  C   UNL     1       4.829   3.478  12.640  0.00  0.00    +0.000 C 
BRANCH  24  26
ATOM     25  C   UNL     1       5.859   1.541  11.422  0.00  0.00    +0.000 C 
ATOM     26  C   UNL     1       5.468   2.822  11.450  0.00  0.00    +0.000 C 
ENDBRANCH  24  26
ENDBRANCH   1  24
TORSDOF 3
ENDMDL
MODEL 2
REMARK VINA RESULT:      -7.3      3.312      7.305
REMARK  Name = 
REMARK  4 active torsions:
REMARK  status: ('A' for Active; 'I' for Inactive)
REMARK    1  A    between atoms: C_2  and  C_3
REMARK    2  A    between atoms: C_3  and  N_4
REMARK    3  A    between atoms: C_16  and  N_17
REMARK    4  A    between atoms: C_21  and  C_22
REMARK                            x       y       z     vdW  Elec       q    Type
REMARK                         _______ _______ _______ _____ _____    ______ ____
ROOT
ATOM      1  N   UNL     1       1.218   9.121  19.559  0.00  0.00    +0.000 N 
ATOM      2  N   UNL     1       0.569   9.160  20.760  0.00  0.00    +0.000 NA
ATOM      3  C   UNL     1       0.787   7.947  21.279  0.00  0.00    +0.000 A 
ATOM      4  C   UNL     1       1.566   7.155  20.433  0.00  0.00    +0.000 A 
ATOM      5  C   UNL     1       2.042   5.813  20.474  0.00  0.00    +0.000 A 
ATOM      6  O   UNL     1       1.846   5.028  21.394  0.00  0.00    +0.000 OA
ATOM      7  N   UNL     1       2.758   5.480  19.345  0.00  0.00    +0.000 N 
ATOM      8  C   UNL     1       3.071   6.344  18.302  0.00  0.00    +0.000 A 
ATOM      9  N   UNL     1       3.904   5.805  17.336  0.00  0.00    +0.000 N 
ATOM     10  C   UNL     1       3.675   4.479  16.762  0.00  0.00    +0.000 C 
ATOM     11  C   UNL     1       5.005   3.739  16.640  0.00  0.00    +0.000 C 
ATOM     12  C   UNL     1       6.004   4.542  15.806  0.00  0.00    +0.000 C 
ATOM     13  C   UNL     1       6.200   5.971  16.351  0.00  0.00    +0.000 C 
ATOM     14  C   UNL     1       4.823   6.662  16.565  0.00  0.00    +0.000 C 
ATOM     15  N   UNL     1       2.644   7.584  18.274  0.00  0.00    +0.000 NA
ATOM     16  C   UNL     1       1.879   7.935  19.346  0.00  0.00    +0.000 A 
ATOM     17  H   UNL     1       3.172   4.565  19.364  0.00  0.00    +0.000 HD
ENDROOT
BRANCH  13  18
ATOM     18  N   UNL     1       7.085   5.984  17.516  0.00  0.00    +0.000 N 
ATOM     19  C   UNL     1       7.453   4.905  18.279  0.00  0.00    +0.000 A 
ATOM     20  C   UNL     1       8.308   5.389  19.233  0.00  0.00    +0.000 A 
ATOM     21  N   UNL     1       8.483   6.732  19.081  0.00  0.00    +0.000 NA
ATOM     22  C   UNL     1       7.744   7.081  18.045  0.00  0.00    +0.000 A 
ATOM     23  C   UNL     1       7.656   8.470  17.529  0.00  0.00    +0.000 C 
ENDBRANCH  13  18
BRANCH   1  24
ATOM     24  C   UNL     1       0.983  10.190  18.597  0.00  0.00    +0.000 C 
BRANCH  24  26
ATOM     25  C   UNL     1      -1.339  10.114  17.652  0.00  0.00    +0.000 C 
ATOM     26  C   UNL     1      -0.453  10.620  18.519  0.00  0.00    +0.000 C 
ENDBRANCH  24  26
ENDBRANCH   1  24
TORSDOF 3
ENDMDL
MODEL 3
REMARK VINA RESULT:      -6.4      9.056     12.340
REMARK  Name = 
REMARK  4 active torsions:
REMARK  status: ('A' for Active; 'I' for Inactive)
REMARK    1  A    between atoms: C_2  and  C_3
REMARK    2  A    between atoms: C_3  and  N_4
REMARK    3  A    between atoms: C_16  and  N_17
REMARK    4  A    between atoms: C_21  and  C_22
REMARK                            x       y       z     vdW  Elec       q    Type
REMARK                         _______ _______ _______ _____ _____    ______ ____
ROOT
ATOM      1  N   UNL     1      -6.295  12.215  20.057  0.00  0.00    +0.000 N 
ATOM      2  N   UNL     1      -7.256  11.648  19.270  0.00  0.00    +0.000 NA
ATOM      3  C   UNL     1      -6.587  11.260  18.179  0.00  0.00    +0.000 A 
ATOM      4  C   UNL     1      -5.227  11.565  18.271  0.00  0.00    +0.000 A 
ATOM      5  C   UNL     1      -4.106  11.418  17.404  0.00  0.00    +0.000 A 
ATOM      6  O   UNL     1      -4.143  10.907  16.291  0.00  0.00    +0.000 OA
ATOM      7  N   UNL     1      -2.950  11.926  17.957  0.00  0.00    +0.000 N 
ATOM      8  C   UNL     1      -2.831  12.454  19.237  0.00  0.00    +0.000 A 
ATOM      9  N   UNL     1      -1.538  12.789  19.605  0.00  0.00    +0.000 N 
ATOM     10  C   UNL     1      -0.650  13.548  18.725  0.00  0.00    +0.000 C 
ATOM     11  C   UNL     1       0.752  12.943  18.769  0.00  0.00    +0.000 C 
ATOM     12  C   UNL     1       1.286  12.903  20.201  0.00  0.00    +0.000 C 
ATOM     13  C   UNL     1       0.325  12.174  21.160  0.00  0.00    +0.000 C 
ATOM     14  C   UNL     1      -1.116  12.740  21.017  0.00  0.00    +0.000 C 
ATOM     15  N   UNL     1      -3.862  12.574  20.040  0.00  0.00    +0.000 NA
ATOM     16  C   UNL     1      -5.038  12.139  19.505  0.00  0.00    +0.000 A 
ATOM     17  H   UNL     1      -2.122  11.779  17.408  0.00  0.00    +0.000 HD
ENDROOT
BRANCH  13  18
ATOM     18  N   UNL     1       0.434  10.720  21.026  0.00  0.00    +0.000 N 
ATOM     19  C   UNL     1       1.013  10.034  19.990  0.00  0.00    +0.000 A 
ATOM     20  C   UNL     1       0.907   8.706  20.308  0.00  0.00    +0.000 A 
ATOM     21  N   UNL     1       0.284   8.551  21.510  0.00  0.00    +0.000 NA
ATOM     22  C   UNL     1       0.004   9.769  21.935  0.00  0.00    +0.000 A 
ATOM     23  C   UNL     1      -0.674  10.054  23.225  0.00  0.00    +0.000 C 
ENDBRANCH  13  18
BRANCH   1  24
ATOM     24  C   UNL     1      -6.703  12.981  21.227  0.00  0.00    +0.000 C 
BRANCH  24  26
ATOM     25  C   UNL     1      -7.472  12.375  23.536  0.00  0.00    +0.000 C 
ATOM     26  C   UNL     1      -7.510  12.185  22.211  0.00  0.00    +0.000 C 
ENDBRANCH  24  26
ENDBRANCH   1  24
TORSDOF 3
ENDMDL
MODEL 4
REMARK VINA RESULT:      -6.3      9.067     10.983
REMARK  Name = 
REMARK  4 active torsions:
REMARK  status: ('A' for Active; 'I' for Inactive)
REMARK    1  A    between atoms: C_2  and  C_3
REMARK    2  A    between atoms: C_3  and  N_4
REMARK    3  A    between atoms: C_16  and  N_17
REMARK    4  A    between atoms: C_21  and  C_22
REMARK                            x       y       z     vdW  Elec       q    Type
REMARK                         _______ _______ _______ _____ _____    ______ ____
ROOT
ATOM      1  N   UNL     1       3.290  15.866  18.434  0.00  0.00    +0.000 N 
ATOM      2  N   UNL     1       3.314  17.200  18.721  0.00  0.00    +0.000 NA
ATOM      3  C   UNL     1       2.043  17.484  19.025  0.00  0.00    +0.000 A 
ATOM      4  C   UNL     1       1.228  16.353  18.944  0.00  0.00    +0.000 A 
ATOM      5  C   UNL     1      -0.165  16.108  19.116  0.00  0.00    +0.000 A 
ATOM      6  O   UNL     1      -0.992  16.955  19.433  0.00  0.00    +0.000 OA
ATOM      7  N   UNL     1      -0.495  14.790  18.881  0.00  0.00    +0.000 N 
ATOM      8  C   UNL     1       0.405  13.773  18.585  0.00  0.00    +0.000 A 
ATOM      9  N   UNL     1      -0.159  12.510  18.509  0.00  0.00    +0.000 N 
ATOM     10  C   UNL     1      -1.387  12.249  17.760  0.00  0.00    +0.000 C 
ATOM     11  C   UNL     1      -2.288  11.314  18.565  0.00  0.00    +0.000 C 
ATOM     12  C   UNL     1      -1.559  10.015  18.911  0.00  0.00    +0.000 C 
ATOM     13  C   UNL     1      -0.221  10.273  19.632  0.00  0.00    +0.000 C 
ATOM     14  C   UNL     1       0.629  11.309  18.842  0.00  0.00    +0.000 C 
ATOM     15  N   UNL     1       1.689  13.999  18.442  0.00  0.00    +0.000 NA
ATOM     16  C   UNL     1       2.048  15.304  18.608  0.00  0.00    +0.000 A 
ATOM     17  H   UNL     1      -1.456  14.559  19.059  0.00  0.00    +0.000 HD
ENDROOT
BRANCH  13  18
ATOM     18  N   UNL     1      -0.427  10.592  21.046  0.00  0.00    +0.000 N 
ATOM     19  C   UNL     1      -1.272  11.544  21.557  0.00  0.00    +0.000 A 
ATOM     20  C   UNL     1      -1.154  11.463  22.919  0.00  0.00    +0.000 A 
ATOM     21  N   UNL     1      -0.266  10.490  23.265  0.00  0.00    +0.000 NA
ATOM     22  C   UNL     1       0.166   9.970  22.131  0.00  0.00    +0.000 A 
ATOM     23  C   UNL     1       1.148   8.859  22.057  0.00  0.00    +0.000 C 
ENDBRANCH  13  18
BRANCH   1  24
ATOM     24  C   UNL     1       4.458  15.257  17.811  0.00  0.00    +0.000 C 
BRANCH  24  26
ATOM     25  C   UNL     1       6.938  15.275  18.190  0.00  0.00    +0.000 C 
ATOM     26  C   UNL     1       5.687  15.306  18.671  0.00  0.00    +0.000 C 
ENDBRANCH  24  26
ENDBRANCH   1  24
TORSDOF 3
ENDMDL
MODEL 5
REMARK VINA RESULT:      -6.3      4.220      7.523
REMARK  Name = 
REMARK  4 active torsions:
REMARK  status: ('A' for Active; 'I' for Inactive)
REMARK    1  A    between atoms: C_2  and  C_3
REMARK    2  A    between atoms: C_3  and  N_4
REMARK    3  A    between atoms: C_16  and  N_17
REMARK    4  A    between atoms: C_21  and  C_22
REMARK                            x       y       z     vdW  Elec       q    Type
REMARK                         _______ _______ _______ _____ _____    ______ ____
ROOT
ATOM      1  N   UNL     1       0.181  10.503  18.988  0.00  0.00    +0.000 N 
ATOM      2  N   UNL     1       0.165  11.625  19.766  0.00  0.00    +0.000 NA
ATOM      3  C   UNL     1       0.755  11.235  20.901  0.00  0.00    +0.000 A 
ATOM      4  C   UNL     1       1.148   9.897  20.845  0.00  0.00    +0.000 A 
ATOM      5  C   UNL     1       1.760   8.992  21.761  0.00  0.00    +0.000 A 
ATOM      6  O   UNL     1       2.117   9.281  22.897  0.00  0.00    +0.000 OA
ATOM      7  N   UNL     1       1.907   7.730  21.227  0.00  0.00    +0.000 N 
ATOM      8  C   UNL     1       1.584   7.360  19.926  0.00  0.00    +0.000 A 
ATOM      9  N   UNL     1       1.937   6.064  19.592  0.00  0.00    +0.000 N 
ATOM     10  C   UNL     1       1.643   4.927  20.463  0.00  0.00    +0.000 C 
ATOM     11  C   UNL     1       2.849   3.990  20.505  0.00  0.00    +0.000 C 
ATOM     12  C   UNL     1       3.233   3.529  19.099  0.00  0.00    +0.000 C 
ATOM     13  C   UNL     1       3.471   4.715  18.143  0.00  0.00    +0.000 C 
ATOM     14  C   UNL     1       2.273   5.706  18.201  0.00  0.00    +0.000 C 
ATOM     15  N   UNL     1       1.035   8.199  19.080  0.00  0.00    +0.000 NA
ATOM     16  C   UNL     1       0.816   9.444  19.591  0.00  0.00    +0.000 A 
ATOM     17  H   UNL     1       2.398   7.080  21.814  0.00  0.00    +0.000 HD
ENDROOT
BRANCH  13  18
ATOM     18  N   UNL     1       4.785   5.321  18.357  0.00  0.00    +0.000 N 
ATOM     19  C   UNL     1       5.607   5.136  19.439  0.00  0.00    +0.000 A 
ATOM     20  C   UNL     1       6.734   5.875  19.191  0.00  0.00    +0.000 A 
ATOM     21  N   UNL     1       6.634   6.507  17.988  0.00  0.00    +0.000 NA
ATOM     22  C   UNL     1       5.459   6.168  17.493  0.00  0.00    +0.000 A 
ATOM     23  C   UNL     1       4.954   6.636  16.178  0.00  0.00    +0.000 C 
ENDBRANCH  13  18
BRANCH   1  24
ATOM     24  C   UNL     1      -0.610  10.482  17.765  0.00  0.00    +0.000 C 
BRANCH  24  26
ATOM     25  C   UNL     1      -2.948   9.977  17.008  0.00  0.00    +0.000 C 
ATOM     26  C   UNL     1      -2.051  10.129  17.992  0.00  0.00    +0.000 C 
ENDBRANCH  24  26
ENDBRANCH   1  24
TORSDOF 3
ENDMDL
MODEL 6
REMARK VINA RESULT:      -6.2      0.623      1.235
REMARK  Name = 
REMARK  4 active torsions:
REMARK  status: ('A' for Active; 'I' for Inactive)
REMARK    1  A    between atoms: C_2  and  C_3
REMARK    2  A    between atoms: C_3  and  N_4
REMARK    3  A    between atoms: C_16  and  N_17
REMARK    4  A    between atoms: C_21  and  C_22
REMARK                            x       y       z     vdW  Elec       q    Type
REMARK                         _______ _______ _______ _____ _____    ______ ____
ROOT
ATOM      1  N   UNL     1       5.799   4.014  13.531  0.00  0.00    +0.000 N 
ATOM      2  N   UNL     1       7.075   4.284  13.131  0.00  0.00    +0.000 NA
ATOM      3  C   UNL     1       7.585   4.990  14.146  0.00  0.00    +0.000 A 
ATOM      4  C   UNL     1       6.658   5.158  15.176  0.00  0.00    +0.000 A 
ATOM      5  C   UNL     1       6.661   5.841  16.426  0.00  0.00    +0.000 A 
ATOM      6  O   UNL     1       7.615   6.457  16.885  0.00  0.00    +0.000 OA
ATOM      7  N   UNL     1       5.451   5.737  17.079  0.00  0.00    +0.000 N 
ATOM      8  C   UNL     1       4.358   4.999  16.643  0.00  0.00    +0.000 A 
ATOM      9  N   UNL     1       3.299   4.956  17.534  0.00  0.00    +0.000 N 
ATOM     10  C   UNL     1       2.789   6.155  18.197  0.00  0.00    +0.000 C 
ATOM     11  C   UNL     1       2.502   5.845  19.665  0.00  0.00    +0.000 C 
ATOM     12  C   UNL     1       1.523   4.677  19.796  0.00  0.00    +0.000 C 
ATOM     13  C   UNL     1       2.006   3.426  19.037  0.00  0.00    +0.000 C 
ATOM     14  C   UNL     1       2.392   3.794  17.576  0.00  0.00    +0.000 C 
ATOM     15  N   UNL     1       4.363   4.358  15.498  0.00  0.00    +0.000 NA
ATOM     16  C   UNL     1       5.522   4.486  14.792  0.00  0.00    +0.000 A 
ATOM     17  H   UNL     1       5.433   6.146  17.997  0.00  0.00    +0.000 HD
ENDROOT
BRANCH  13  18
ATOM     18  N   UNL     1       3.040   2.709  19.787  0.00  0.00    +0.000 N 
ATOM     19  C   UNL     1       3.247   2.751  21.142  0.00  0.00    +0.000 A 
ATOM     20  C   UNL     1       4.296   1.907  21.391  0.00  0.00    +0.000 A 
ATOM     21  N   UNL     1       4.740   1.342  20.233  0.00  0.00    +0.000 NA
ATOM     22  C   UNL     1       3.978   1.830  19.273  0.00  0.00    +0.000 A 
ATOM     23  C   UNL     1       4.120   1.461  17.842  0.00  0.00    +0.000 C 
ENDBRANCH  13  18
BRANCH   1  24
ATOM     24  C   UNL     1       4.855   3.474  12.561  0.00  0.00    +0.000 C 
BRANCH  24  26
ATOM     25  C   UNL     1       5.847   1.475  11.416  0.00  0.00    +0.000 C 
ATOM     26  C   UNL     1       5.516   2.773  11.410  0.00  0.00    +0.000 C 
ENDBRANCH  24  26
ENDBRANCH   1  24
TORSDOF 3
ENDMDL
MODEL 7
REMARK VINA RESULT:      -6.2      9.198     12.679
REMARK  Name = 
REMARK  4 active torsions:
REMARK  status: ('A' for Active; 'I' for Inactive)
REMARK    1  A    between atoms: C_2  and  C_3
REMARK    2  A    between atoms: C_3  and  N_4
REMARK    3  A    between atoms: C_16  and  N_17
REMARK    4  A    between atoms: C_21  and  C_22
REMARK                            x       y       z     vdW  Elec       q    Type
REMARK                         _______ _______ _______ _____ _____    ______ ____
ROOT
ATOM      1  N   UNL     1      -6.000  12.672  21.756  0.00  0.00    +0.000 N 
ATOM      2  N   UNL     1      -7.166  12.198  21.226  0.00  0.00    +0.000 NA
ATOM      3  C   UNL     1      -6.821  11.806  19.995  0.00  0.00    +0.000 A 
ATOM      4  C   UNL     1      -5.463  12.016  19.748  0.00  0.00    +0.000 A 
ATOM      5  C   UNL     1      -4.608  11.826  18.624  0.00  0.00    +0.000 A 
ATOM      6  O   UNL     1      -4.959  11.358  17.547  0.00  0.00    +0.000 OA
ATOM      7  N   UNL     1      -3.316  12.235  18.877  0.00  0.00    +0.000 N 
ATOM      8  C   UNL     1      -2.843  12.710  20.095  0.00  0.00    +0.000 A 
ATOM      9  N   UNL     1      -1.479  12.944  20.130  0.00  0.00    +0.000 N 
ATOM     10  C   UNL     1      -0.785  13.674  19.069  0.00  0.00    +0.000 C 
ATOM     11  C   UNL     1       0.535  12.976  18.748  0.00  0.00    +0.000 C 
ATOM     12  C   UNL     1       1.406  12.850  19.998  0.00  0.00    +0.000 C 
ATOM     13  C   UNL     1       0.664  12.152  21.156  0.00  0.00    +0.000 C 
ATOM     14  C   UNL     1      -0.722  12.818  21.390  0.00  0.00    +0.000 C 
ATOM     15  N   UNL     1      -3.629  12.869  21.133  0.00  0.00    +0.000 NA
ATOM     16  C   UNL     1      -4.930  12.532  20.904  0.00  0.00    +0.000 A 
ATOM     17  H   UNL     1      -2.665  12.054  18.134  0.00  0.00    +0.000 HD
ENDROOT
BRANCH  13  18
ATOM     18  N   UNL     1       0.630  10.700  20.972  0.00  0.00    +0.000 N 
ATOM     19  C   UNL     1       1.116   9.997  19.900  0.00  0.00    +0.000 A 
ATOM     20  C   UNL     1       0.889   8.675  20.179  0.00  0.00    +0.000 A 
ATOM     21  N   UNL     1       0.283   8.540  21.392  0.00  0.00    +0.000 NA
ATOM     22  C   UNL     1       0.131   9.764  21.862  0.00  0.00    +0.000 A 
ATOM     23  C   UNL     1      -0.485  10.069  23.178  0.00  0.00    +0.000 C 
ENDBRANCH  13  18
BRANCH   1  24
ATOM     24  C   UNL     1      -6.046  13.421  23.004  0.00  0.00    +0.000 C 
BRANCH  24  26
ATOM     25  C   UNL     1      -4.457  12.463  24.692  0.00  0.00    +0.000 C 
ATOM     26  C   UNL     1      -5.700  12.597  24.210  0.00  0.00    +0.000 C 
ENDBRANCH  24  26
ENDBRANCH   1  24
TORSDOF 3
ENDMDL
MODEL 8
REMARK VINA RESULT:      -6.2      8.916     12.080
REMARK  Name = 
REMARK  4 active torsions:
REMARK  status: ('A' for Active; 'I' for Inactive)
REMARK    1  A    between atoms: C_2  and  C_3
REMARK    2  A    between atoms: C_3  and  N_4
REMARK    3  A    between atoms: C_16  and  N_17
REMARK    4  A    between atoms: C_21  and  C_22
REMARK                            x       y       z     vdW  Elec       q    Type
REMARK                         _______ _______ _______ _____ _____    ______ ____
ROOT
ATOM      1  N   UNL     1      -6.069  11.941  19.905  0.00  0.00    +0.000 N 
ATOM      2  N   UNL     1      -6.997  11.421  19.050  0.00  0.00    +0.000 NA
ATOM      3  C   UNL     1      -6.301  11.171  17.936  0.00  0.00    +0.000 A 
ATOM      4  C   UNL     1      -4.956  11.516  18.080  0.00  0.00    +0.000 A 
ATOM      5  C   UNL     1      -3.819  11.500  17.221  0.00  0.00    +0.000 A 
ATOM      6  O   UNL     1      -3.823  11.103  16.062  0.00  0.00    +0.000 OA
ATOM      7  N   UNL     1      -2.691  11.992  17.840  0.00  0.00    +0.000 N 
ATOM      8  C   UNL     1      -2.608  12.392  19.169  0.00  0.00    +0.000 A 
ATOM      9  N   UNL     1      -1.334  12.736  19.588  0.00  0.00    +0.000 N 
ATOM     10  C   UNL     1      -0.465  13.614  18.805  0.00  0.00    +0.000 C 
ATOM     11  C   UNL     1       0.959  13.061  18.809  0.00  0.00    +0.000 C 
ATOM     12  C   UNL     1       1.477  12.896  20.238  0.00  0.00    +0.000 C 
ATOM     13  C   UNL     1       0.534  12.037  21.104  0.00  0.00    +0.000 C 
ATOM     14  C   UNL     1      -0.927  12.561  20.995  0.00  0.00    +0.000 C 
ATOM     15  N   UNL     1      -3.652  12.391  19.963  0.00  0.00    +0.000 NA
ATOM     16  C   UNL     1      -4.804  11.968  19.369  0.00  0.00    +0.000 A 
ATOM     17  H   UNL     1      -1.851  11.933  17.292  0.00  0.00    +0.000 HD
ENDROOT
BRANCH  13  18
ATOM     18  N   UNL     1       0.701  10.610  20.825  0.00  0.00    +0.000 N 
ATOM     19  C   UNL     1       1.162  10.050  19.661  0.00  0.00    +0.000 A 
ATOM     20  C   UNL     1       1.174   8.697  19.870  0.00  0.00    +0.000 A 
ATOM     21  N   UNL     1       0.740   8.404  21.128  0.00  0.00    +0.000 NA
ATOM     22  C   UNL     1       0.458   9.561  21.696  0.00  0.00    +0.000 A 
ATOM     23  C   UNL     1      -0.041   9.695  23.088  0.00  0.00    +0.000 C 
ENDBRANCH  13  18
BRANCH   1  24
ATOM     24  C   UNL     1      -6.521  12.569  21.139  0.00  0.00    +0.000 C 
BRANCH  24  26
ATOM     25  C   UNL     1      -6.840  14.769  19.976  0.00  0.00    +0.000 C 
ATOM     26  C   UNL     1      -7.197  13.892  20.924  0.00  0.00    +0.000 C 
ENDBRANCH  24  26
ENDBRANCH   1  24
TORSDOF 3
ENDMDL
MODEL 9
REMARK VINA RESULT:      -6.2      0.936      1.409
REMARK  Name = 
REMARK  4 active torsions:
REMARK  status: ('A' for Active; 'I' for Inactive)
REMARK    1  A    between atoms: C_2  and  C_3
REMARK    2  A    between atoms: C_3  and  N_4
REMARK    3  A    between atoms: C_16  and  N_17
REMARK    4  A    between atoms: C_21  and  C_22
REMARK                            x       y       z     vdW  Elec       q    Type
REMARK                         _______ _______ _______ _____ _____    ______ ____
ROOT
ATOM      1  N   UNL     1       6.075   4.437  14.393  0.00  0.00    +0.000 N 
ATOM      2  N   UNL     1       7.423   4.547  14.204  0.00  0.00    +0.000 NA
ATOM      3  C   UNL     1       7.853   5.145  15.320  0.00  0.00    +0.000 A 
ATOM      4  C   UNL     1       6.805   5.402  16.206  0.00  0.00    +0.000 A 
ATOM      5  C   UNL     1       6.700   6.038  17.477  0.00  0.00    +0.000 A 
ATOM      6  O   UNL     1       7.641   6.506  18.106  0.00  0.00    +0.000 OA
ATOM      7  N   UNL     1       5.400   6.076  17.934  0.00  0.00    +0.000 N 
ATOM      8  C   UNL     1       4.303   5.504  17.300  0.00  0.00    +0.000 A 
ATOM      9  N   UNL     1       3.122   5.574  18.018  0.00  0.00    +0.000 N 
ATOM     10  C   UNL     1       2.671   6.809  18.659  0.00  0.00    +0.000 C 
ATOM     11  C   UNL     1       2.121   6.493  20.049  0.00  0.00    +0.000 C 
ATOM     12  C   UNL     1       0.994   5.462  19.970  0.00  0.00    +0.000 C 
ATOM     13  C   UNL     1       1.427   4.183  19.228  0.00  0.00    +0.000 C 
ATOM     14  C   UNL     1       2.079   4.543  17.862  0.00  0.00    +0.000 C 
ATOM     15  N   UNL     1       4.405   4.906  16.137  0.00  0.00    +0.000 NA
ATOM     16  C   UNL     1       5.668   4.901  15.621  0.00  0.00    +0.000 A 
ATOM     17  H   UNL     1       5.291   6.453  18.859  0.00  0.00    +0.000 HD
ENDROOT
BRANCH  13  18
ATOM     18  N   UNL     1       2.231   3.311  20.086  0.00  0.00    +0.000 N 
ATOM     19  C   UNL     1       2.210   3.264  21.456  0.00  0.00    +0.000 A 
ATOM     20  C   UNL     1       3.100   2.287  21.815  0.00  0.00    +0.000 A 
ATOM     21  N   UNL     1       3.666   1.726  20.710  0.00  0.00    +0.000 NA
ATOM     22  C   UNL     1       3.136   2.348  19.673  0.00  0.00    +0.000 A 
ATOM     23  C   UNL     1       3.475   2.031  18.263  0.00  0.00    +0.000 C 
ENDBRANCH  13  18
BRANCH   1  24
ATOM     24  C   UNL     1       5.234   4.060  13.265  0.00  0.00    +0.000 C 
BRANCH  24  26
ATOM     25  C   UNL     1       5.560   2.252  11.556  0.00  0.00    +0.000 C 
ATOM     26  C   UNL     1       5.984   3.368  12.165  0.00  0.00    +0.000 C 
ENDBRANCH  24  26
ENDBRANCH   1  24
TORSDOF 3
ENDMDL
