MODEL 1
REMARK VINA RESULT:      -7.8      0.000      0.000
REMARK  Name = 
REMARK  8 active torsions:
REMARK  status: ('A' for Active; 'I' for Inactive)
REMARK    1  A    between atoms: C_1  and  N_2
REMARK    2  A    between atoms: C_5  and  N_6
REMARK    3  A    between atoms: C_7  and  C_9
REMARK    4  A    between atoms: C_11  and  C_12
REMARK    5  A    between atoms: C_21  and  N_22
REMARK    6  A    between atoms: C_23  and  C_24
REMARK    7  A    between atoms: C_27  and  C_28
REMARK    8  A    between atoms: C_28  and  N_29
REMARK                            x       y       z     vdW  Elec       q    Type
REMARK                         _______ _______ _______ _____ _____    ______ ____
ROOT
ATOM      1  N   UNL     1       0.286  10.115  20.747  0.00  0.00    +0.000 N 
ATOM      2  C   UNL     1       1.234   9.157  21.062  0.00  0.00    +0.000 C 
ATOM      3  O   UNL     1       1.671   8.948  22.192  0.00  0.00    +0.000 OA
ATOM      4  H   UNL     1       0.016  10.156  19.771  0.00  0.00    +0.000 HD
ENDROOT
BRANCH   1   9
ATOM      5  C   UNL     1      -0.956  14.159  23.283  0.00  0.00    +0.000 C 
ATOM      6  N   UNL     1      -0.841  12.811  22.774  0.00  0.00    +0.000 N 
ATOM      7  N   UNL     1      -1.472  11.821  23.437  0.00  0.00    +0.000 NA
ATOM      8  C   UNL     1      -1.128  10.720  22.769  0.00  0.00    +0.000 A 
ATOM      9  C   UNL     1      -0.290  10.988  21.664  0.00  0.00    +0.000 A 
ATOM     10  C   UNL     1      -0.131  12.368  21.682  0.00  0.00    +0.000 A 
BRANCH  10  11
ATOM     11  C   UNL     1       0.655  13.243  20.792  0.00  0.00    +0.000 C 
ATOM     12  O   UNL     1       2.027  13.198  21.146  0.00  0.00    +0.000 OA
ATOM     13  C   UNL     1       2.724  14.220  20.427  0.00  0.00    +0.000 C 
ATOM     14  C   UNL     1       2.502  14.115  18.909  0.00  0.00    +0.000 C 
ATOM     15  C   UNL     1       1.036  13.790  18.582  0.00  0.00    +0.000 C 
ATOM     16  O   UNL     1       0.501  12.800  19.453  0.00  0.00    +0.000 OA
BRANCH  14  17
ATOM     17  C   UNL     1       2.896  15.400  18.160  0.00  0.00    +0.000 C 
BRANCH  17  18
ATOM     18  N   UNL     1       4.040  15.269  17.272  0.00  0.00    +0.000 NA
ATOM     19  H   UNL     1       4.136  14.308  16.949  0.00  0.00    +0.000 HD
ATOM     20  H   UNL     1       4.909  15.515  17.739  0.00  0.00    +0.000 HD
ENDBRANCH  17  18
ENDBRANCH  14  17
ENDBRANCH  10  11
ENDBRANCH   1   9
BRANCH   2  21
ATOM     21  C   UNL     1       1.675   8.366  19.895  0.00  0.00    +0.000 A 
ATOM     22  N   UNL     1       1.984   6.995  20.000  0.00  0.00    +0.000 NA
ATOM     23  C   UNL     1       2.395   6.530  18.830  0.00  0.00    +0.000 A 
ATOM     24  S   UNL     1       2.318   7.667  17.540  0.00  0.00    +0.000 S 
ATOM     25  C   UNL     1       1.861   8.900  18.624  0.00  0.00    +0.000 A 
BRANCH  23  26
ATOM     26  C   UNL     1       2.883   5.167  18.574  0.00  0.00    +0.000 A 
ATOM     27  C   UNL     1       2.112   4.256  17.846  0.00  0.00    +0.000 A 
ATOM     28  F   UNL     1       0.936   4.626  17.316  0.00  0.00    +0.000 F 
ATOM     29  C   UNL     1       2.537   2.939  17.633  0.00  0.00    +0.000 A 
ATOM     30  C   UNL     1       3.753   2.502  18.148  0.00  0.00    +0.000 A 
ATOM     31  C   UNL     1       4.547   3.391  18.866  0.00  0.00    +0.000 A 
ATOM     32  C   UNL     1       4.111   4.702  19.072  0.00  0.00    +0.000 A 
ATOM     33  F   UNL     1       4.909   5.501  19.797  0.00  0.00    +0.000 F 
ENDBRANCH  23  26
BRANCH  25  34
ATOM     34  N   UNL     1       1.727  10.173  18.192  0.00  0.00    +0.000 N 
ATOM     35  H   UNL     1       1.967  10.943  18.809  0.00  0.00    +0.000 HD
ATOM     36  H   UNL     1       1.004  10.393  17.504  0.00  0.00    +0.000 HD
ENDBRANCH  25  34
ENDBRANCH   2  21
TORSDOF 7
ENDMDL
MODEL 2
REMARK VINA RESULT:      -7.7      1.026      1.032
REMARK  Name = 
REMARK  8 active torsions:
REMARK  status: ('A' for Active; 'I' for Inactive)
REMARK    1  A    between atoms: C_1  and  N_2
REMARK    2  A    between atoms: C_5  and  N_6
REMARK    3  A    between atoms: C_7  and  C_9
REMARK    4  A    between atoms: C_11  and  C_12
REMARK    5  A    between atoms: C_21  and  N_22
REMARK    6  A    between atoms: C_23  and  C_24
REMARK    7  A    between atoms: C_27  and  C_28
REMARK    8  A    between atoms: C_28  and  N_29
REMARK                            x       y       z     vdW  Elec       q    Type
REMARK                         _______ _______ _______ _____ _____    ______ ____
ROOT
ATOM      1  N   UNL     1       0.007  10.308  21.172  0.00  0.00    +0.000 N 
ATOM      2  C   UNL     1       1.055   9.502  21.580  0.00  0.00    +0.000 C 
ATOM      3  O   UNL     1       1.584   9.547  22.690  0.00  0.00    +0.000 OA
ATOM      4  H   UNL     1      -0.330  10.141  20.231  0.00  0.00    +0.000 HD
ENDROOT
BRANCH   1   9
ATOM      5  C   UNL     1      -1.107  14.625  23.282  0.00  0.00    +0.000 C 
ATOM      6  N   UNL     1      -1.070  13.238  22.875  0.00  0.00    +0.000 N 
ATOM      7  N   UNL     1      -1.872  12.363  23.514  0.00  0.00    +0.000 NA
ATOM      8  C   UNL     1      -1.566  11.189  22.962  0.00  0.00    +0.000 A 
ATOM      9  C   UNL     1      -0.581  11.296  21.955  0.00  0.00    +0.000 A 
ATOM     10  C   UNL     1      -0.286  12.653  21.908  0.00  0.00    +0.000 A 
BRANCH  10  11
ATOM     11  C   UNL     1       0.684  13.384  21.070  0.00  0.00    +0.000 C 
ATOM     12  O   UNL     1       2.009  13.046  21.446  0.00  0.00    +0.000 OA
ATOM     13  C   UNL     1       2.917  13.932  20.783  0.00  0.00    +0.000 C 
ATOM     14  C   UNL     1       2.716  13.934  19.259  0.00  0.00    +0.000 C 
ATOM     15  C   UNL     1       1.223  13.927  18.893  0.00  0.00    +0.000 C 
ATOM     16  O   UNL     1       0.477  13.034  19.711  0.00  0.00    +0.000 OA
BRANCH  14  17
ATOM     17  C   UNL     1       3.382  15.139  18.573  0.00  0.00    +0.000 C 
BRANCH  17  18
ATOM     18  N   UNL     1       4.009  14.851  17.293  0.00  0.00    +0.000 NA
ATOM     19  H   UNL     1       4.980  14.575  17.423  0.00  0.00    +0.000 HD
ATOM     20  H   UNL     1       4.009  15.665  16.683  0.00  0.00    +0.000 HD
ENDBRANCH  17  18
ENDBRANCH  14  17
ENDBRANCH  10  11
ENDBRANCH   1   9
BRANCH   2  21
ATOM     21  C   UNL     1       1.485   8.536  20.548  0.00  0.00    +0.000 A 
ATOM     22  N   UNL     1       1.757   7.189  20.858  0.00  0.00    +0.000 NA
ATOM     23  C   UNL     1       2.166   6.546  19.774  0.00  0.00    +0.000 A 
ATOM     24  S   UNL     1       2.130   7.481  18.330  0.00  0.00    +0.000 S 
ATOM     25  C   UNL     1       1.696   8.872  19.215  0.00  0.00    +0.000 A 
BRANCH  23  26
ATOM     26  C   UNL     1       2.620   5.148  19.728  0.00  0.00    +0.000 A 
ATOM     27  C   UNL     1       1.739   4.100  20.009  0.00  0.00    +0.000 A 
ATOM     28  F   UNL     1       0.446   4.346  20.268  0.00  0.00    +0.000 F 
ATOM     29  C   UNL     1       2.163   2.766  20.017  0.00  0.00    +0.000 A 
ATOM     30  C   UNL     1       3.490   2.450  19.743  0.00  0.00    +0.000 A 
ATOM     31  C   UNL     1       4.386   3.472  19.448  0.00  0.00    +0.000 A 
ATOM     32  C   UNL     1       3.950   4.799  19.443  0.00  0.00    +0.000 A 
ATOM     33  F   UNL     1       4.870   5.739  19.180  0.00  0.00    +0.000 F 
ENDBRANCH  23  26
BRANCH  25  34
ATOM     34  N   UNL     1       1.598  10.070  18.598  0.00  0.00    +0.000 N 
ATOM     35  H   UNL     1       2.441  10.556  18.305  0.00  0.00    +0.000 HD
ATOM     36  H   UNL     1       0.812  10.684  18.820  0.00  0.00    +0.000 HD
ENDBRANCH  25  34
ENDBRANCH   2  21
TORSDOF 7
ENDMDL
MODEL 3
REMARK VINA RESULT:      -7.6      1.015      1.649
REMARK  Name = 
REMARK  8 active torsions:
REMARK  status: ('A' for Active; 'I' for Inactive)
REMARK    1  A    between atoms: C_1  and  N_2
REMARK    2  A    between atoms: C_5  and  N_6
REMARK    3  A    between atoms: C_7  and  C_9
REMARK    4  A    between atoms: C_11  and  C_12
REMARK    5  A    between atoms: C_21  and  N_22
REMARK    6  A    between atoms: C_23  and  C_24
REMARK    7  A    between atoms: C_27  and  C_28
REMARK    8  A    between atoms: C_28  and  N_29
REMARK                            x       y       z     vdW  Elec       q    Type
REMARK                         _______ _______ _______ _____ _____    ______ ____
ROOT
ATOM      1  N   UNL     1       0.180  10.152  21.106  0.00  0.00    +0.000 N 
ATOM      2  C   UNL     1       1.208   9.322  21.520  0.00  0.00    +0.000 C 
ATOM      3  O   UNL     1       1.747   9.370  22.625  0.00  0.00    +0.000 OA
ATOM      4  H   UNL     1      -0.169   9.978  20.170  0.00  0.00    +0.000 HD
ENDROOT
BRANCH   1   9
ATOM      5  C   UNL     1      -0.885  14.554  23.059  0.00  0.00    +0.000 C 
ATOM      6  N   UNL     1      -0.843  13.148  22.725  0.00  0.00    +0.000 N 
ATOM      7  N   UNL     1      -1.574  12.293  23.468  0.00  0.00    +0.000 NA
ATOM      8  C   UNL     1      -1.279  11.096  22.959  0.00  0.00    +0.000 A 
ATOM      9  C   UNL     1      -0.374  11.168  21.877  0.00  0.00    +0.000 A 
ATOM     10  C   UNL     1      -0.117  12.527  21.735  0.00  0.00    +0.000 A 
BRANCH  10  11
ATOM     11  C   UNL     1       0.770  13.230  20.789  0.00  0.00    +0.000 C 
ATOM     12  O   UNL     1       2.116  13.154  21.230  0.00  0.00    +0.000 OA
ATOM     13  C   UNL     1       2.915  14.030  20.428  0.00  0.00    +0.000 C 
ATOM     14  C   UNL     1       2.766  13.738  18.926  0.00  0.00    +0.000 C 
ATOM     15  C   UNL     1       1.301  13.458  18.555  0.00  0.00    +0.000 C 
ATOM     16  O   UNL     1       0.658  12.624  19.511  0.00  0.00    +0.000 OA
BRANCH  14  17
ATOM     17  C   UNL     1       3.281  14.888  18.044  0.00  0.00    +0.000 C 
BRANCH  17  18
ATOM     18  N   UNL     1       2.544  16.137  18.166  0.00  0.00    +0.000 NA
ATOM     19  H   UNL     1       2.928  16.842  17.540  0.00  0.00    +0.000 HD
ATOM     20  H   UNL     1       2.596  16.513  19.109  0.00  0.00    +0.000 HD
ENDBRANCH  17  18
ENDBRANCH  14  17
ENDBRANCH  10  11
ENDBRANCH   1   9
BRANCH   2  21
ATOM     21  C   UNL     1       1.603   8.328  20.501  0.00  0.00    +0.000 A 
ATOM     22  N   UNL     1       1.855   6.982  20.834  0.00  0.00    +0.000 NA
ATOM     23  C   UNL     1       2.233   6.309  19.758  0.00  0.00    +0.000 A 
ATOM     24  S   UNL     1       2.190   7.216  18.295  0.00  0.00    +0.000 S 
ATOM     25  C   UNL     1       1.797   8.632  19.159  0.00  0.00    +0.000 A 
BRANCH  23  26
ATOM     26  C   UNL     1       2.660   4.903  19.733  0.00  0.00    +0.000 A 
ATOM     27  C   UNL     1       3.999   4.565  19.518  0.00  0.00    +0.000 A 
ATOM     28  F   UNL     1       4.932   5.521  19.388  0.00  0.00    +0.000 F 
ATOM     29  C   UNL     1       4.418   3.231  19.444  0.00  0.00    +0.000 A 
ATOM     30  C   UNL     1       3.497   2.198  19.585  0.00  0.00    +0.000 A 
ATOM     31  C   UNL     1       2.159   2.505  19.812  0.00  0.00    +0.000 A 
ATOM     32  C   UNL     1       1.755   3.840  19.883  0.00  0.00    +0.000 A 
ATOM     33  F   UNL     1       0.447   4.069  20.076  0.00  0.00    +0.000 F 
ENDBRANCH  23  26
BRANCH  25  34
ATOM     34  N   UNL     1       1.711   9.819  18.519  0.00  0.00    +0.000 N 
ATOM     35  H   UNL     1       1.316   9.860  17.584  0.00  0.00    +0.000 HD
ATOM     36  H   UNL     1       2.404  10.544  18.716  0.00  0.00    +0.000 HD
ENDBRANCH  25  34
ENDBRANCH   2  21
TORSDOF 7
ENDMDL
MODEL 4
REMARK VINA RESULT:      -7.3      3.718      9.103
REMARK  Name = 
REMARK  8 active torsions:
REMARK  status: ('A' for Active; 'I' for Inactive)
REMARK    1  A    between atoms: C_1  and  N_2
REMARK    2  A    between atoms: C_5  and  N_6
REMARK    3  A    between atoms: C_7  and  C_9
REMARK    4  A    between atoms: C_11  and  C_12
REMARK    5  A    between atoms: C_21  and  N_22
REMARK    6  A    between atoms: C_23  and  C_24
REMARK    7  A    between atoms: C_27  and  C_28
REMARK    8  A    between atoms: C_28  and  N_29
REMARK                            x       y       z     vdW  Elec       q    Type
REMARK                         _______ _______ _______ _____ _____    ______ ____
ROOT
ATOM      1  N   UNL     1       3.381   7.985  18.063  0.00  0.00    +0.000 N 
ATOM      2  C   UNL     1       2.015   8.203  18.020  0.00  0.00    +0.000 C 
ATOM      3  O   UNL     1       1.227   7.583  17.309  0.00  0.00    +0.000 OA
ATOM      4  H   UNL     1       3.896   8.568  18.712  0.00  0.00    +0.000 HD
ENDROOT
BRANCH   1   9
ATOM      5  C   UNL     1       5.260   3.763  16.337  0.00  0.00    +0.000 C 
ATOM      6  N   UNL     1       4.872   5.142  16.531  0.00  0.00    +0.000 N 
ATOM      7  N   UNL     1       5.380   6.073  15.698  0.00  0.00    +0.000 NA
ATOM      8  C   UNL     1       4.891   7.221  16.167  0.00  0.00    +0.000 A 
ATOM      9  C   UNL     1       4.054   7.043  17.291  0.00  0.00    +0.000 A 
ATOM     10  C   UNL     1       4.047   5.669  17.498  0.00  0.00    +0.000 A 
BRANCH  10  11
ATOM     11  C   UNL     1       3.371   4.871  18.538  0.00  0.00    +0.000 C 
ATOM     12  O   UNL     1       3.109   5.672  19.678  0.00  0.00    +0.000 OA
ATOM     13  C   UNL     1       2.668   4.827  20.746  0.00  0.00    +0.000 C 
ATOM     14  C   UNL     1       1.465   3.961  20.342  0.00  0.00    +0.000 C 
ATOM     15  C   UNL     1       1.633   3.401  18.920  0.00  0.00    +0.000 C 
ATOM     16  O   UNL     1       2.147   4.375  18.020  0.00  0.00    +0.000 OA
BRANCH  14  17
ATOM     17  C   UNL     1       1.228   2.785  21.305  0.00  0.00    +0.000 C 
BRANCH  17  18
ATOM     18  N   UNL     1       2.359   2.448  22.155  0.00  0.00    +0.000 NA
ATOM     19  H   UNL     1       3.076   1.959  21.622  0.00  0.00    +0.000 HD
ATOM     20  H   UNL     1       2.085   1.835  22.920  0.00  0.00    +0.000 HD
ENDBRANCH  17  18
ENDBRANCH  14  17
ENDBRANCH  10  11
ENDBRANCH   1   9
BRANCH   2  21
ATOM     21  C   UNL     1       1.565   9.263  18.946  0.00  0.00    +0.000 A 
ATOM     22  N   UNL     1       1.446  10.606  18.537  0.00  0.00    +0.000 NA
ATOM     23  C   UNL     1       1.070  11.362  19.558  0.00  0.00    +0.000 A 
ATOM     24  S   UNL     1       0.730  10.493  21.005  0.00  0.00    +0.000 S 
ATOM     25  C   UNL     1       1.264   9.043  20.286  0.00  0.00    +0.000 A 
BRANCH  23  26
ATOM     26  C   UNL     1       0.924  12.824  19.533  0.00  0.00    +0.000 A 
ATOM     27  C   UNL     1      -0.108  13.428  18.810  0.00  0.00    +0.000 A 
ATOM     28  F   UNL     1      -1.022  12.682  18.171  0.00  0.00    +0.000 F 
ATOM     29  C   UNL     1      -0.236  14.820  18.734  0.00  0.00    +0.000 A 
ATOM     30  C   UNL     1       0.676  15.645  19.387  0.00  0.00    +0.000 A 
ATOM     31  C   UNL     1       1.706  15.071  20.125  0.00  0.00    +0.000 A 
ATOM     32  C   UNL     1       1.822  13.680  20.191  0.00  0.00    +0.000 A 
ATOM     33  F   UNL     1       2.854  13.190  20.895  0.00  0.00    +0.000 F 
ENDBRANCH  23  26
BRANCH  25  34
ATOM     34  N   UNL     1       1.336   7.907  21.014  0.00  0.00    +0.000 N 
ATOM     35  H   UNL     1       0.941   7.047  20.646  0.00  0.00    +0.000 HD
ATOM     36  H   UNL     1       1.341   7.967  22.034  0.00  0.00    +0.000 HD
ENDBRANCH  25  34
ENDBRANCH   2  21
TORSDOF 7
ENDMDL
MODEL 5
REMARK VINA RESULT:      -7.3      3.723      9.216
REMARK  Name = 
REMARK  8 active torsions:
REMARK  status: ('A' for Active; 'I' for Inactive)
REMARK    1  A    between atoms: C_1  and  N_2
REMARK    2  A    between atoms: C_5  and  N_6
REMARK    3  A    between atoms: C_7  and  C_9
REMARK    4  A    between atoms: C_11  and  C_12
REMARK    5  A    between atoms: C_21  and  N_22
REMARK    6  A    between atoms: C_23  and  C_24
REMARK    7  A    between atoms: C_27  and  C_28
REMARK    8  A    between atoms: C_28  and  N_29
REMARK                            x       y       z     vdW  Elec       q    Type
REMARK                         _______ _______ _______ _____ _____    ______ ____
ROOT
ATOM      1  N   UNL     1       3.392   8.026  18.041  0.00  0.00    +0.000 N 
ATOM      2  C   UNL     1       2.023   8.226  18.014  0.00  0.00    +0.000 C 
ATOM      3  O   UNL     1       1.233   7.586  17.322  0.00  0.00    +0.000 OA
ATOM      4  H   UNL     1       3.908   8.625  18.675  0.00  0.00    +0.000 HD
ENDROOT
BRANCH   1   9
ATOM      5  C   UNL     1       5.235   3.792  16.308  0.00  0.00    +0.000 C 
ATOM      6  N   UNL     1       4.868   5.175  16.511  0.00  0.00    +0.000 N 
ATOM      7  N   UNL     1       5.414   6.106  15.702  0.00  0.00    +0.000 NA
ATOM      8  C   UNL     1       4.935   7.258  16.174  0.00  0.00    +0.000 A 
ATOM      9  C   UNL     1       4.067   7.081  17.275  0.00  0.00    +0.000 A 
ATOM     10  C   UNL     1       4.029   5.705  17.463  0.00  0.00    +0.000 A 
BRANCH  10  11
ATOM     11  C   UNL     1       3.312   4.906  18.476  0.00  0.00    +0.000 C 
ATOM     12  O   UNL     1       3.111   5.673  19.652  0.00  0.00    +0.000 OA
ATOM     13  C   UNL     1       2.627   4.811  20.687  0.00  0.00    +0.000 C 
ATOM     14  C   UNL     1       1.367   4.042  20.260  0.00  0.00    +0.000 C 
ATOM     15  C   UNL     1       1.488   3.534  18.814  0.00  0.00    +0.000 C 
ATOM     16  O   UNL     1       2.055   4.512  17.950  0.00  0.00    +0.000 OA
BRANCH  14  17
ATOM     17  C   UNL     1       1.064   2.842  21.174  0.00  0.00    +0.000 C 
BRANCH  17  18
ATOM     18  N   UNL     1       2.128   2.491  22.102  0.00  0.00    +0.000 NA
ATOM     19  H   UNL     1       2.028   3.008  22.974  0.00  0.00    +0.000 HD
ATOM     20  H   UNL     1       3.046   2.715  21.725  0.00  0.00    +0.000 HD
ENDBRANCH  17  18
ENDBRANCH  14  17
ENDBRANCH  10  11
ENDBRANCH   1   9
BRANCH   2  21
ATOM     21  C   UNL     1       1.571   9.294  18.930  0.00  0.00    +0.000 A 
ATOM     22  N   UNL     1       1.456  10.634  18.511  0.00  0.00    +0.000 NA
ATOM     23  C   UNL     1       1.078  11.398  19.525  0.00  0.00    +0.000 A 
ATOM     24  S   UNL     1       0.733  10.541  20.978  0.00  0.00    +0.000 S 
ATOM     25  C   UNL     1       1.266   9.084  20.271  0.00  0.00    +0.000 A 
BRANCH  23  26
ATOM     26  C   UNL     1       0.934  12.861  19.488  0.00  0.00    +0.000 A 
ATOM     27  C   UNL     1       1.799  13.683  20.216  0.00  0.00    +0.000 A 
ATOM     28  F   UNL     1       2.815  13.156  20.916  0.00  0.00    +0.000 F 
ATOM     29  C   UNL     1       1.650  15.075  20.232  0.00  0.00    +0.000 A 
ATOM     30  C   UNL     1       0.622  15.678  19.513  0.00  0.00    +0.000 A 
ATOM     31  C   UNL     1      -0.246  14.885  18.770  0.00  0.00    +0.000 A 
ATOM     32  C   UNL     1      -0.086  13.497  18.763  0.00  0.00    +0.000 A 
ATOM     33  F   UNL     1      -0.973  12.787  18.050  0.00  0.00    +0.000 F 
ENDBRANCH  23  26
BRANCH  25  34
ATOM     34  N   UNL     1       1.335   7.954  21.008  0.00  0.00    +0.000 N 
ATOM     35  H   UNL     1       0.515   7.362  21.100  0.00  0.00    +0.000 HD
ATOM     36  H   UNL     1       1.975   7.914  21.803  0.00  0.00    +0.000 HD
ENDBRANCH  25  34
ENDBRANCH   2  21
TORSDOF 7
ENDMDL
MODEL 6
REMARK VINA RESULT:      -7.3      3.928      8.483
REMARK  Name = 
REMARK  8 active torsions:
REMARK  status: ('A' for Active; 'I' for Inactive)
REMARK    1  A    between atoms: C_1  and  N_2
REMARK    2  A    between atoms: C_5  and  N_6
REMARK    3  A    between atoms: C_7  and  C_9
REMARK    4  A    between atoms: C_11  and  C_12
REMARK    5  A    between atoms: C_21  and  N_22
REMARK    6  A    between atoms: C_23  and  C_24
REMARK    7  A    between atoms: C_27  and  C_28
REMARK    8  A    between atoms: C_28  and  N_29
REMARK                            x       y       z     vdW  Elec       q    Type
REMARK                         _______ _______ _______ _____ _____    ______ ____
ROOT
ATOM      1  N   UNL     1       1.453   5.605  19.270  0.00  0.00    +0.000 N 
ATOM      2  C   UNL     1       1.832   6.432  20.313  0.00  0.00    +0.000 C 
ATOM      3  O   UNL     1       2.474   6.071  21.298  0.00  0.00    +0.000 OA
ATOM      4  H   UNL     1       0.939   6.055  18.522  0.00  0.00    +0.000 HD
ENDROOT
BRANCH   1   9
ATOM      5  C   UNL     1       3.632   1.268  18.390  0.00  0.00    +0.000 C 
ATOM      6  N   UNL     1       2.731   2.318  18.809  0.00  0.00    +0.000 N 
ATOM      7  N   UNL     1       1.535   1.967  19.323  0.00  0.00    +0.000 NA
ATOM      8  C   UNL     1       0.931   3.134  19.549  0.00  0.00    +0.000 A 
ATOM      9  C   UNL     1       1.732   4.244  19.201  0.00  0.00    +0.000 A 
ATOM     10  C   UNL     1       2.913   3.679  18.733  0.00  0.00    +0.000 A 
BRANCH  10  11
ATOM     11  C   UNL     1       4.128   4.327  18.203  0.00  0.00    +0.000 C 
ATOM     12  O   UNL     1       3.778   5.445  17.403  0.00  0.00    +0.000 OA
ATOM     13  C   UNL     1       4.947   5.909  16.721  0.00  0.00    +0.000 C 
ATOM     14  C   UNL     1       6.101   6.213  17.689  0.00  0.00    +0.000 C 
ATOM     15  C   UNL     1       6.209   5.138  18.782  0.00  0.00    +0.000 C 
ATOM     16  O   UNL     1       4.934   4.759  19.287  0.00  0.00    +0.000 OA
BRANCH  14  17
ATOM     17  C   UNL     1       7.461   6.324  16.978  0.00  0.00    +0.000 C 
BRANCH  17  18
ATOM     18  N   UNL     1       7.533   5.670  15.680  0.00  0.00    +0.000 NA
ATOM     19  H   UNL     1       7.785   4.689  15.786  0.00  0.00    +0.000 HD
ATOM     20  H   UNL     1       8.237   6.097  15.082  0.00  0.00    +0.000 HD
ENDBRANCH  17  18
ENDBRANCH  14  17
ENDBRANCH  10  11
ENDBRANCH   1   9
BRANCH   2  21
ATOM     21  C   UNL     1       1.406   7.835  20.130  0.00  0.00    +0.000 A 
ATOM     22  N   UNL     1       0.537   8.472  21.037  0.00  0.00    +0.000 NA
ATOM     23  C   UNL     1       0.274   9.704  20.627  0.00  0.00    +0.000 A 
ATOM     24  S   UNL     1       1.138  10.191  19.220  0.00  0.00    +0.000 S 
ATOM     25  C   UNL     1       1.783   8.622  19.048  0.00  0.00    +0.000 A 
BRANCH  23  26
ATOM     26  C   UNL     1      -0.659  10.640  21.272  0.00  0.00    +0.000 A 
ATOM     27  C   UNL     1      -1.428  11.523  20.509  0.00  0.00    +0.000 A 
ATOM     28  F   UNL     1      -1.373  11.494  19.169  0.00  0.00    +0.000 F 
ATOM     29  C   UNL     1      -2.286  12.455  21.106  0.00  0.00    +0.000 A 
ATOM     30  C   UNL     1      -2.393  12.523  22.491  0.00  0.00    +0.000 A 
ATOM     31  C   UNL     1      -1.649  11.647  23.275  0.00  0.00    +0.000 A 
ATOM     32  C   UNL     1      -0.796  10.723  22.667  0.00  0.00    +0.000 A 
ATOM     33  F   UNL     1      -0.084   9.927  23.480  0.00  0.00    +0.000 F 
ENDBRANCH  23  26
BRANCH  25  34
ATOM     34  N   UNL     1       2.541   8.311  17.973  0.00  0.00    +0.000 N 
ATOM     35  H   UNL     1       2.910   7.371  17.872  0.00  0.00    +0.000 HD
ATOM     36  H   UNL     1       3.112   9.038  17.537  0.00  0.00    +0.000 HD
ENDBRANCH  25  34
ENDBRANCH   2  21
TORSDOF 7
ENDMDL
MODEL 7
REMARK VINA RESULT:      -7.2      3.904      8.544
REMARK  Name = 
REMARK  8 active torsions:
REMARK  status: ('A' for Active; 'I' for Inactive)
REMARK    1  A    between atoms: C_1  and  N_2
REMARK    2  A    between atoms: C_5  and  N_6
REMARK    3  A    between atoms: C_7  and  C_9
REMARK    4  A    between atoms: C_11  and  C_12
REMARK    5  A    between atoms: C_21  and  N_22
REMARK    6  A    between atoms: C_23  and  C_24
REMARK    7  A    between atoms: C_27  and  C_28
REMARK    8  A    between atoms: C_28  and  N_29
REMARK                            x       y       z     vdW  Elec       q    Type
REMARK                         _______ _______ _______ _____ _____    ______ ____
ROOT
ATOM      1  N   UNL     1       1.430   5.665  19.253  0.00  0.00    +0.000 N 
ATOM      2  C   UNL     1       1.827   6.504  20.279  0.00  0.00    +0.000 C 
ATOM      3  O   UNL     1       2.481   6.153  21.260  0.00  0.00    +0.000 OA
ATOM      4  H   UNL     1       0.908   6.107  18.505  0.00  0.00    +0.000 HD
ENDROOT
BRANCH   1   9
ATOM      5  C   UNL     1       3.585   1.305  18.433  0.00  0.00    +0.000 C 
ATOM      6  N   UNL     1       2.689   2.365  18.834  0.00  0.00    +0.000 N 
ATOM      7  N   UNL     1       1.486   2.027  19.342  0.00  0.00    +0.000 NA
ATOM      8  C   UNL     1       0.888   3.200  19.551  0.00  0.00    +0.000 A 
ATOM      9  C   UNL     1       1.700   4.301  19.199  0.00  0.00    +0.000 A 
ATOM     10  C   UNL     1       2.881   3.724  18.747  0.00  0.00    +0.000 A 
BRANCH  10  11
ATOM     11  C   UNL     1       4.104   4.359  18.219  0.00  0.00    +0.000 C 
ATOM     12  O   UNL     1       3.768   5.460  17.392  0.00  0.00    +0.000 OA
ATOM     13  C   UNL     1       4.947   5.908  16.716  0.00  0.00    +0.000 C 
ATOM     14  C   UNL     1       6.088   6.230  17.694  0.00  0.00    +0.000 C 
ATOM     15  C   UNL     1       6.179   5.178  18.812  0.00  0.00    +0.000 C 
ATOM     16  O   UNL     1       4.896   4.812  19.306  0.00  0.00    +0.000 OA
BRANCH  14  17
ATOM     17  C   UNL     1       7.458   6.323  17.000  0.00  0.00    +0.000 C 
BRANCH  17  18
ATOM     18  N   UNL     1       7.514   5.743  15.667  0.00  0.00    +0.000 NA
ATOM     19  H   UNL     1       6.665   5.218  15.468  0.00  0.00    +0.000 HD
ATOM     20  H   UNL     1       8.294   5.097  15.571  0.00  0.00    +0.000 HD
ENDBRANCH  17  18
ENDBRANCH  14  17
ENDBRANCH  10  11
ENDBRANCH   1   9
BRANCH   2  21
ATOM     21  C   UNL     1       1.407   7.907  20.081  0.00  0.00    +0.000 A 
ATOM     22  N   UNL     1       0.542   8.557  20.983  0.00  0.00    +0.000 NA
ATOM     23  C   UNL     1       0.283   9.786  20.561  0.00  0.00    +0.000 A 
ATOM     24  S   UNL     1       1.147  10.254  19.147  0.00  0.00    +0.000 S 
ATOM     25  C   UNL     1       1.786   8.681  18.990  0.00  0.00    +0.000 A 
BRANCH  23  26
ATOM     26  C   UNL     1      -0.644  10.733  21.197  0.00  0.00    +0.000 A 
ATOM     27  C   UNL     1      -0.776  10.780  22.587  0.00  0.00    +0.000 A 
ATOM     28  F   UNL     1      -0.015  10.003  23.373  0.00  0.00    +0.000 F 
ATOM     29  C   UNL     1      -1.688  11.641  23.210  0.00  0.00    +0.000 A 
ATOM     30  C   UNL     1      -2.495  12.479  22.447  0.00  0.00    +0.000 A 
ATOM     31  C   UNL     1      -2.376  12.462  21.061  0.00  0.00    +0.000 A 
ATOM     32  C   UNL     1      -1.462  11.598  20.452  0.00  0.00    +0.000 A 
ATOM     33  F   UNL     1      -1.417  11.609  19.112  0.00  0.00    +0.000 F 
ENDBRANCH  23  26
BRANCH  25  34
ATOM     34  N   UNL     1       2.541   8.356  17.918  0.00  0.00    +0.000 N 
ATOM     35  H   UNL     1       3.294   7.683  18.018  0.00  0.00    +0.000 HD
ATOM     36  H   UNL     1       2.689   9.050  17.182  0.00  0.00    +0.000 HD
ENDBRANCH  25  34
ENDBRANCH   2  21
TORSDOF 7
ENDMDL
MODEL 8
REMARK VINA RESULT:      -7.2      1.312      1.711
REMARK  Name = 
REMARK  8 active torsions:
REMARK  status: ('A' for Active; 'I' for Inactive)
REMARK    1  A    between atoms: C_1  and  N_2
REMARK    2  A    between atoms: C_5  and  N_6
REMARK    3  A    between atoms: C_7  and  C_9
REMARK    4  A    between atoms: C_11  and  C_12
REMARK    5  A    between atoms: C_21  and  N_22
REMARK    6  A    between atoms: C_23  and  C_24
REMARK    7  A    between atoms: C_27  and  C_28
REMARK    8  A    between atoms: C_28  and  N_29
REMARK                            x       y       z     vdW  Elec       q    Type
REMARK                         _______ _______ _______ _____ _____    ______ ____
ROOT
ATOM      1  N   UNL     1       0.674  10.151  21.179  0.00  0.00    +0.000 N 
ATOM      2  C   UNL     1       0.295   9.701  19.927  0.00  0.00    +0.000 C 
ATOM      3  O   UNL     1      -0.737  10.032  19.345  0.00  0.00    +0.000 OA
ATOM      4  H   UNL     1       1.561   9.798  21.519  0.00  0.00    +0.000 HD
ENDROOT
BRANCH   1   9
ATOM      5  C   UNL     1      -1.177  14.229  23.246  0.00  0.00    +0.000 C 
ATOM      6  N   UNL     1      -0.891  12.865  22.861  0.00  0.00    +0.000 N 
ATOM      7  N   UNL     1      -1.499  11.870  23.538  0.00  0.00    +0.000 NA
ATOM      8  C   UNL     1      -0.991  10.761  22.998  0.00  0.00    +0.000 A 
ATOM      9  C   UNL     1      -0.069  11.028  21.962  0.00  0.00    +0.000 A 
ATOM     10  C   UNL     1      -0.035  12.416  21.883  0.00  0.00    +0.000 A 
BRANCH  10  11
ATOM     11  C   UNL     1       0.760  13.296  21.006  0.00  0.00    +0.000 C 
ATOM     12  O   UNL     1       2.137  12.971  21.103  0.00  0.00    +0.000 OA
ATOM     13  C   UNL     1       2.898  13.978  20.429  0.00  0.00    +0.000 C 
ATOM     14  C   UNL     1       2.438  14.177  18.976  0.00  0.00    +0.000 C 
ATOM     15  C   UNL     1       0.905  14.152  18.868  0.00  0.00    +0.000 C 
ATOM     16  O   UNL     1       0.330  13.124  19.665  0.00  0.00    +0.000 OA
BRANCH  14  17
ATOM     17  C   UNL     1       2.949  15.493  18.365  0.00  0.00    +0.000 C 
BRANCH  17  18
ATOM     18  N   UNL     1       3.686  15.349  17.119  0.00  0.00    +0.000 NA
ATOM     19  H   UNL     1       3.053  15.376  16.323  0.00  0.00    +0.000 HD
ATOM     20  H   UNL     1       4.183  14.462  17.077  0.00  0.00    +0.000 HD
ENDBRANCH  17  18
ENDBRANCH  14  17
ENDBRANCH  10  11
ENDBRANCH   1   9
BRANCH   2  21
ATOM     21  C   UNL     1       1.273   8.777  19.317  0.00  0.00    +0.000 A 
ATOM     22  N   UNL     1       1.525   7.499  19.855  0.00  0.00    +0.000 NA
ATOM     23  C   UNL     1       2.470   6.889  19.157  0.00  0.00    +0.000 A 
ATOM     24  S   UNL     1       3.011   7.755  17.772  0.00  0.00    +0.000 S 
ATOM     25  C   UNL     1       2.048   9.093  18.206  0.00  0.00    +0.000 A 
BRANCH  23  26
ATOM     26  C   UNL     1       3.054   5.577  19.472  0.00  0.00    +0.000 A 
ATOM     27  C   UNL     1       4.363   5.266  19.092  0.00  0.00    +0.000 A 
ATOM     28  F   UNL     1       5.133   6.181  18.484  0.00  0.00    +0.000 F 
ATOM     29  C   UNL     1       4.921   4.006  19.339  0.00  0.00    +0.000 A 
ATOM     30  C   UNL     1       4.174   3.022  19.979  0.00  0.00    +0.000 A 
ATOM     31  C   UNL     1       2.873   3.307  20.379  0.00  0.00    +0.000 A 
ATOM     32  C   UNL     1       2.328   4.568  20.125  0.00  0.00    +0.000 A 
ATOM     33  F   UNL     1       1.059   4.770  20.511  0.00  0.00    +0.000 F 
ENDBRANCH  23  26
BRANCH  25  34
ATOM     34  N   UNL     1       2.112  10.240  17.494  0.00  0.00    +0.000 N 
ATOM     35  H   UNL     1       2.870  10.895  17.661  0.00  0.00    +0.000 HD
ATOM     36  H   UNL     1       1.248  10.670  17.161  0.00  0.00    +0.000 HD
ENDBRANCH  25  34
ENDBRANCH   2  21
TORSDOF 7
ENDMDL
MODEL 9
REMARK VINA RESULT:      -7.1      3.767      8.761
REMARK  Name = 
REMARK  8 active torsions:
REMARK  status: ('A' for Active; 'I' for Inactive)
REMARK    1  A    between atoms: C_1  and  N_2
REMARK    2  A    between atoms: C_5  and  N_6
REMARK    3  A    between atoms: C_7  and  C_9
REMARK    4  A    between atoms: C_11  and  C_12
REMARK    5  A    between atoms: C_21  and  N_22
REMARK    6  A    between atoms: C_23  and  C_24
REMARK    7  A    between atoms: C_27  and  C_28
REMARK    8  A    between atoms: C_28  and  N_29
REMARK                            x       y       z     vdW  Elec       q    Type
REMARK                         _______ _______ _______ _____ _____    ______ ____
ROOT
ATOM      1  N   UNL     1       1.964   5.671  18.961  0.00  0.00    +0.000 N 
ATOM      2  C   UNL     1       1.986   6.631  19.958  0.00  0.00    +0.000 C 
ATOM      3  O   UNL     1       2.174   6.400  21.151  0.00  0.00    +0.000 OA
ATOM      4  H   UNL     1       1.811   6.021  18.023  0.00  0.00    +0.000 HD
ENDROOT
BRANCH   1   9
ATOM      5  C   UNL     1       3.685   1.050  18.844  0.00  0.00    +0.000 C 
ATOM      6  N   UNL     1       2.930   2.252  19.118  0.00  0.00    +0.000 N 
ATOM      7  N   UNL     1       1.800   2.145  19.845  0.00  0.00    +0.000 NA
ATOM      8  C   UNL     1       1.317   3.388  19.868  0.00  0.00    +0.000 A 
ATOM      9  C   UNL     1       2.134   4.308  19.175  0.00  0.00    +0.000 A 
ATOM     10  C   UNL     1       3.193   3.538  18.706  0.00  0.00    +0.000 A 
BRANCH  10  11
ATOM     11  C   UNL     1       4.359   3.928  17.891  0.00  0.00    +0.000 C 
ATOM     12  O   UNL     1       4.039   3.858  16.512  0.00  0.00    +0.000 OA
ATOM     13  C   UNL     1       5.240   4.014  15.750  0.00  0.00    +0.000 C 
ATOM     14  C   UNL     1       5.997   5.301  16.117  0.00  0.00    +0.000 C 
ATOM     15  C   UNL     1       5.999   5.531  17.637  0.00  0.00    +0.000 C 
ATOM     16  O   UNL     1       4.732   5.257  18.221  0.00  0.00    +0.000 OA
BRANCH  14  17
ATOM     17  C   UNL     1       7.453   5.296  15.622  0.00  0.00    +0.000 C 
BRANCH  17  18
ATOM     18  N   UNL     1       7.617   5.471  14.187  0.00  0.00    +0.000 NA
ATOM     19  H   UNL     1       8.412   4.932  13.848  0.00  0.00    +0.000 HD
ATOM     20  H   UNL     1       7.790   6.444  13.944  0.00  0.00    +0.000 HD
ENDBRANCH  17  18
ENDBRANCH  14  17
ENDBRANCH  10  11
ENDBRANCH   1   9
BRANCH   2  21
ATOM     21  C   UNL     1       1.779   8.003  19.451  0.00  0.00    +0.000 A 
ATOM     22  N   UNL     1       0.904   8.907  20.087  0.00  0.00    +0.000 NA
ATOM     23  C   UNL     1       0.861  10.048  19.416  0.00  0.00    +0.000 A 
ATOM     24  S   UNL     1       1.941  10.135  18.080  0.00  0.00    +0.000 S 
ATOM     25  C   UNL     1       2.384   8.503  18.303  0.00  0.00    +0.000 A 
BRANCH  23  26
ATOM     26  C   UNL     1      -0.005  11.194  19.731  0.00  0.00    +0.000 A 
ATOM     27  C   UNL     1       0.483  12.280  20.463  0.00  0.00    +0.000 A 
ATOM     28  F   UNL     1       1.769  12.325  20.843  0.00  0.00    +0.000 F 
ATOM     29  C   UNL     1      -0.338  13.358  20.814  0.00  0.00    +0.000 A 
ATOM     30  C   UNL     1      -1.677  13.372  20.436  0.00  0.00    +0.000 A 
ATOM     31  C   UNL     1      -2.187  12.310  19.696  0.00  0.00    +0.000 A 
ATOM     32  C   UNL     1      -1.357  11.240  19.353  0.00  0.00    +0.000 A 
ATOM     33  F   UNL     1      -1.917  10.234  18.664  0.00  0.00    +0.000 F 
ENDBRANCH  23  26
BRANCH  25  34
ATOM     34  N   UNL     1       3.213   7.895  17.427  0.00  0.00    +0.000 N 
ATOM     35  H   UNL     1       4.181   8.193  17.359  0.00  0.00    +0.000 HD
ATOM     36  H   UNL     1       2.829   7.508  16.563  0.00  0.00    +0.000 HD
ENDBRANCH  25  34
ENDBRANCH   2  21
TORSDOF 7
ENDMDL
