MODEL 1
REMARK VINA RESULT:      -8.4      0.000      0.000
REMARK  Name = 
REMARK  5 active torsions:
REMARK  status: ('A' for Active; 'I' for Inactive)
REMARK    1  A    between atoms: C_1  and  C_2
REMARK    2  A    between atoms: C_2  and  C_4
REMARK    3  A    between atoms: C_7  and  N_8
REMARK    4  A    between atoms: C_14  and  N_15
REMARK    5  A    between atoms: C_17  and  C_18
REMARK                            x       y       z     vdW  Elec       q    Type
REMARK                         _______ _______ _______ _____ _____    ______ ____
ROOT
ATOM      1  N   UNL     1       8.009   9.584  17.612  0.00  0.00    +0.000 N 
ATOM      2  C   UNL     1       8.251   8.442  18.342  0.00  0.00    +0.000 C 
ATOM      3  O   UNL     1       9.064   8.374  19.263  0.00  0.00    +0.000 OA
ATOM      4  N   UNL     1       7.499   7.332  17.987  0.00  0.00    +0.000 N 
ATOM      5  C   UNL     1       7.540   6.170  18.873  0.00  0.00    +0.000 C 
ATOM      6  C   UNL     1       7.918   4.913  18.103  0.00  0.00    +0.000 C 
ATOM      7  C   UNL     1       6.965   4.681  16.921  0.00  0.00    +0.000 C 
ATOM      8  C   UNL     1       6.928   5.937  16.033  0.00  0.00    +0.000 C 
ATOM      9  C   UNL     1       6.620   7.210  16.824  0.00  0.00    +0.000 C 
ATOM     10  H   UNL     1       7.091   9.663  17.205  0.00  0.00    +0.000 HD
ENDROOT
BRANCH   1  14
ATOM     11  C   UNL     1      10.147  13.216  17.958  0.00  0.00    +0.000 A 
ATOM     12  C   UNL     1      10.827  12.001  18.034  0.00  0.00    +0.000 A 
ATOM     13  C   UNL     1      10.132  10.798  17.897  0.00  0.00    +0.000 A 
ATOM     14  C   UNL     1       8.750  10.781  17.703  0.00  0.00    +0.000 A 
ATOM     15  C   UNL     1       8.071  12.001  17.588  0.00  0.00    +0.000 A 
ATOM     16  C   UNL     1       8.765  13.212  17.722  0.00  0.00    +0.000 A 
BRANCH  11  18
ATOM     17  C   UNL     1      11.380  14.881  19.491  0.00  0.00    +0.000 C 
ATOM     18  C   UNL     1      10.863  14.514  18.123  0.00  0.00    +0.000 C 
ATOM     19  O   UNL     1      11.023  15.253  17.156  0.00  0.00    +0.000 OA
ENDBRANCH  11  18
ENDBRANCH   1  14
BRANCH   7  20
ATOM     20  N   UNL     1       5.657   4.215  17.364  0.00  0.00    +0.000 N 
ATOM     21  C   UNL     1       5.244   4.025  18.651  0.00  0.00    +0.000 A 
ATOM     22  C   UNL     1       3.941   3.601  18.524  0.00  0.00    +0.000 A 
ATOM     23  N   UNL     1       3.629   3.499  17.195  0.00  0.00    +0.000 NA
ATOM     24  N   UNL     1       4.689   3.875  16.493  0.00  0.00    +0.000 NA
BRANCH  22  25
ATOM     25  C   UNL     1       3.029   3.294  19.599  0.00  0.00    +0.000 A 
ATOM     26  C   UNL     1       1.665   3.562  19.483  0.00  0.00    +0.000 A 
ATOM     27  C   UNL     1       0.810   3.256  20.540  0.00  0.00    +0.000 A 
ATOM     28  C   UNL     1       1.353   2.696  21.686  0.00  0.00    +0.000 A 
ATOM     29  N   UNL     1       2.666   2.428  21.840  0.00  0.00    +0.000 NA
ATOM     30  C   UNL     1       3.471   2.735  20.794  0.00  0.00    +0.000 A 
ENDBRANCH  22  25
ENDBRANCH   7  20
TORSDOF 4
ENDMDL
MODEL 2
REMARK VINA RESULT:      -8.2      7.252     11.572
REMARK  Name = 
REMARK  5 active torsions:
REMARK  status: ('A' for Active; 'I' for Inactive)
REMARK    1  A    between atoms: C_1  and  C_2
REMARK    2  A    between atoms: C_2  and  C_4
REMARK    3  A    between atoms: C_7  and  N_8
REMARK    4  A    between atoms: C_14  and  N_15
REMARK    5  A    between atoms: C_17  and  C_18
REMARK                            x       y       z     vdW  Elec       q    Type
REMARK                         _______ _______ _______ _____ _____    ______ ____
ROOT
ATOM      1  N   UNL     1       2.062   7.914  19.414  0.00  0.00    +0.000 N 
ATOM      2  C   UNL     1       1.505   8.557  20.497  0.00  0.00    +0.000 C 
ATOM      3  O   UNL     1       1.527   8.114  21.644  0.00  0.00    +0.000 OA
ATOM      4  N   UNL     1       0.904   9.777  20.226  0.00  0.00    +0.000 N 
ATOM      5  C   UNL     1       0.510  10.608  21.363  0.00  0.00    +0.000 C 
ATOM      6  C   UNL     1      -0.958  10.998  21.267  0.00  0.00    +0.000 C 
ATOM      7  C   UNL     1      -1.258  11.698  19.932  0.00  0.00    +0.000 C 
ATOM      8  C   UNL     1      -0.799  10.805  18.766  0.00  0.00    +0.000 C 
ATOM      9  C   UNL     1       0.656  10.353  18.904  0.00  0.00    +0.000 C 
ATOM     10  H   UNL     1       2.360   8.504  18.654  0.00  0.00    +0.000 HD
ENDROOT
BRANCH   1  14
ATOM     11  C   UNL     1       3.554   3.957  19.431  0.00  0.00    +0.000 A 
ATOM     12  C   UNL     1       4.265   4.963  18.778  0.00  0.00    +0.000 A 
ATOM     13  C   UNL     1       3.791   6.277  18.788  0.00  0.00    +0.000 A 
ATOM     14  C   UNL     1       2.596   6.608  19.428  0.00  0.00    +0.000 A 
ATOM     15  C   UNL     1       1.900   5.606  20.117  0.00  0.00    +0.000 A 
ATOM     16  C   UNL     1       2.374   4.286  20.113  0.00  0.00    +0.000 A 
BRANCH  11  18
ATOM     17  C   UNL     1       3.391   1.581  18.445  0.00  0.00    +0.000 C 
ATOM     18  C   UNL     1       4.027   2.543  19.417  0.00  0.00    +0.000 C 
ATOM     19  O   UNL     1       4.919   2.187  20.182  0.00  0.00    +0.000 OA
ENDBRANCH  11  18
ENDBRANCH   1  14
BRANCH   7  20
ATOM     20  N   UNL     1      -0.725  13.053  19.899  0.00  0.00    +0.000 N 
ATOM     21  C   UNL     1      -0.440  13.799  18.792  0.00  0.00    +0.000 A 
ATOM     22  C   UNL     1       0.014  14.994  19.301  0.00  0.00    +0.000 A 
ATOM     23  N   UNL     1       0.041  14.918  20.667  0.00  0.00    +0.000 NA
ATOM     24  N   UNL     1      -0.411  13.724  21.023  0.00  0.00    +0.000 NA
BRANCH  22  25
ATOM     25  C   UNL     1       0.417  16.153  18.543  0.00  0.00    +0.000 A 
ATOM     26  C   UNL     1      -0.530  17.031  18.013  0.00  0.00    +0.000 A 
ATOM     27  C   UNL     1      -0.109  18.140  17.283  0.00  0.00    +0.000 A 
ATOM     28  C   UNL     1       1.251  18.331  17.099  0.00  0.00    +0.000 A 
ATOM     29  N   UNL     1       2.198  17.504  17.589  0.00  0.00    +0.000 NA
ATOM     30  C   UNL     1       1.758  16.435  18.296  0.00  0.00    +0.000 A 
ENDBRANCH  22  25
ENDBRANCH   7  20
TORSDOF 4
ENDMDL
MODEL 3
REMARK VINA RESULT:      -7.8      5.392      8.278
REMARK  Name = 
REMARK  5 active torsions:
REMARK  status: ('A' for Active; 'I' for Inactive)
REMARK    1  A    between atoms: C_1  and  C_2
REMARK    2  A    between atoms: C_2  and  C_4
REMARK    3  A    between atoms: C_7  and  N_8
REMARK    4  A    between atoms: C_14  and  N_15
REMARK    5  A    between atoms: C_17  and  C_18
REMARK                            x       y       z     vdW  Elec       q    Type
REMARK                         _______ _______ _______ _____ _____    ______ ____
ROOT
ATOM      1  N   UNL     1       2.588   8.103  18.727  0.00  0.00    +0.000 N 
ATOM      2  C   UNL     1       2.781   6.743  18.638  0.00  0.00    +0.000 C 
ATOM      3  O   UNL     1       2.062   5.910  19.187  0.00  0.00    +0.000 OA
ATOM      4  N   UNL     1       3.857   6.339  17.862  0.00  0.00    +0.000 N 
ATOM      5  C   UNL     1       3.968   4.918  17.540  0.00  0.00    +0.000 C 
ATOM      6  C   UNL     1       5.335   4.376  17.934  0.00  0.00    +0.000 C 
ATOM      7  C   UNL     1       6.462   5.188  17.277  0.00  0.00    +0.000 C 
ATOM      8  C   UNL     1       6.289   6.679  17.615  0.00  0.00    +0.000 C 
ATOM      9  C   UNL     1       4.889   7.202  17.286  0.00  0.00    +0.000 C 
ATOM     10  H   UNL     1       2.930   8.650  17.954  0.00  0.00    +0.000 HD
ENDROOT
BRANCH   1  14
ATOM     11  C   UNL     1      -0.136  10.026  21.327  0.00  0.00    +0.000 A 
ATOM     12  C   UNL     1      -0.121  10.356  19.973  0.00  0.00    +0.000 A 
ATOM     13  C   UNL     1       0.760   9.708  19.103  0.00  0.00    +0.000 A 
ATOM     14  C   UNL     1       1.650   8.740  19.568  0.00  0.00    +0.000 A 
ATOM     15  C   UNL     1       1.610   8.380  20.921  0.00  0.00    +0.000 A 
ATOM     16  C   UNL     1       0.725   9.025  21.797  0.00  0.00    +0.000 A 
BRANCH  11  18
ATOM     17  C   UNL     1      -1.706  12.005  21.843  0.00  0.00    +0.000 C 
ATOM     18  C   UNL     1      -1.052  10.718  22.280  0.00  0.00    +0.000 C 
ATOM     19  O   UNL     1      -1.261  10.236  23.390  0.00  0.00    +0.000 OA
ENDBRANCH  11  18
ENDBRANCH   1  14
BRANCH   7  20
ATOM     20  N   UNL     1       6.576   4.902  15.853  0.00  0.00    +0.000 N 
ATOM     21  C   UNL     1       5.929   3.921  15.157  0.00  0.00    +0.000 A 
ATOM     22  C   UNL     1       6.366   4.088  13.862  0.00  0.00    +0.000 A 
ATOM     23  N   UNL     1       7.282   5.103  13.824  0.00  0.00    +0.000 NA
ATOM     24  N   UNL     1       7.405   5.593  15.050  0.00  0.00    +0.000 NA
BRANCH  22  25
ATOM     25  C   UNL     1       5.953   3.321  12.711  0.00  0.00    +0.000 A 
ATOM     26  C   UNL     1       6.839   2.455  12.069  0.00  0.00    +0.000 A 
ATOM     27  C   UNL     1       6.411   1.731  10.958  0.00  0.00    +0.000 A 
ATOM     28  C   UNL     1       5.108   1.904  10.521  0.00  0.00    +0.000 A 
ATOM     29  N   UNL     1       4.223   2.735  11.109  0.00  0.00    +0.000 NA
ATOM     30  C   UNL     1       4.668   3.425  12.187  0.00  0.00    +0.000 A 
ENDBRANCH  22  25
ENDBRANCH   7  20
TORSDOF 4
ENDMDL
MODEL 4
REMARK VINA RESULT:      -7.7      6.433     11.172
REMARK  Name = 
REMARK  5 active torsions:
REMARK  status: ('A' for Active; 'I' for Inactive)
REMARK    1  A    between atoms: C_1  and  C_2
REMARK    2  A    between atoms: C_2  and  C_4
REMARK    3  A    between atoms: C_7  and  N_8
REMARK    4  A    between atoms: C_14  and  N_15
REMARK    5  A    between atoms: C_17  and  C_18
REMARK                            x       y       z     vdW  Elec       q    Type
REMARK                         _______ _______ _______ _____ _____    ______ ____
ROOT
ATOM      1  N   UNL     1       2.154   7.384  19.162  0.00  0.00    +0.000 N 
ATOM      2  C   UNL     1       1.590   8.092  20.199  0.00  0.00    +0.000 C 
ATOM      3  O   UNL     1       1.566   7.701  21.365  0.00  0.00    +0.000 OA
ATOM      4  N   UNL     1       1.038   9.318  19.858  0.00  0.00    +0.000 N 
ATOM      5  C   UNL     1       0.641  10.211  20.945  0.00  0.00    +0.000 C 
ATOM      6  C   UNL     1      -0.810  10.644  20.789  0.00  0.00    +0.000 C 
ATOM      7  C   UNL     1      -1.049  11.292  19.417  0.00  0.00    +0.000 C 
ATOM      8  C   UNL     1      -0.590  10.333  18.305  0.00  0.00    +0.000 C 
ATOM      9  C   UNL     1       0.845   9.842  18.505  0.00  0.00    +0.000 C 
ATOM     10  H   UNL     1       2.492   7.930  18.386  0.00  0.00    +0.000 HD
ENDROOT
BRANCH   1  14
ATOM     11  C   UNL     1       3.710   3.466  19.490  0.00  0.00    +0.000 A 
ATOM     12  C   UNL     1       2.340   3.682  19.631  0.00  0.00    +0.000 A 
ATOM     13  C   UNL     1       1.815   4.970  19.500  0.00  0.00    +0.000 A 
ATOM     14  C   UNL     1       2.644   6.063  19.248  0.00  0.00    +0.000 A 
ATOM     15  C   UNL     1       4.015   5.843  19.069  0.00  0.00    +0.000 A 
ATOM     16  C   UNL     1       4.546   4.551  19.195  0.00  0.00    +0.000 A 
BRANCH  11  18
ATOM     17  C   UNL     1       3.921   1.039  18.646  0.00  0.00    +0.000 C 
ATOM     18  C   UNL     1       4.298   2.103  19.646  0.00  0.00    +0.000 C 
ATOM     19  O   UNL     1       5.071   1.871  20.571  0.00  0.00    +0.000 OA
ENDBRANCH  11  18
ENDBRANCH   1  14
BRANCH   7  20
ATOM     20  N   UNL     1      -0.471  12.627  19.340  0.00  0.00    +0.000 N 
ATOM     21  C   UNL     1       0.786  12.956  18.920  0.00  0.00    +0.000 A 
ATOM     22  C   UNL     1       0.824  14.328  19.022  0.00  0.00    +0.000 A 
ATOM     23  N   UNL     1      -0.363  14.773  19.539  0.00  0.00    +0.000 NA
ATOM     24  N   UNL     1      -1.147  13.722  19.733  0.00  0.00    +0.000 NA
BRANCH  22  25
ATOM     25  C   UNL     1       1.926  15.186  18.663  0.00  0.00    +0.000 A 
ATOM     26  C   UNL     1       3.112  14.657  18.152  0.00  0.00    +0.000 A 
ATOM     27  C   UNL     1       4.161  15.511  17.817  0.00  0.00    +0.000 A 
ATOM     28  C   UNL     1       3.989  16.873  18.012  0.00  0.00    +0.000 A 
ATOM     29  N   UNL     1       2.862  17.423  18.508  0.00  0.00    +0.000 NA
ATOM     30  C   UNL     1       1.861  16.567  18.824  0.00  0.00    +0.000 A 
ENDBRANCH  22  25
ENDBRANCH   7  20
TORSDOF 4
ENDMDL
MODEL 5
REMARK VINA RESULT:      -7.7      6.830     11.358
REMARK  Name = 
REMARK  5 active torsions:
REMARK  status: ('A' for Active; 'I' for Inactive)
REMARK    1  A    between atoms: C_1  and  C_2
REMARK    2  A    between atoms: C_2  and  C_4
REMARK    3  A    between atoms: C_7  and  N_8
REMARK    4  A    between atoms: C_14  and  N_15
REMARK    5  A    between atoms: C_17  and  C_18
REMARK                            x       y       z     vdW  Elec       q    Type
REMARK                         _______ _______ _______ _____ _____    ______ ____
ROOT
ATOM      1  N   UNL     1       2.070   7.712  19.361  0.00  0.00    +0.000 N 
ATOM      2  C   UNL     1       1.555   8.405  20.434  0.00  0.00    +0.000 C 
ATOM      3  O   UNL     1       1.632   8.022  21.600  0.00  0.00    +0.000 OA
ATOM      4  N   UNL     1       0.931   9.605  20.129  0.00  0.00    +0.000 N 
ATOM      5  C   UNL     1       0.579  10.490  21.238  0.00  0.00    +0.000 C 
ATOM      6  C   UNL     1      -0.895  10.864  21.188  0.00  0.00    +0.000 C 
ATOM      7  C   UNL     1      -1.260  11.492  19.835  0.00  0.00    +0.000 C 
ATOM      8  C   UNL     1      -0.846  10.544  18.696  0.00  0.00    +0.000 C 
ATOM      9  C   UNL     1       0.619  10.111  18.792  0.00  0.00    +0.000 C 
ATOM     10  H   UNL     1       2.328   8.265  18.560  0.00  0.00    +0.000 HD
ENDROOT
BRANCH   1  14
ATOM     11  C   UNL     1       3.598   3.772  19.522  0.00  0.00    +0.000 A 
ATOM     12  C   UNL     1       4.207   4.719  18.699  0.00  0.00    +0.000 A 
ATOM     13  C   UNL     1       3.722   6.029  18.659  0.00  0.00    +0.000 A 
ATOM     14  C   UNL     1       2.616   6.412  19.417  0.00  0.00    +0.000 A 
ATOM     15  C   UNL     1       2.027   5.473  20.274  0.00  0.00    +0.000 A 
ATOM     16  C   UNL     1       2.512   4.158  20.321  0.00  0.00    +0.000 A 
BRANCH  11  18
ATOM     17  C   UNL     1       3.575   1.394  18.529  0.00  0.00    +0.000 C 
ATOM     18  C   UNL     1       4.082   2.362  19.568  0.00  0.00    +0.000 C 
ATOM     19  O   UNL     1       4.879   2.015  20.435  0.00  0.00    +0.000 OA
ENDBRANCH  11  18
ENDBRANCH   1  14
BRANCH   7  20
ATOM     20  N   UNL     1      -0.743  12.849  19.710  0.00  0.00    +0.000 N 
ATOM     21  C   UNL     1       0.290  13.265  18.920  0.00  0.00    +0.000 A 
ATOM     22  C   UNL     1       0.363  14.620  19.153  0.00  0.00    +0.000 A 
ATOM     23  N   UNL     1      -0.569  14.965  20.094  0.00  0.00    +0.000 NA
ATOM     24  N   UNL     1      -1.239  13.871  20.430  0.00  0.00    +0.000 NA
BRANCH  22  25
ATOM     25  C   UNL     1       1.273  15.550  18.531  0.00  0.00    +0.000 A 
ATOM     26  C   UNL     1       2.536  15.142  18.101  0.00  0.00    +0.000 A 
ATOM     27  C   UNL     1       3.394  16.065  17.506  0.00  0.00    +0.000 A 
ATOM     28  C   UNL     1       2.960  17.374  17.368  0.00  0.00    +0.000 A 
ATOM     29  N   UNL     1       1.750  17.810  17.776  0.00  0.00    +0.000 NA
ATOM     30  C   UNL     1       0.938  16.889  18.350  0.00  0.00    +0.000 A 
ENDBRANCH  22  25
ENDBRANCH   7  20
TORSDOF 4
ENDMDL
MODEL 6
REMARK VINA RESULT:      -7.6      8.602     10.890
REMARK  Name = 
REMARK  5 active torsions:
REMARK  status: ('A' for Active; 'I' for Inactive)
REMARK    1  A    between atoms: C_1  and  C_2
REMARK    2  A    between atoms: C_2  and  C_4
REMARK    3  A    between atoms: C_7  and  N_8
REMARK    4  A    between atoms: C_14  and  N_15
REMARK    5  A    between atoms: C_17  and  C_18
REMARK                            x       y       z     vdW  Elec       q    Type
REMARK                         _______ _______ _______ _____ _____    ______ ____
ROOT
ATOM      1  N   UNL     1       1.855   8.459  19.280  0.00  0.00    +0.000 N 
ATOM      2  C   UNL     1       0.890   9.262  18.715  0.00  0.00    +0.000 C 
ATOM      3  O   UNL     1       0.497   9.150  17.554  0.00  0.00    +0.000 OA
ATOM      4  N   UNL     1       0.352  10.231  19.548  0.00  0.00    +0.000 N 
ATOM      5  C   UNL     1      -0.832  10.949  19.080  0.00  0.00    +0.000 C 
ATOM      6  C   UNL     1      -0.611  12.454  19.133  0.00  0.00    +0.000 C 
ATOM      7  C   UNL     1      -0.206  12.904  20.545  0.00  0.00    +0.000 C 
ATOM      8  C   UNL     1       1.023  12.103  21.010  0.00  0.00    +0.000 C 
ATOM      9  C   UNL     1       0.824  10.591  20.886  0.00  0.00    +0.000 C 
ATOM     10  H   UNL     1       1.804   8.343  20.279  0.00  0.00    +0.000 HD
ENDROOT
BRANCH   1  14
ATOM     11  C   UNL     1       4.089   5.547  17.179  0.00  0.00    +0.000 A 
ATOM     12  C   UNL     1       4.327   6.902  16.951  0.00  0.00    +0.000 A 
ATOM     13  C   UNL     1       3.611   7.869  17.658  0.00  0.00    +0.000 A 
ATOM     14  C   UNL     1       2.634   7.508  18.586  0.00  0.00    +0.000 A 
ATOM     15  C   UNL     1       2.419   6.148  18.845  0.00  0.00    +0.000 A 
ATOM     16  C   UNL     1       3.139   5.173  18.140  0.00  0.00    +0.000 A 
BRANCH  11  18
ATOM     17  C   UNL     1       5.594   4.901  15.189  0.00  0.00    +0.000 C 
ATOM     18  C   UNL     1       4.826   4.494  16.421  0.00  0.00    +0.000 C 
ATOM     19  O   UNL     1       4.800   3.329  16.808  0.00  0.00    +0.000 OA
ENDBRANCH  11  18
ENDBRANCH   1  14
BRANCH   7  20
ATOM     20  N   UNL     1      -1.332  12.871  21.468  0.00  0.00    +0.000 N 
ATOM     21  C   UNL     1      -2.659  12.907  21.148  0.00  0.00    +0.000 A 
ATOM     22  C   UNL     1      -3.298  12.833  22.366  0.00  0.00    +0.000 A 
ATOM     23  N   UNL     1      -2.362  12.810  23.364  0.00  0.00    +0.000 NA
ATOM     24  N   UNL     1      -1.161  12.836  22.802  0.00  0.00    +0.000 NA
BRANCH  22  25
ATOM     25  C   UNL     1      -4.723  12.798  22.587  0.00  0.00    +0.000 A 
ATOM     26  C   UNL     1      -5.255  12.928  23.870  0.00  0.00    +0.000 A 
ATOM     27  C   UNL     1      -6.636  12.888  24.052  0.00  0.00    +0.000 A 
ATOM     28  C   UNL     1      -7.442  12.709  22.938  0.00  0.00    +0.000 A 
ATOM     29  N   UNL     1      -6.967  12.573  21.683  0.00  0.00    +0.000 NA
ATOM     30  C   UNL     1      -5.620  12.618  21.538  0.00  0.00    +0.000 A 
ENDBRANCH  22  25
ENDBRANCH   7  20
TORSDOF 4
ENDMDL
MODEL 7
REMARK VINA RESULT:      -7.6      7.562     11.529
REMARK  Name = 
REMARK  5 active torsions:
REMARK  status: ('A' for Active; 'I' for Inactive)
REMARK    1  A    between atoms: C_1  and  C_2
REMARK    2  A    between atoms: C_2  and  C_4
REMARK    3  A    between atoms: C_7  and  N_8
REMARK    4  A    between atoms: C_14  and  N_15
REMARK    5  A    between atoms: C_17  and  C_18
REMARK                            x       y       z     vdW  Elec       q    Type
REMARK                         _______ _______ _______ _____ _____    ______ ____
ROOT
ATOM      1  N   UNL     1       1.760   8.533  18.256  0.00  0.00    +0.000 N 
ATOM      2  C   UNL     1       1.481   9.039  19.506  0.00  0.00    +0.000 C 
ATOM      3  O   UNL     1       1.842   8.511  20.557  0.00  0.00    +0.000 OA
ATOM      4  N   UNL     1       0.756  10.221  19.527  0.00  0.00    +0.000 N 
ATOM      5  C   UNL     1       0.637  10.923  20.804  0.00  0.00    +0.000 C 
ATOM      6  C   UNL     1      -0.823  11.193  21.141  0.00  0.00    +0.000 C 
ATOM      7  C   UNL     1      -1.517  11.967  20.010  0.00  0.00    +0.000 C 
ATOM      8  C   UNL     1      -1.341  11.211  18.682  0.00  0.00    +0.000 C 
ATOM      9  C   UNL     1       0.122  10.876  18.383  0.00  0.00    +0.000 C 
ATOM     10  H   UNL     1       1.802   9.205  17.507  0.00  0.00    +0.000 HD
ENDROOT
BRANCH   1  14
ATOM     11  C   UNL     1       3.645   4.817  17.536  0.00  0.00    +0.000 A 
ATOM     12  C   UNL     1       2.331   4.850  18.003  0.00  0.00    +0.000 A 
ATOM     13  C   UNL     1       1.694   6.073  18.220  0.00  0.00    +0.000 A 
ATOM     14  C   UNL     1       2.356   7.281  17.998  0.00  0.00    +0.000 A 
ATOM     15  C   UNL     1       3.662   7.251  17.493  0.00  0.00    +0.000 A 
ATOM     16  C   UNL     1       4.305   6.024  17.269  0.00  0.00    +0.000 A 
BRANCH  11  18
ATOM     17  C   UNL     1       3.714   2.257  17.822  0.00  0.00    +0.000 C 
ATOM     18  C   UNL     1       4.355   3.524  17.316  0.00  0.00    +0.000 C 
ATOM     19  O   UNL     1       5.435   3.509  16.731  0.00  0.00    +0.000 OA
ENDBRANCH  11  18
ENDBRANCH   1  14
BRANCH   7  20
ATOM     20  N   UNL     1      -1.097  13.362  19.972  0.00  0.00    +0.000 N 
ATOM     21  C   UNL     1      -0.627  14.049  18.890  0.00  0.00    +0.000 A 
ATOM     22  C   UNL     1      -0.393  15.316  19.375  0.00  0.00    +0.000 A 
ATOM     23  N   UNL     1      -0.670  15.342  20.715  0.00  0.00    +0.000 NA
ATOM     24  N   UNL     1      -1.098  14.138  21.070  0.00  0.00    +0.000 NA
BRANCH  22  25
ATOM     25  C   UNL     1       0.081  16.451  18.621  0.00  0.00    +0.000 A 
ATOM     26  C   UNL     1      -0.813  17.342  18.025  0.00  0.00    +0.000 A 
ATOM     27  C   UNL     1      -0.324  18.427  17.300  0.00  0.00    +0.000 A 
ATOM     28  C   UNL     1       1.049  18.581  17.189  0.00  0.00    +0.000 A 
ATOM     29  N   UNL     1       1.945  17.739  17.744  0.00  0.00    +0.000 NA
ATOM     30  C   UNL     1       1.440  16.695  18.444  0.00  0.00    +0.000 A 
ENDBRANCH  22  25
ENDBRANCH   7  20
TORSDOF 4
ENDMDL
MODEL 8
REMARK VINA RESULT:      -7.6      5.436      8.137
REMARK  Name = 
REMARK  5 active torsions:
REMARK  status: ('A' for Active; 'I' for Inactive)
REMARK    1  A    between atoms: C_1  and  C_2
REMARK    2  A    between atoms: C_2  and  C_4
REMARK    3  A    between atoms: C_7  and  N_8
REMARK    4  A    between atoms: C_14  and  N_15
REMARK    5  A    between atoms: C_17  and  C_18
REMARK                            x       y       z     vdW  Elec       q    Type
REMARK                         _______ _______ _______ _____ _____    ______ ____
ROOT
ATOM      1  N   UNL     1       2.703   8.171  18.715  0.00  0.00    +0.000 N 
ATOM      2  C   UNL     1       2.910   6.810  18.657  0.00  0.00    +0.000 C 
ATOM      3  O   UNL     1       2.229   5.985  19.263  0.00  0.00    +0.000 OA
ATOM      4  N   UNL     1       3.955   6.397  17.843  0.00  0.00    +0.000 N 
ATOM      5  C   UNL     1       4.069   4.968  17.558  0.00  0.00    +0.000 C 
ATOM      6  C   UNL     1       5.461   4.456  17.903  0.00  0.00    +0.000 C 
ATOM      7  C   UNL     1       6.544   5.261  17.170  0.00  0.00    +0.000 C 
ATOM      8  C   UNL     1       6.367   6.759  17.472  0.00  0.00    +0.000 C 
ATOM      9  C   UNL     1       4.946   7.255  17.194  0.00  0.00    +0.000 C 
ATOM     10  H   UNL     1       3.001   8.698  17.911  0.00  0.00    +0.000 HD
ENDROOT
BRANCH   1  14
ATOM     11  C   UNL     1      -0.089  10.128  21.216  0.00  0.00    +0.000 A 
ATOM     12  C   UNL     1       0.578   8.993  21.677  0.00  0.00    +0.000 A 
ATOM     13  C   UNL     1       1.520   8.355  20.866  0.00  0.00    +0.000 A 
ATOM     14  C   UNL     1       1.797   8.820  19.580  0.00  0.00    +0.000 A 
ATOM     15  C   UNL     1       1.156   9.982  19.130  0.00  0.00    +0.000 A 
ATOM     16  C   UNL     1       0.213  10.628  19.942  0.00  0.00    +0.000 A 
BRANCH  11  18
ATOM     17  C   UNL     1      -1.889  11.958  21.449  0.00  0.00    +0.000 C 
ATOM     18  C   UNL     1      -1.114  10.815  22.055  0.00  0.00    +0.000 C 
ATOM     19  O   UNL     1      -1.313  10.443  23.208  0.00  0.00    +0.000 OA
ENDBRANCH  11  18
ENDBRANCH   1  14
BRANCH   7  20
ATOM     20  N   UNL     1       6.596   4.934  15.751  0.00  0.00    +0.000 N 
ATOM     21  C   UNL     1       5.829   4.018  15.090  0.00  0.00    +0.000 A 
ATOM     22  C   UNL     1       6.254   4.107  13.784  0.00  0.00    +0.000 A 
ATOM     23  N   UNL     1       7.277   5.012  13.705  0.00  0.00    +0.000 NA
ATOM     24  N   UNL     1       7.479   5.511  14.917  0.00  0.00    +0.000 NA
BRANCH  22  25
ATOM     25  C   UNL     1       5.735   3.368  12.659  0.00  0.00    +0.000 A 
ATOM     26  C   UNL     1       4.509   3.703  12.083  0.00  0.00    +0.000 A 
ATOM     27  C   UNL     1       4.032   2.968  10.999  0.00  0.00    +0.000 A 
ATOM     28  C   UNL     1       4.798   1.912  10.531  0.00  0.00    +0.000 A 
ATOM     29  N   UNL     1       5.984   1.552  11.064  0.00  0.00    +0.000 NA
ATOM     30  C   UNL     1       6.422   2.286  12.116  0.00  0.00    +0.000 A 
ENDBRANCH  22  25
ENDBRANCH   7  20
TORSDOF 4
ENDMDL
MODEL 9
REMARK VINA RESULT:      -7.6      9.009     11.241
REMARK  Name = 
REMARK  5 active torsions:
REMARK  status: ('A' for Active; 'I' for Inactive)
REMARK    1  A    between atoms: C_1  and  C_2
REMARK    2  A    between atoms: C_2  and  C_4
REMARK    3  A    between atoms: C_7  and  N_8
REMARK    4  A    between atoms: C_14  and  N_15
REMARK    5  A    between atoms: C_17  and  C_18
REMARK                            x       y       z     vdW  Elec       q    Type
REMARK                         _______ _______ _______ _____ _____    ______ ____
ROOT
ATOM      1  N   UNL     1       1.380   8.979  19.690  0.00  0.00    +0.000 N 
ATOM      2  C   UNL     1       0.431   9.745  19.052  0.00  0.00    +0.000 C 
ATOM      3  O   UNL     1       0.084   9.578  17.884  0.00  0.00    +0.000 OA
ATOM      4  N   UNL     1      -0.147  10.746  19.819  0.00  0.00    +0.000 N 
ATOM      5  C   UNL     1      -1.319  11.429  19.275  0.00  0.00    +0.000 C 
ATOM      6  C   UNL     1      -1.113  12.938  19.268  0.00  0.00    +0.000 C 
ATOM      7  C   UNL     1      -0.766  13.454  20.672  0.00  0.00    +0.000 C 
ATOM      8  C   UNL     1       0.450  12.688  21.220  0.00  0.00    +0.000 C 
ATOM      9  C   UNL     1       0.269  11.170  21.156  0.00  0.00    +0.000 C 
ATOM     10  H   UNL     1       1.292   8.907  20.690  0.00  0.00    +0.000 HD
ENDROOT
BRANCH   1  14
ATOM     11  C   UNL     1       3.729   5.984  17.847  0.00  0.00    +0.000 A 
ATOM     12  C   UNL     1       3.653   7.254  17.277  0.00  0.00    +0.000 A 
ATOM     13  C   UNL     1       2.899   8.255  17.893  0.00  0.00    +0.000 A 
ATOM     14  C   UNL     1       2.193   8.006  19.070  0.00  0.00    +0.000 A 
ATOM     15  C   UNL     1       2.299   6.742  19.664  0.00  0.00    +0.000 A 
ATOM     16  C   UNL     1       3.058   5.734  19.052  0.00  0.00    +0.000 A 
BRANCH  11  18
ATOM     17  C   UNL     1       5.254   5.198  15.923  0.00  0.00    +0.000 C 
ATOM     18  C   UNL     1       4.510   4.891  17.198  0.00  0.00    +0.000 C 
ATOM     19  O   UNL     1       4.541   3.774  17.707  0.00  0.00    +0.000 OA
ENDBRANCH  11  18
ENDBRANCH   1  14
BRANCH   7  20
ATOM     20  N   UNL     1      -1.927  13.451  21.552  0.00  0.00    +0.000 N 
ATOM     21  C   UNL     1      -3.190  13.032  21.246  0.00  0.00    +0.000 A 
ATOM     22  C   UNL     1      -3.896  13.219  22.414  0.00  0.00    +0.000 A 
ATOM     23  N   UNL     1      -3.073  13.781  23.351  0.00  0.00    +0.000 NA
ATOM     24  N   UNL     1      -1.870  13.922  22.811  0.00  0.00    +0.000 NA
BRANCH  22  25
ATOM     25  C   UNL     1      -5.283  12.896  22.639  0.00  0.00    +0.000 A 
ATOM     26  C   UNL     1      -6.134  12.595  21.575  0.00  0.00    +0.000 A 
ATOM     27  C   UNL     1      -7.470  12.290  21.824  0.00  0.00    +0.000 A 
ATOM     28  C   UNL     1      -7.915  12.304  23.137  0.00  0.00    +0.000 A 
ATOM     29  N   UNL     1      -7.127  12.595  24.193  0.00  0.00    +0.000 NA
ATOM     30  C   UNL     1      -5.833  12.887  23.918  0.00  0.00    +0.000 A 
ENDBRANCH  22  25
ENDBRANCH   7  20
TORSDOF 4
ENDMDL
