MODEL 1
REMARK VINA RESULT:      -9.2      0.000      0.000
REMARK  Name = 
REMARK  8 active torsions:
REMARK  status: ('A' for Active; 'I' for Inactive)
REMARK    1  A    between atoms: C_1  and  C_2
REMARK    2  A    between atoms: C_4  and  S_5
REMARK    3  A    between atoms: S_5  and  N_8
REMARK    4  A    between atoms: N_11  and  C_12
REMARK    5  A    between atoms: C_17  and  C_18
REMARK    6  A    between atoms: C_21  and  N_22
REMARK    7  A    between atoms: C_23  and  C_24
REMARK    8  A    between atoms: N_26  and  C_27
REMARK                            x       y       z     vdW  Elec       q    Type
REMARK                         _______ _______ _______ _____ _____    ______ ____
ROOT
ATOM      1  C   UNL     1       2.236   6.280  20.026  0.00  0.00    +0.000 A 
ATOM      2  C   UNL     1       1.718   5.260  20.826  0.00  0.00    +0.000 A 
ATOM      3  N   UNL     1       2.227   4.006  20.883  0.00  0.00    +0.000 NA
ATOM      4  C   UNL     1       3.288   3.754  20.091  0.00  0.00    +0.000 A 
ATOM      5  C   UNL     1       3.799   4.758  19.255  0.00  0.00    +0.000 A 
ATOM      6  N   UNL     1       3.288   6.034  19.209  0.00  0.00    +0.000 NA
ENDROOT
BRANCH   1  13
ATOM      7  C   UNL     1       2.284   8.228  17.660  0.00  0.00    +0.000 C 
ATOM      8  C   UNL     1       1.686   8.566  19.001  0.00  0.00    +0.000 A 
ATOM      9  C   UNL     1       1.098   9.844  19.166  0.00  0.00    +0.000 A 
ATOM     10  C   UNL     1       0.608  10.256  20.411  0.00  0.00    +0.000 A 
ATOM     11  C   UNL     1       0.761   9.430  21.513  0.00  0.00    +0.000 A 
ATOM     12  C   UNL     1       1.271   8.143  21.348  0.00  0.00    +0.000 A 
ATOM     13  C   UNL     1       1.726   7.667  20.097  0.00  0.00    +0.000 A 
BRANCH  10  14
ATOM     14  S   UNL     1      -0.104  11.882  20.624  0.00  0.00    +0.000 S 
ATOM     15  O   UNL     1      -1.500  11.763  20.260  0.00  0.00    +0.000 OA
ATOM     16  O   UNL     1       0.287  12.341  21.940  0.00  0.00    +0.000 OA
BRANCH  14  17
ATOM     17  N   UNL     1       0.660  12.874  19.503  0.00  0.00    +0.000 NA
ATOM     18  C   UNL     1       2.020  13.414  19.712  0.00  0.00    +0.000 C 
ATOM     19  C   UNL     1       2.011  14.905  20.100  0.00  0.00    +0.000 C 
ATOM     20  N   UNL     1       1.084  15.776  19.352  0.00  0.00    +0.000 NA
ATOM     21  C   UNL     1       0.869  17.027  20.089  0.00  0.00    +0.000 C 
ATOM     22  C   UNL     1      -0.213  15.142  19.043  0.00  0.00    +0.000 C 
ATOM     23  C   UNL     1      -0.122  13.688  18.553  0.00  0.00    +0.000 C 
ENDBRANCH  14  17
ENDBRANCH  10  14
ENDBRANCH   1  13
BRANCH   5  24
ATOM     24  C   UNL     1       4.948   4.513  18.320  0.00  0.00    +0.000 C 
ATOM     25  O   UNL     1       6.003   4.047  18.739  0.00  0.00    +0.000 OA
ATOM     26  N   UNL     1       4.666   4.852  17.007  0.00  0.00    +0.000 N 
ATOM     27  H   UNL     1       3.734   5.232  16.861  0.00  0.00    +0.000 HD
BRANCH  26  28
ATOM     28  C   UNL     1       5.542   4.812  15.903  0.00  0.00    +0.000 A 
ATOM     29  C   UNL     1       5.318   4.056  14.757  0.00  0.00    +0.000 A 
ATOM     30  C   UNL     1       6.269   4.037  13.736  0.00  0.00    +0.000 A 
ATOM     31  C   UNL     1       7.421   4.788  13.890  0.00  0.00    +0.000 A 
ATOM     32  N   UNL     1       7.669   5.559  14.970  0.00  0.00    +0.000 NA
ATOM     33  C   UNL     1       6.724   5.556  15.942  0.00  0.00    +0.000 A 
ENDBRANCH  26  28
ENDBRANCH   5  24
BRANCH   4  34
ATOM     34  N   UNL     1       3.841   2.496  20.281  0.00  0.00    +0.000 N 
ATOM     35  H   UNL     1       3.102   1.807  20.365  0.00  0.00    +0.000 HD
ATOM     36  H   UNL     1       4.555   2.269  19.592  0.00  0.00    +0.000 HD
ENDBRANCH   4  34
TORSDOF 6
ENDMDL
MODEL 2
REMARK VINA RESULT:      -9.1      2.026      2.387
REMARK  Name = 
REMARK  8 active torsions:
REMARK  status: ('A' for Active; 'I' for Inactive)
REMARK    1  A    between atoms: C_1  and  C_2
REMARK    2  A    between atoms: C_4  and  S_5
REMARK    3  A    between atoms: S_5  and  N_8
REMARK    4  A    between atoms: N_11  and  C_12
REMARK    5  A    between atoms: C_17  and  C_18
REMARK    6  A    between atoms: C_21  and  N_22
REMARK    7  A    between atoms: C_23  and  C_24
REMARK    8  A    between atoms: N_26  and  C_27
REMARK                            x       y       z     vdW  Elec       q    Type
REMARK                         _______ _______ _______ _____ _____    ______ ____
ROOT
ATOM      1  C   UNL     1       2.090   6.554  20.139  0.00  0.00    +0.000 A 
ATOM      2  C   UNL     1       1.479   5.571  20.922  0.00  0.00    +0.000 A 
ATOM      3  N   UNL     1       1.899   4.285  20.992  0.00  0.00    +0.000 NA
ATOM      4  C   UNL     1       2.963   3.961  20.231  0.00  0.00    +0.000 A 
ATOM      5  C   UNL     1       3.567   4.928  19.412  0.00  0.00    +0.000 A 
ATOM      6  N   UNL     1       3.146   6.236  19.354  0.00  0.00    +0.000 NA
ENDROOT
BRANCH   1  13
ATOM      7  C   UNL     1       2.116   8.429  17.715  0.00  0.00    +0.000 C 
ATOM      8  C   UNL     1       1.623   8.842  19.079  0.00  0.00    +0.000 A 
ATOM      9  C   UNL     1       1.129  10.159  19.238  0.00  0.00    +0.000 A 
ATOM     10  C   UNL     1       0.742  10.636  20.497  0.00  0.00    +0.000 A 
ATOM     11  C   UNL     1       0.909   9.831  21.613  0.00  0.00    +0.000 A 
ATOM     12  C   UNL     1       1.326   8.510  21.458  0.00  0.00    +0.000 A 
ATOM     13  C   UNL     1       1.673   7.972  20.198  0.00  0.00    +0.000 A 
BRANCH  10  14
ATOM     14  S   UNL     1       0.148  12.309  20.702  0.00  0.00    +0.000 S 
ATOM     15  O   UNL     1       1.099  12.972  21.569  0.00  0.00    +0.000 OA
ATOM     16  O   UNL     1      -0.134  12.820  19.377  0.00  0.00    +0.000 OA
BRANCH  14  17
ATOM     17  N   UNL     1      -1.320  12.185  21.511  0.00  0.00    +0.000 NA
ATOM     18  C   UNL     1      -2.610  12.534  20.880  0.00  0.00    +0.000 C 
ATOM     19  C   UNL     1      -3.161  13.887  21.369  0.00  0.00    +0.000 C 
ATOM     20  N   UNL     1      -3.064  14.154  22.818  0.00  0.00    +0.000 NA
ATOM     21  C   UNL     1      -3.215  15.591  23.072  0.00  0.00    +0.000 C 
ATOM     22  C   UNL     1      -1.815  13.661  23.433  0.00  0.00    +0.000 C 
ATOM     23  C   UNL     1      -1.383  12.255  22.983  0.00  0.00    +0.000 C 
ENDBRANCH  14  17
ENDBRANCH  10  14
ENDBRANCH   1  13
BRANCH   5  24
ATOM     24  C   UNL     1       4.724   4.605  18.512  0.00  0.00    +0.000 C 
ATOM     25  O   UNL     1       5.717   4.034  18.954  0.00  0.00    +0.000 OA
ATOM     26  N   UNL     1       4.524   5.003  17.201  0.00  0.00    +0.000 N 
ATOM     27  H   UNL     1       3.636   5.470  17.033  0.00  0.00    +0.000 HD
BRANCH  26  28
ATOM     28  C   UNL     1       5.434   4.914  16.128  0.00  0.00    +0.000 A 
ATOM     29  C   UNL     1       5.246   4.106  15.011  0.00  0.00    +0.000 A 
ATOM     30  C   UNL     1       6.229   4.041  14.023  0.00  0.00    +0.000 A 
ATOM     31  C   UNL     1       7.376   4.799  14.178  0.00  0.00    +0.000 A 
ATOM     32  N   UNL     1       7.590   5.619  15.229  0.00  0.00    +0.000 NA
ATOM     33  C   UNL     1       6.614   5.659  16.171  0.00  0.00    +0.000 A 
ENDBRANCH  26  28
ENDBRANCH   5  24
BRANCH   4  34
ATOM     34  N   UNL     1       3.424   2.669  20.435  0.00  0.00    +0.000 N 
ATOM     35  H   UNL     1       3.092   2.325  21.329  0.00  0.00    +0.000 HD
ATOM     36  H   UNL     1       3.236   2.052  19.648  0.00  0.00    +0.000 HD
ENDBRANCH   4  34
TORSDOF 6
ENDMDL
MODEL 3
REMARK VINA RESULT:      -8.9      0.920      1.110
REMARK  Name = 
REMARK  8 active torsions:
REMARK  status: ('A' for Active; 'I' for Inactive)
REMARK    1  A    between atoms: C_1  and  C_2
REMARK    2  A    between atoms: C_4  and  S_5
REMARK    3  A    between atoms: S_5  and  N_8
REMARK    4  A    between atoms: N_11  and  C_12
REMARK    5  A    between atoms: C_17  and  C_18
REMARK    6  A    between atoms: C_21  and  N_22
REMARK    7  A    between atoms: C_23  and  C_24
REMARK    8  A    between atoms: N_26  and  C_27
REMARK                            x       y       z     vdW  Elec       q    Type
REMARK                         _______ _______ _______ _____ _____    ______ ____
ROOT
ATOM      1  C   UNL     1       2.089   6.575  20.184  0.00  0.00    +0.000 A 
ATOM      2  C   UNL     1       1.497   5.532  20.899  0.00  0.00    +0.000 A 
ATOM      3  N   UNL     1       1.962   4.260  20.913  0.00  0.00    +0.000 NA
ATOM      4  C   UNL     1       3.055   4.014  20.164  0.00  0.00    +0.000 A 
ATOM      5  C   UNL     1       3.641   5.043  19.411  0.00  0.00    +0.000 A 
ATOM      6  N   UNL     1       3.174   6.337  19.409  0.00  0.00    +0.000 NA
ENDROOT
BRANCH   1  13
ATOM      7  C   UNL     1       1.917   8.517  17.819  0.00  0.00    +0.000 C 
ATOM      8  C   UNL     1       1.478   8.870  19.217  0.00  0.00    +0.000 A 
ATOM      9  C   UNL     1       0.939  10.161  19.439  0.00  0.00    +0.000 A 
ATOM     10  C   UNL     1       0.598  10.586  20.729  0.00  0.00    +0.000 A 
ATOM     11  C   UNL     1       0.854   9.759  21.811  0.00  0.00    +0.000 A 
ATOM     12  C   UNL     1       1.315   8.460  21.596  0.00  0.00    +0.000 A 
ATOM     13  C   UNL     1       1.619   7.972  20.305  0.00  0.00    +0.000 A 
BRANCH  10  14
ATOM     14  S   UNL     1      -0.051  12.227  21.013  0.00  0.00    +0.000 S 
ATOM     15  O   UNL     1      -0.753  12.600  19.802  0.00  0.00    +0.000 OA
ATOM     16  O   UNL     1      -0.733  12.194  22.289  0.00  0.00    +0.000 OA
BRANCH  14  17
ATOM     17  N   UNL     1       1.286  13.231  21.188  0.00  0.00    +0.000 NA
ATOM     18  C   UNL     1       1.199  14.572  21.802  0.00  0.00    +0.000 C 
ATOM     19  C   UNL     1       1.261  15.706  20.760  0.00  0.00    +0.000 C 
ATOM     20  N   UNL     1       2.259  15.558  19.683  0.00  0.00    +0.000 NA
ATOM     21  C   UNL     1       1.924  16.448  18.566  0.00  0.00    +0.000 C 
ATOM     22  C   UNL     1       2.411  14.172  19.196  0.00  0.00    +0.000 C 
ATOM     23  C   UNL     1       2.455  13.101  20.299  0.00  0.00    +0.000 C 
ENDBRANCH  14  17
ENDBRANCH  10  14
ENDBRANCH   1  13
BRANCH   5  24
ATOM     24  C   UNL     1       4.830   4.809  18.525  0.00  0.00    +0.000 C 
ATOM     25  O   UNL     1       5.910   4.479  19.005  0.00  0.00    +0.000 OA
ATOM     26  N   UNL     1       4.554   4.994  17.180  0.00  0.00    +0.000 N 
ATOM     27  H   UNL     1       3.596   5.276  16.981  0.00  0.00    +0.000 HD
BRANCH  26  28
ATOM     28  C   UNL     1       5.457   4.924  16.100  0.00  0.00    +0.000 A 
ATOM     29  C   UNL     1       5.269   4.123  14.977  0.00  0.00    +0.000 A 
ATOM     30  C   UNL     1       6.246   4.077  13.982  0.00  0.00    +0.000 A 
ATOM     31  C   UNL     1       7.386   4.846  14.136  0.00  0.00    +0.000 A 
ATOM     32  N   UNL     1       7.599   5.659  15.192  0.00  0.00    +0.000 NA
ATOM     33  C   UNL     1       6.629   5.681  16.141  0.00  0.00    +0.000 A 
ENDBRANCH  26  28
ENDBRANCH   5  24
BRANCH   4  34
ATOM     34  N   UNL     1       3.558   2.730  20.312  0.00  0.00    +0.000 N 
ATOM     35  H   UNL     1       3.531   2.249  19.420  0.00  0.00    +0.000 HD
ATOM     36  H   UNL     1       4.462   2.709  20.777  0.00  0.00    +0.000 HD
ENDBRANCH   4  34
TORSDOF 6
ENDMDL
MODEL 4
REMARK VINA RESULT:      -8.8      3.088      9.652
REMARK  Name = 
REMARK  8 active torsions:
REMARK  status: ('A' for Active; 'I' for Inactive)
REMARK    1  A    between atoms: C_1  and  C_2
REMARK    2  A    between atoms: C_4  and  S_5
REMARK    3  A    between atoms: S_5  and  N_8
REMARK    4  A    between atoms: N_11  and  C_12
REMARK    5  A    between atoms: C_17  and  C_18
REMARK    6  A    between atoms: C_21  and  N_22
REMARK    7  A    between atoms: C_23  and  C_24
REMARK    8  A    between atoms: N_26  and  C_27
REMARK                            x       y       z     vdW  Elec       q    Type
REMARK                         _______ _______ _______ _____ _____    ______ ____
ROOT
ATOM      1  C   UNL     1       0.633  10.332  19.282  0.00  0.00    +0.000 A 
ATOM      2  C   UNL     1      -0.760  10.273  19.213  0.00  0.00    +0.000 A 
ATOM      3  N   UNL     1      -1.572  11.355  19.287  0.00  0.00    +0.000 NA
ATOM      4  C   UNL     1      -0.966  12.547  19.457  0.00  0.00    +0.000 A 
ATOM      5  C   UNL     1       0.431  12.620  19.564  0.00  0.00    +0.000 A 
ATOM      6  N   UNL     1       1.253  11.520  19.476  0.00  0.00    +0.000 NA
ENDROOT
BRANCH   1  13
ATOM      7  C   UNL     1       1.264   8.282  21.472  0.00  0.00    +0.000 C 
ATOM      8  C   UNL     1       1.738   8.148  20.047  0.00  0.00    +0.000 A 
ATOM      9  C   UNL     1       2.497   7.002  19.704  0.00  0.00    +0.000 A 
ATOM     10  C   UNL     1       3.046   6.860  18.423  0.00  0.00    +0.000 A 
ATOM     11  C   UNL     1       2.903   7.885  17.501  0.00  0.00    +0.000 A 
ATOM     12  C   UNL     1       2.098   8.983  17.804  0.00  0.00    +0.000 A 
ATOM     13  C   UNL     1       1.479   9.138  19.066  0.00  0.00    +0.000 A 
BRANCH  10  14
ATOM     14  S   UNL     1       4.030   5.430  18.000  0.00  0.00    +0.000 S 
ATOM     15  O   UNL     1       4.496   5.645  16.646  0.00  0.00    +0.000 OA
ATOM     16  O   UNL     1       4.966   5.228  19.086  0.00  0.00    +0.000 OA
BRANCH  14  17
ATOM     17  N   UNL     1       2.974   4.122  18.003  0.00  0.00    +0.000 NA
ATOM     18  C   UNL     1       1.517   4.275  18.200  0.00  0.00    +0.000 C 
ATOM     19  C   UNL     1       1.063   3.851  19.610  0.00  0.00    +0.000 C 
ATOM     20  N   UNL     1       1.656   2.611  20.149  0.00  0.00    +0.000 NA
ATOM     21  C   UNL     1       1.479   2.565  21.605  0.00  0.00    +0.000 C 
ATOM     22  C   UNL     1       3.081   2.433  19.807  0.00  0.00    +0.000 C 
ATOM     23  C   UNL     1       3.444   2.768  18.351  0.00  0.00    +0.000 C 
ENDBRANCH  14  17
ENDBRANCH  10  14
ENDBRANCH   1  13
BRANCH   5  24
ATOM     24  C   UNL     1       1.149  13.916  19.802  0.00  0.00    +0.000 C 
ATOM     25  O   UNL     1       0.553  14.881  20.272  0.00  0.00    +0.000 OA
ATOM     26  N   UNL     1       2.489  13.873  19.452  0.00  0.00    +0.000 N 
ATOM     27  H   UNL     1       2.795  12.981  19.069  0.00  0.00    +0.000 HD
BRANCH  26  28
ATOM     28  C   UNL     1       3.420  14.931  19.483  0.00  0.00    +0.000 A 
ATOM     29  C   UNL     1       4.412  15.068  20.448  0.00  0.00    +0.000 A 
ATOM     30  C   UNL     1       5.255  16.179  20.429  0.00  0.00    +0.000 A 
ATOM     31  C   UNL     1       5.084  17.124  19.432  0.00  0.00    +0.000 A 
ATOM     32  N   UNL     1       4.155  17.019  18.459  0.00  0.00    +0.000 NA
ATOM     33  C   UNL     1       3.353  15.926  18.506  0.00  0.00    +0.000 A 
ENDBRANCH  26  28
ENDBRANCH   5  24
BRANCH   4  34
ATOM     34  N   UNL     1      -1.833  13.627  19.403  0.00  0.00    +0.000 N 
ATOM     35  H   UNL     1      -1.372  14.453  19.769  0.00  0.00    +0.000 HD
ATOM     36  H   UNL     1      -2.257  13.751  18.487  0.00  0.00    +0.000 HD
ENDBRANCH   4  34
TORSDOF 6
ENDMDL
MODEL 5
REMARK VINA RESULT:      -8.8      1.024      1.149
REMARK  Name = 
REMARK  8 active torsions:
REMARK  status: ('A' for Active; 'I' for Inactive)
REMARK    1  A    between atoms: C_1  and  C_2
REMARK    2  A    between atoms: C_4  and  S_5
REMARK    3  A    between atoms: S_5  and  N_8
REMARK    4  A    between atoms: N_11  and  C_12
REMARK    5  A    between atoms: C_17  and  C_18
REMARK    6  A    between atoms: C_21  and  N_22
REMARK    7  A    between atoms: C_23  and  C_24
REMARK    8  A    between atoms: N_26  and  C_27
REMARK                            x       y       z     vdW  Elec       q    Type
REMARK                         _______ _______ _______ _____ _____    ______ ____
ROOT
ATOM      1  C   UNL     1       2.811   5.860  19.630  0.00  0.00    +0.000 A 
ATOM      2  C   UNL     1       2.488   4.791  20.469  0.00  0.00    +0.000 A 
ATOM      3  N   UNL     1       3.144   3.606  20.478  0.00  0.00    +0.000 NA
ATOM      4  C   UNL     1       4.156   3.476  19.596  0.00  0.00    +0.000 A 
ATOM      5  C   UNL     1       4.470   4.527  18.722  0.00  0.00    +0.000 A 
ATOM      6  N   UNL     1       3.809   5.734  18.725  0.00  0.00    +0.000 NA
ENDROOT
BRANCH   1  13
ATOM      7  C   UNL     1       2.926   8.020  17.459  0.00  0.00    +0.000 C 
ATOM      8  C   UNL     1       2.140   8.168  18.736  0.00  0.00    +0.000 A 
ATOM      9  C   UNL     1       1.402   9.361  18.929  0.00  0.00    +0.000 A 
ATOM     10  C   UNL     1       0.725   9.602  20.131  0.00  0.00    +0.000 A 
ATOM     11  C   UNL     1       0.835   8.693  21.172  0.00  0.00    +0.000 A 
ATOM     12  C   UNL     1       1.498   7.484  20.968  0.00  0.00    +0.000 A 
ATOM     13  C   UNL     1       2.147   7.176  19.750  0.00  0.00    +0.000 A 
BRANCH  10  14
ATOM     14  S   UNL     1      -0.180  11.122  20.385  0.00  0.00    +0.000 S 
ATOM     15  O   UNL     1      -0.971  11.327  19.190  0.00  0.00    +0.000 OA
ATOM     16  O   UNL     1      -0.807  11.025  21.686  0.00  0.00    +0.000 OA
BRANCH  14  17
ATOM     17  N   UNL     1       0.975  12.340  20.479  0.00  0.00    +0.000 NA
ATOM     18  C   UNL     1       0.869  13.468  21.428  0.00  0.00    +0.000 C 
ATOM     19  C   UNL     1       0.440  14.780  20.742  0.00  0.00    +0.000 C 
ATOM     20  N   UNL     1       1.081  15.089  19.449  0.00  0.00    +0.000 NA
ATOM     21  C   UNL     1       0.294  16.096  18.729  0.00  0.00    +0.000 C 
ATOM     22  C   UNL     1       1.295  13.906  18.591  0.00  0.00    +0.000 C 
ATOM     23  C   UNL     1       1.831  12.664  19.323  0.00  0.00    +0.000 C 
ENDBRANCH  14  17
ENDBRANCH  10  14
ENDBRANCH   1  13
BRANCH   5  24
ATOM     24  C   UNL     1       5.555   4.413  17.691  0.00  0.00    +0.000 C 
ATOM     25  O   UNL     1       6.712   4.179  18.027  0.00  0.00    +0.000 OA
ATOM     26  N   UNL     1       5.098   4.586  16.395  0.00  0.00    +0.000 N 
ATOM     27  H   UNL     1       4.101   4.781  16.322  0.00  0.00    +0.000 HD
BRANCH  26  28
ATOM     28  C   UNL     1       5.862   4.611  15.210  0.00  0.00    +0.000 A 
ATOM     29  C   UNL     1       5.577   3.848  14.082  0.00  0.00    +0.000 A 
ATOM     30  C   UNL     1       6.423   3.898  12.974  0.00  0.00    +0.000 A 
ATOM     31  C   UNL     1       7.533   4.723  13.024  0.00  0.00    +0.000 A 
ATOM     32  N   UNL     1       7.834   5.503  14.084  0.00  0.00    +0.000 NA
ATOM     33  C   UNL     1       6.990   5.431  15.144  0.00  0.00    +0.000 A 
ENDBRANCH  26  28
ENDBRANCH   5  24
BRANCH   4  34
ATOM     34  N   UNL     1       4.868   2.294  19.733  0.00  0.00    +0.000 N 
ATOM     35  H   UNL     1       5.764   2.485  20.168  0.00  0.00    +0.000 HD
ATOM     36  H   UNL     1       4.330   1.555  20.180  0.00  0.00    +0.000 HD
ENDBRANCH   4  34
TORSDOF 6
ENDMDL
MODEL 6
REMARK VINA RESULT:      -8.7      2.970      9.596
REMARK  Name = 
REMARK  8 active torsions:
REMARK  status: ('A' for Active; 'I' for Inactive)
REMARK    1  A    between atoms: C_1  and  C_2
REMARK    2  A    between atoms: C_4  and  S_5
REMARK    3  A    between atoms: S_5  and  N_8
REMARK    4  A    between atoms: N_11  and  C_12
REMARK    5  A    between atoms: C_17  and  C_18
REMARK    6  A    between atoms: C_21  and  N_22
REMARK    7  A    between atoms: C_23  and  C_24
REMARK    8  A    between atoms: N_26  and  C_27
REMARK                            x       y       z     vdW  Elec       q    Type
REMARK                         _______ _______ _______ _____ _____    ______ ____
ROOT
ATOM      1  C   UNL     1       1.144   9.501  18.546  0.00  0.00    +0.000 A 
ATOM      2  C   UNL     1      -0.136   9.372  18.001  0.00  0.00    +0.000 A 
ATOM      3  N   UNL     1      -1.008  10.399  17.859  0.00  0.00    +0.000 NA
ATOM      4  C   UNL     1      -0.592  11.603  18.299  0.00  0.00    +0.000 A 
ATOM      5  C   UNL     1       0.677  11.742  18.881  0.00  0.00    +0.000 A 
ATOM      6  N   UNL     1       1.565  10.700  19.013  0.00  0.00    +0.000 NA
ENDROOT
BRANCH   1  13
ATOM      7  C   UNL     1       1.447   7.560  20.899  0.00  0.00    +0.000 C 
ATOM      8  C   UNL     1       2.223   7.433  19.613  0.00  0.00    +0.000 A 
ATOM      9  C   UNL     1       3.123   6.348  19.482  0.00  0.00    +0.000 A 
ATOM     10  C   UNL     1       3.942   6.224  18.353  0.00  0.00    +0.000 A 
ATOM     11  C   UNL     1       3.921   7.212  17.381  0.00  0.00    +0.000 A 
ATOM     12  C   UNL     1       2.988   8.245  17.465  0.00  0.00    +0.000 A 
ATOM     13  C   UNL     1       2.105   8.376  18.560  0.00  0.00    +0.000 A 
BRANCH  10  14
ATOM     14  S   UNL     1       5.100   4.871  18.203  0.00  0.00    +0.000 S 
ATOM     15  O   UNL     1       5.735   5.022  16.910  0.00  0.00    +0.000 OA
ATOM     16  O   UNL     1       5.884   4.853  19.420  0.00  0.00    +0.000 OA
BRANCH  14  17
ATOM     17  N   UNL     1       4.175   3.467  18.185  0.00  0.00    +0.000 NA
ATOM     18  C   UNL     1       2.963   3.322  17.352  0.00  0.00    +0.000 C 
ATOM     19  C   UNL     1       1.664   3.428  18.174  0.00  0.00    +0.000 C 
ATOM     20  N   UNL     1       1.641   2.717  19.467  0.00  0.00    +0.000 NA
ATOM     21  C   UNL     1       0.559   3.242  20.307  0.00  0.00    +0.000 C 
ATOM     22  C   UNL     1       2.922   2.772  20.201  0.00  0.00    +0.000 C 
ATOM     23  C   UNL     1       4.173   2.545  19.336  0.00  0.00    +0.000 C 
ENDBRANCH  14  17
ENDBRANCH  10  14
ENDBRANCH   1  13
BRANCH   5  24
ATOM     24  C   UNL     1       1.167  13.051  19.429  0.00  0.00    +0.000 C 
ATOM     25  O   UNL     1       0.480  13.692  20.219  0.00  0.00    +0.000 OA
ATOM     26  N   UNL     1       2.421  13.406  18.959  0.00  0.00    +0.000 N 
ATOM     27  H   UNL     1       2.827  12.744  18.301  0.00  0.00    +0.000 HD
BRANCH  26  28
ATOM     28  C   UNL     1       3.131  14.596  19.219  0.00  0.00    +0.000 A 
ATOM     29  C   UNL     1       4.147  14.707  20.163  0.00  0.00    +0.000 A 
ATOM     30  C   UNL     1       4.757  15.941  20.389  0.00  0.00    +0.000 A 
ATOM     31  C   UNL     1       4.334  17.034  19.653  0.00  0.00    +0.000 A 
ATOM     32  N   UNL     1       3.374  16.969  18.708  0.00  0.00    +0.000 NA
ATOM     33  C   UNL     1       2.802  15.754  18.512  0.00  0.00    +0.000 A 
ENDBRANCH  26  28
ENDBRANCH   5  24
BRANCH   4  34
ATOM     34  N   UNL     1      -1.473  12.636  18.017  0.00  0.00    +0.000 N 
ATOM     35  H   UNL     1      -1.704  12.628  17.030  0.00  0.00    +0.000 HD
ATOM     36  H   UNL     1      -2.277  12.654  18.640  0.00  0.00    +0.000 HD
ENDBRANCH   4  34
TORSDOF 6
ENDMDL
MODEL 7
REMARK VINA RESULT:      -8.7      1.530      2.399
REMARK  Name = 
REMARK  8 active torsions:
REMARK  status: ('A' for Active; 'I' for Inactive)
REMARK    1  A    between atoms: C_1  and  C_2
REMARK    2  A    between atoms: C_4  and  S_5
REMARK    3  A    between atoms: S_5  and  N_8
REMARK    4  A    between atoms: N_11  and  C_12
REMARK    5  A    between atoms: C_17  and  C_18
REMARK    6  A    between atoms: C_21  and  N_22
REMARK    7  A    between atoms: C_23  and  C_24
REMARK    8  A    between atoms: N_26  and  C_27
REMARK                            x       y       z     vdW  Elec       q    Type
REMARK                         _______ _______ _______ _____ _____    ______ ____
ROOT
ATOM      1  C   UNL     1       1.921   6.651  20.134  0.00  0.00    +0.000 A 
ATOM      2  C   UNL     1       1.205   5.670  20.824  0.00  0.00    +0.000 A 
ATOM      3  N   UNL     1       1.535   4.356  20.839  0.00  0.00    +0.000 NA
ATOM      4  C   UNL     1       2.616   4.003  20.116  0.00  0.00    +0.000 A 
ATOM      5  C   UNL     1       3.326   4.970  19.388  0.00  0.00    +0.000 A 
ATOM      6  N   UNL     1       2.996   6.305  19.386  0.00  0.00    +0.000 NA
ENDROOT
BRANCH   1  13
ATOM      7  C   UNL     1       1.958   8.602  17.771  0.00  0.00    +0.000 C 
ATOM      8  C   UNL     1       1.552   8.997  19.168  0.00  0.00    +0.000 A 
ATOM      9  C   UNL     1       1.147  10.336  19.390  0.00  0.00    +0.000 A 
ATOM     10  C   UNL     1       0.846  10.792  20.679  0.00  0.00    +0.000 A 
ATOM     11  C   UNL     1       1.011   9.941  21.761  0.00  0.00    +0.000 A 
ATOM     12  C   UNL     1       1.338   8.603  21.546  0.00  0.00    +0.000 A 
ATOM     13  C   UNL     1       1.596   8.088  20.255  0.00  0.00    +0.000 A 
BRANCH  10  14
ATOM     14  S   UNL     1       0.366  12.490  20.963  0.00  0.00    +0.000 S 
ATOM     15  O   UNL     1      -0.042  12.569  22.350  0.00  0.00    +0.000 OA
ATOM     16  O   UNL     1       1.438  13.320  20.454  0.00  0.00    +0.000 OA
BRANCH  14  17
ATOM     17  N   UNL     1      -0.979  12.762  19.992  0.00  0.00    +0.000 NA
ATOM     18  C   UNL     1      -2.247  12.023  20.163  0.00  0.00    +0.000 C 
ATOM     19  C   UNL     1      -2.455  10.946  19.080  0.00  0.00    +0.000 C 
ATOM     20  N   UNL     1      -2.118  11.329  17.695  0.00  0.00    +0.000 NA
ATOM     21  C   UNL     1      -1.951  10.126  16.871  0.00  0.00    +0.000 C 
ATOM     22  C   UNL     1      -0.919  12.185  17.587  0.00  0.00    +0.000 C 
ATOM     23  C   UNL     1      -0.833  13.311  18.631  0.00  0.00    +0.000 C 
ENDBRANCH  14  17
ENDBRANCH  10  14
ENDBRANCH   1  13
BRANCH   5  24
ATOM     24  C   UNL     1       4.507   4.619  18.531  0.00  0.00    +0.000 C 
ATOM     25  O   UNL     1       5.446   3.979  18.995  0.00  0.00    +0.000 OA
ATOM     26  N   UNL     1       4.393   5.077  17.228  0.00  0.00    +0.000 N 
ATOM     27  H   UNL     1       3.539   5.597  17.038  0.00  0.00    +0.000 HD
BRANCH  26  28
ATOM     28  C   UNL     1       5.348   4.979  16.196  0.00  0.00    +0.000 A 
ATOM     29  C   UNL     1       5.237   4.116  15.110  0.00  0.00    +0.000 A 
ATOM     30  C   UNL     1       6.260   4.049  14.164  0.00  0.00    +0.000 A 
ATOM     31  C   UNL     1       7.369   4.860  14.330  0.00  0.00    +0.000 A 
ATOM     32  N   UNL     1       7.508   5.733  15.350  0.00  0.00    +0.000 NA
ATOM     33  C   UNL     1       6.495   5.774  16.251  0.00  0.00    +0.000 A 
ENDBRANCH  26  28
ENDBRANCH   5  24
BRANCH   4  34
ATOM     34  N   UNL     1       2.978   2.673  20.265  0.00  0.00    +0.000 N 
ATOM     35  H   UNL     1       2.365   2.226  20.938  0.00  0.00    +0.000 HD
ATOM     36  H   UNL     1       3.063   2.182  19.378  0.00  0.00    +0.000 HD
ENDBRANCH   4  34
TORSDOF 6
ENDMDL
MODEL 8
REMARK VINA RESULT:      -8.6      3.684      9.541
REMARK  Name = 
REMARK  8 active torsions:
REMARK  status: ('A' for Active; 'I' for Inactive)
REMARK    1  A    between atoms: C_1  and  C_2
REMARK    2  A    between atoms: C_4  and  S_5
REMARK    3  A    between atoms: S_5  and  N_8
REMARK    4  A    between atoms: N_11  and  C_12
REMARK    5  A    between atoms: C_17  and  C_18
REMARK    6  A    between atoms: C_21  and  N_22
REMARK    7  A    between atoms: C_23  and  C_24
REMARK    8  A    between atoms: N_26  and  C_27
REMARK                            x       y       z     vdW  Elec       q    Type
REMARK                         _______ _______ _______ _____ _____    ______ ____
ROOT
ATOM      1  C   UNL     1       1.331   8.704  20.631  0.00  0.00    +0.000 A 
ATOM      2  C   UNL     1       1.466   8.876  22.011  0.00  0.00    +0.000 A 
ATOM      3  N   UNL     1       0.708   9.721  22.750  0.00  0.00    +0.000 NA
ATOM      4  C   UNL     1      -0.214  10.440  22.079  0.00  0.00    +0.000 A 
ATOM      5  C   UNL     1      -0.340  10.305  20.688  0.00  0.00    +0.000 A 
ATOM      6  N   UNL     1       0.424   9.437  19.942  0.00  0.00    +0.000 NA
ENDROOT
BRANCH   1  13
ATOM      7  C   UNL     1       2.097   8.961  17.675  0.00  0.00    +0.000 C 
ATOM      8  C   UNL     1       2.509   7.798  18.541  0.00  0.00    +0.000 A 
ATOM      9  C   UNL     1       3.308   6.784  17.959  0.00  0.00    +0.000 A 
ATOM     10  C   UNL     1       3.648   5.633  18.680  0.00  0.00    +0.000 A 
ATOM     11  C   UNL     1       3.138   5.451  19.957  0.00  0.00    +0.000 A 
ATOM     12  C   UNL     1       2.412   6.474  20.565  0.00  0.00    +0.000 A 
ATOM     13  C   UNL     1       2.095   7.676  19.892  0.00  0.00    +0.000 A 
BRANCH  10  14
ATOM     14  S   UNL     1       4.630   4.340  17.934  0.00  0.00    +0.000 S 
ATOM     15  O   UNL     1       4.542   4.539  16.503  0.00  0.00    +0.000 OA
ATOM     16  O   UNL     1       5.910   4.342  18.610  0.00  0.00    +0.000 OA
BRANCH  14  17
ATOM     17  N   UNL     1       3.865   2.893  18.322  0.00  0.00    +0.000 NA
ATOM     18  C   UNL     1       2.465   2.607  17.943  0.00  0.00    +0.000 C 
ATOM     19  C   UNL     1       1.494   2.721  19.135  0.00  0.00    +0.000 C 
ATOM     20  N   UNL     1       1.946   2.136  20.412  0.00  0.00    +0.000 NA
ATOM     21  C   UNL     1       1.151   2.680  21.519  0.00  0.00    +0.000 C 
ATOM     22  C   UNL     1       3.385   2.328  20.681  0.00  0.00    +0.000 C 
ATOM     23  C   UNL     1       4.307   2.087  19.474  0.00  0.00    +0.000 C 
ENDBRANCH  14  17
ENDBRANCH  10  14
ENDBRANCH   1  13
BRANCH   5  24
ATOM     24  C   UNL     1      -1.317  11.117  19.890  0.00  0.00    +0.000 C 
ATOM     25  O   UNL     1      -1.591  12.266  20.224  0.00  0.00    +0.000 OA
ATOM     26  N   UNL     1      -1.825  10.441  18.793  0.00  0.00    +0.000 N 
ATOM     27  H   UNL     1      -1.480   9.489  18.689  0.00  0.00    +0.000 HD
BRANCH  26  28
ATOM     28  C   UNL     1      -2.808  10.888  17.887  0.00  0.00    +0.000 A 
ATOM     29  C   UNL     1      -4.041  11.408  18.268  0.00  0.00    +0.000 A 
ATOM     30  C   UNL     1      -4.973  11.775  17.297  0.00  0.00    +0.000 A 
ATOM     31  C   UNL     1      -4.638  11.618  15.964  0.00  0.00    +0.000 A 
ATOM     32  N   UNL     1      -3.445  11.146  15.546  0.00  0.00    +0.000 NA
ATOM     33  C   UNL     1      -2.561  10.799  16.515  0.00  0.00    +0.000 A 
ENDBRANCH  26  28
ENDBRANCH   5  24
BRANCH   4  34
ATOM     34  N   UNL     1      -1.041  11.192  22.899  0.00  0.00    +0.000 N 
ATOM     35  H   UNL     1      -1.746  11.657  22.337  0.00  0.00    +0.000 HD
ATOM     36  H   UNL     1      -1.409  10.663  23.686  0.00  0.00    +0.000 HD
ENDBRANCH   4  34
TORSDOF 6
ENDMDL
MODEL 9
REMARK VINA RESULT:      -8.5      3.311      9.128
REMARK  Name = 
REMARK  8 active torsions:
REMARK  status: ('A' for Active; 'I' for Inactive)
REMARK    1  A    between atoms: C_1  and  C_2
REMARK    2  A    between atoms: C_4  and  S_5
REMARK    3  A    between atoms: S_5  and  N_8
REMARK    4  A    between atoms: N_11  and  C_12
REMARK    5  A    between atoms: C_17  and  C_18
REMARK    6  A    between atoms: C_21  and  N_22
REMARK    7  A    between atoms: C_23  and  C_24
REMARK    8  A    between atoms: N_26  and  C_27
REMARK                            x       y       z     vdW  Elec       q    Type
REMARK                         _______ _______ _______ _____ _____    ______ ____
ROOT
ATOM      1  C   UNL     1       1.294   8.542  20.614  0.00  0.00    +0.000 A 
ATOM      2  C   UNL     1       1.553   8.821  21.957  0.00  0.00    +0.000 A 
ATOM      3  N   UNL     1       0.946   9.807  22.660  0.00  0.00    +0.000 NA
ATOM      4  C   UNL     1       0.054  10.560  21.986  0.00  0.00    +0.000 A 
ATOM      5  C   UNL     1      -0.193  10.315  20.627  0.00  0.00    +0.000 A 
ATOM      6  N   UNL     1       0.417   9.305  19.919  0.00  0.00    +0.000 NA
ENDROOT
BRANCH   1  13
ATOM      7  C   UNL     1       2.503   8.661  17.799  0.00  0.00    +0.000 C 
ATOM      8  C   UNL     1       2.502   7.417  18.651  0.00  0.00    +0.000 A 
ATOM      9  C   UNL     1       3.112   6.251  18.127  0.00  0.00    +0.000 A 
ATOM     10  C   UNL     1       3.065   5.039  18.825  0.00  0.00    +0.000 A 
ATOM     11  C   UNL     1       2.355   4.962  20.013  0.00  0.00    +0.000 A 
ATOM     12  C   UNL     1       1.814   6.118  20.574  0.00  0.00    +0.000 A 
ATOM     13  C   UNL     1       1.888   7.373  19.928  0.00  0.00    +0.000 A 
BRANCH  10  14
ATOM     14  S   UNL     1       3.807   3.560  18.148  0.00  0.00    +0.000 S 
ATOM     15  O   UNL     1       3.660   2.534  19.159  0.00  0.00    +0.000 OA
ATOM     16  O   UNL     1       3.255   3.383  16.822  0.00  0.00    +0.000 OA
BRANCH  14  17
ATOM     17  N   UNL     1       5.443   3.903  17.965  0.00  0.00    +0.000 NA
ATOM     18  C   UNL     1       6.268   4.456  19.059  0.00  0.00    +0.000 C 
ATOM     19  C   UNL     1       6.568   5.956  18.875  0.00  0.00    +0.000 C 
ATOM     20  N   UNL     1       6.933   6.394  17.513  0.00  0.00    +0.000 NA
ATOM     21  C   UNL     1       6.768   7.846  17.394  0.00  0.00    +0.000 C 
ATOM     22  C   UNL     1       6.177   5.710  16.444  0.00  0.00    +0.000 C 
ATOM     23  C   UNL     1       6.013   4.193  16.636  0.00  0.00    +0.000 C 
ENDBRANCH  14  17
ENDBRANCH  10  14
ENDBRANCH   1  13
BRANCH   5  24
ATOM     24  C   UNL     1      -1.140  11.156  19.822  0.00  0.00    +0.000 C 
ATOM     25  O   UNL     1      -1.253  12.357  20.047  0.00  0.00    +0.000 OA
ATOM     26  N   UNL     1      -1.816  10.439  18.847  0.00  0.00    +0.000 N 
ATOM     27  H   UNL     1      -1.590   9.446  18.823  0.00  0.00    +0.000 HD
BRANCH  26  28
ATOM     28  C   UNL     1      -2.819  10.908  17.975  0.00  0.00    +0.000 A 
ATOM     29  C   UNL     1      -4.031  11.445  18.398  0.00  0.00    +0.000 A 
ATOM     30  C   UNL     1      -4.987  11.834  17.459  0.00  0.00    +0.000 A 
ATOM     31  C   UNL     1      -4.696  11.682  16.115  0.00  0.00    +0.000 A 
ATOM     32  N   UNL     1      -3.524  11.194  15.657  0.00  0.00    +0.000 NA
ATOM     33  C   UNL     1      -2.616  10.826  16.596  0.00  0.00    +0.000 A 
ENDBRANCH  26  28
ENDBRANCH   5  24
BRANCH   4  34
ATOM     34  N   UNL     1      -0.625  11.470  22.783  0.00  0.00    +0.000 N 
ATOM     35  H   UNL     1      -1.203  12.067  22.202  0.00  0.00    +0.000 HD
ATOM     36  H   UNL     1      -1.115  11.030  23.558  0.00  0.00    +0.000 HD
ENDBRANCH   4  34
TORSDOF 6
ENDMDL
