MODEL 1
REMARK VINA RESULT:      -6.8      0.000      0.000
REMARK  Name = 
REMARK  6 active torsions:
REMARK  status: ('A' for Active; 'I' for Inactive)
REMARK    1  A    between atoms: C_1  and  C_2
REMARK    2  A    between atoms: C_2  and  C_3
REMARK    3  A    between atoms: C_3  and  C_4
REMARK    4  A    between atoms: C_4  and  C_5
REMARK    5  A    between atoms: C_7  and  O_8
REMARK    6  A    between atoms: C_9  and  C_10
REMARK                            x       y       z     vdW  Elec       q    Type
REMARK                         _______ _______ _______ _____ _____    ______ ____
ROOT
ATOM      1  C   UNL     1       5.114   4.798  18.286  0.00  0.00    +0.000 A 
ATOM      2  N   UNL     1       5.370   3.559  18.776  0.00  0.00    +0.000 NA
ATOM      3  C   UNL     1       4.519   3.063  19.690  0.00  0.00    +0.000 A 
ATOM      4  C   UNL     1       3.418   3.721  20.199  0.00  0.00    +0.000 A 
ATOM      5  C   UNL     1       3.162   5.018  19.717  0.00  0.00    +0.000 A 
ATOM      6  C   UNL     1       3.999   5.556  18.703  0.00  0.00    +0.000 A 
ATOM      7  C   UNL     1       3.709   6.916  18.105  0.00  0.00    +0.000 C 
ATOM      8  C   UNL     1       2.328   7.475  18.445  0.00  0.00    +0.000 C 
ATOM      9  C   UNL     1       2.032   7.285  19.922  0.00  0.00    +0.000 C 
ATOM     10  C   UNL     1       1.971   5.795  20.242  0.00  0.00    +0.000 C 
ENDROOT
BRANCH   3  11
ATOM     11  O   UNL     1       4.847   1.803  20.068  0.00  0.00    +0.000 OA
ATOM     12  H   UNL     1       4.122   1.618  20.692  0.00  0.00    +0.000 HD
ENDBRANCH   3  11
BRANCH   4  13
ATOM     13  C   UNL     1       2.580   3.080  21.166  0.00  0.00    +0.000 C 
ATOM     14  N   UNL     1       1.862   2.546  21.910  0.00  0.00    +0.000 NA
ENDBRANCH   4  13
BRANCH   1  15
ATOM     15  C   UNL     1       6.103   5.268  17.242  0.00  0.00    +0.000 C 
BRANCH  15  16
ATOM     16  C   UNL     1       7.557   5.402  17.712  0.00  0.00    +0.000 C 
BRANCH  16  18
ATOM     17  C   UNL     1       7.666   7.910  17.546  0.00  0.00    +0.000 C 
ATOM     18  C   UNL     1       7.877   6.704  18.454  0.00  0.00    +0.000 C 
ENDBRANCH  16  18
ENDBRANCH  15  16
ENDBRANCH   1  15
TORSDOF 5
ENDMDL
MODEL 2
REMARK VINA RESULT:      -6.6      1.450      2.111
REMARK  Name = 
REMARK  6 active torsions:
REMARK  status: ('A' for Active; 'I' for Inactive)
REMARK    1  A    between atoms: C_1  and  C_2
REMARK    2  A    between atoms: C_2  and  C_3
REMARK    3  A    between atoms: C_3  and  C_4
REMARK    4  A    between atoms: C_4  and  C_5
REMARK    5  A    between atoms: C_7  and  O_8
REMARK    6  A    between atoms: C_9  and  C_10
REMARK                            x       y       z     vdW  Elec       q    Type
REMARK                         _______ _______ _______ _____ _____    ______ ____
ROOT
ATOM      1  C   UNL     1       5.041   5.259  17.800  0.00  0.00    +0.000 A 
ATOM      2  N   UNL     1       5.360   4.039  18.300  0.00  0.00    +0.000 NA
ATOM      3  C   UNL     1       4.597   3.555  19.294  0.00  0.00    +0.000 A 
ATOM      4  C   UNL     1       3.529   4.209  19.875  0.00  0.00    +0.000 A 
ATOM      5  C   UNL     1       3.211   5.488  19.382  0.00  0.00    +0.000 A 
ATOM      6  C   UNL     1       3.951   6.010  18.288  0.00  0.00    +0.000 A 
ATOM      7  C   UNL     1       3.588   7.349  17.681  0.00  0.00    +0.000 C 
ATOM      8  C   UNL     1       2.229   7.894  18.119  0.00  0.00    +0.000 C 
ATOM      9  C   UNL     1       2.060   7.741  19.619  0.00  0.00    +0.000 C 
ATOM     10  C   UNL     1       2.053   6.260  19.982  0.00  0.00    +0.000 C 
ENDROOT
BRANCH   3  11
ATOM     11  O   UNL     1       4.978   2.312  19.677  0.00  0.00    +0.000 OA
ATOM     12  H   UNL     1       5.278   1.954  18.821  0.00  0.00    +0.000 HD
ENDBRANCH   3  11
BRANCH   4  13
ATOM     13  C   UNL     1       2.785   3.582  20.925  0.00  0.00    +0.000 C 
ATOM     14  N   UNL     1       2.230   3.050  21.798  0.00  0.00    +0.000 NA
ENDBRANCH   4  13
BRANCH   1  15
ATOM     15  C   UNL     1       5.933   5.716  16.666  0.00  0.00    +0.000 C 
BRANCH  15  16
ATOM     16  C   UNL     1       5.544   5.216  15.268  0.00  0.00    +0.000 C 
BRANCH  16  18
ATOM     17  C   UNL     1       6.046   3.748  13.288  0.00  0.00    +0.000 C 
ATOM     18  C   UNL     1       6.594   4.335  14.584  0.00  0.00    +0.000 C 
ENDBRANCH  16  18
ENDBRANCH  15  16
ENDBRANCH   1  15
TORSDOF 5
ENDMDL
MODEL 3
REMARK VINA RESULT:      -6.6      2.077      4.897
REMARK  Name = 
REMARK  6 active torsions:
REMARK  status: ('A' for Active; 'I' for Inactive)
REMARK    1  A    between atoms: C_1  and  C_2
REMARK    2  A    between atoms: C_2  and  C_3
REMARK    3  A    between atoms: C_3  and  C_4
REMARK    4  A    between atoms: C_4  and  C_5
REMARK    5  A    between atoms: C_7  and  O_8
REMARK    6  A    between atoms: C_9  and  C_10
REMARK                            x       y       z     vdW  Elec       q    Type
REMARK                         _______ _______ _______ _____ _____    ______ ____
ROOT
ATOM      1  C   UNL     1       3.071   4.948  19.995  0.00  0.00    +0.000 A 
ATOM      2  N   UNL     1       3.980   4.159  19.367  0.00  0.00    +0.000 NA
ATOM      3  C   UNL     1       4.555   4.639  18.252  0.00  0.00    +0.000 A 
ATOM      4  C   UNL     1       4.278   5.859  17.669  0.00  0.00    +0.000 A 
ATOM      5  C   UNL     1       3.316   6.671  18.298  0.00  0.00    +0.000 A 
ATOM      6  C   UNL     1       2.730   6.230  19.515  0.00  0.00    +0.000 A 
ATOM      7  C   UNL     1       1.749   7.110  20.261  0.00  0.00    +0.000 C 
ATOM      8  C   UNL     1       1.706   8.559  19.778  0.00  0.00    +0.000 C 
ATOM      9  C   UNL     1       1.672   8.608  18.262  0.00  0.00    +0.000 C 
ATOM     10  C   UNL     1       2.964   8.020  17.704  0.00  0.00    +0.000 C 
ENDROOT
BRANCH   3  11
ATOM     11  O   UNL     1       5.478   3.787  17.742  0.00  0.00    +0.000 OA
ATOM     12  H   UNL     1       4.926   2.993  17.615  0.00  0.00    +0.000 HD
ENDBRANCH   3  11
BRANCH   4  13
ATOM     13  C   UNL     1       4.968   6.262  16.482  0.00  0.00    +0.000 C 
ATOM     14  N   UNL     1       5.553   6.538  15.515  0.00  0.00    +0.000 NA
ENDBRANCH   4  13
BRANCH   1  15
ATOM     15  C   UNL     1       2.493   4.344  21.257  0.00  0.00    +0.000 C 
BRANCH  15  16
ATOM     16  C   UNL     1       1.589   3.121  21.058  0.00  0.00    +0.000 C 
BRANCH  16  18
ATOM     17  C   UNL     1       0.958   2.281  18.772  0.00  0.00    +0.000 C 
ATOM     18  C   UNL     1       0.592   3.238  19.901  0.00  0.00    +0.000 C 
ENDBRANCH  16  18
ENDBRANCH  15  16
ENDBRANCH   1  15
TORSDOF 5
ENDMDL
MODEL 4
REMARK VINA RESULT:      -6.6      1.268      1.375
REMARK  Name = 
REMARK  6 active torsions:
REMARK  status: ('A' for Active; 'I' for Inactive)
REMARK    1  A    between atoms: C_1  and  C_2
REMARK    2  A    between atoms: C_2  and  C_3
REMARK    3  A    between atoms: C_3  and  C_4
REMARK    4  A    between atoms: C_4  and  C_5
REMARK    5  A    between atoms: C_7  and  O_8
REMARK    6  A    between atoms: C_9  and  C_10
REMARK                            x       y       z     vdW  Elec       q    Type
REMARK                         _______ _______ _______ _____ _____    ______ ____
ROOT
ATOM      1  C   UNL     1       4.552   5.021  17.021  0.00  0.00    +0.000 A 
ATOM      2  N   UNL     1       4.648   3.672  17.136  0.00  0.00    +0.000 NA
ATOM      3  C   UNL     1       3.866   3.068  18.047  0.00  0.00    +0.000 A 
ATOM      4  C   UNL     1       2.991   3.708  18.901  0.00  0.00    +0.000 A 
ATOM      5  C   UNL     1       2.906   5.110  18.807  0.00  0.00    +0.000 A 
ATOM      6  C   UNL     1       3.668   5.782  17.814  0.00  0.00    +0.000 A 
ATOM      7  C   UNL     1       3.545   7.280  17.632  0.00  0.00    +0.000 C 
ATOM      8  C   UNL     1       2.354   7.910  18.354  0.00  0.00    +0.000 C 
ATOM      9  C   UNL     1       2.251   7.369  19.768  0.00  0.00    +0.000 C 
ATOM     10  C   UNL     1       1.967   5.871  19.722  0.00  0.00    +0.000 C 
ENDROOT
BRANCH   3  11
ATOM     11  O   UNL     1       4.012   1.721  18.037  0.00  0.00    +0.000 OA
ATOM     12  H   UNL     1       4.655   1.613  18.762  0.00  0.00    +0.000 HD
ENDBRANCH   3  11
BRANCH   4  13
ATOM     13  C   UNL     1       2.202   2.949  19.824  0.00  0.00    +0.000 C 
ATOM     14  N   UNL     1       1.577   2.369  20.615  0.00  0.00    +0.000 NA
ENDBRANCH   4  13
BRANCH   1  15
ATOM     15  C   UNL     1       5.445   5.616  15.954  0.00  0.00    +0.000 C 
BRANCH  15  16
ATOM     16  C   UNL     1       6.934   5.721  16.311  0.00  0.00    +0.000 C 
BRANCH  16  18
ATOM     17  C   UNL     1       7.694   6.164  18.668  0.00  0.00    +0.000 C 
ATOM     18  C   UNL     1       7.274   6.797  17.346  0.00  0.00    +0.000 C 
ENDBRANCH  16  18
ENDBRANCH  15  16
ENDBRANCH   1  15
TORSDOF 5
ENDMDL
MODEL 5
REMARK VINA RESULT:      -6.5      2.359      4.929
REMARK  Name = 
REMARK  6 active torsions:
REMARK  status: ('A' for Active; 'I' for Inactive)
REMARK    1  A    between atoms: C_1  and  C_2
REMARK    2  A    between atoms: C_2  and  C_3
REMARK    3  A    between atoms: C_3  and  C_4
REMARK    4  A    between atoms: C_4  and  C_5
REMARK    5  A    between atoms: C_7  and  O_8
REMARK    6  A    between atoms: C_9  and  C_10
REMARK                            x       y       z     vdW  Elec       q    Type
REMARK                         _______ _______ _______ _____ _____    ______ ____
ROOT
ATOM      1  C   UNL     1       2.800   3.862  17.706  0.00  0.00    +0.000 A 
ATOM      2  N   UNL     1       3.776   3.143  17.097  0.00  0.00    +0.000 NA
ATOM      3  C   UNL     1       4.872   3.804  16.688  0.00  0.00    +0.000 A 
ATOM      4  C   UNL     1       5.079   5.164  16.809  0.00  0.00    +0.000 A 
ATOM      5  C   UNL     1       4.059   5.920  17.415  0.00  0.00    +0.000 A 
ATOM      6  C   UNL     1       2.911   5.252  17.919  0.00  0.00    +0.000 A 
ATOM      7  C   UNL     1       1.828   6.023  18.644  0.00  0.00    +0.000 C 
ATOM      8  C   UNL     1       2.223   7.444  19.044  0.00  0.00    +0.000 C 
ATOM      9  C   UNL     1       2.920   8.141  17.890  0.00  0.00    +0.000 C 
ATOM     10  C   UNL     1       4.224   7.419  17.571  0.00  0.00    +0.000 C 
ENDROOT
BRANCH   3  11
ATOM     11  O   UNL     1       5.796   2.978  16.140  0.00  0.00    +0.000 OA
ATOM     12  H   UNL     1       5.940   3.425  15.286  0.00  0.00    +0.000 HD
ENDBRANCH   3  11
BRANCH   4  13
ATOM     13  C   UNL     1       6.299   5.750  16.342  0.00  0.00    +0.000 C 
ATOM     14  N   UNL     1       7.318   6.198  16.004  0.00  0.00    +0.000 NA
ENDBRANCH   4  13
BRANCH   1  15
ATOM     15  C   UNL     1       1.614   3.037  18.159  0.00  0.00    +0.000 C 
BRANCH  15  16
ATOM     16  C   UNL     1       1.780   2.311  19.500  0.00  0.00    +0.000 C 
BRANCH  16  18
ATOM     17  C   UNL     1       2.211   3.628  21.600  0.00  0.00    +0.000 C 
ATOM     18  C   UNL     1       1.142   3.019  20.699  0.00  0.00    +0.000 C 
ENDBRANCH  16  18
ENDBRANCH  15  16
ENDBRANCH   1  15
TORSDOF 5
ENDMDL
MODEL 6
REMARK VINA RESULT:      -6.3      2.076      2.659
REMARK  Name = 
REMARK  6 active torsions:
REMARK  status: ('A' for Active; 'I' for Inactive)
REMARK    1  A    between atoms: C_1  and  C_2
REMARK    2  A    between atoms: C_2  and  C_3
REMARK    3  A    between atoms: C_3  and  C_4
REMARK    4  A    between atoms: C_4  and  C_5
REMARK    5  A    between atoms: C_7  and  O_8
REMARK    6  A    between atoms: C_9  and  C_10
REMARK                            x       y       z     vdW  Elec       q    Type
REMARK                         _______ _______ _______ _____ _____    ______ ____
ROOT
ATOM      1  C   UNL     1       4.657   4.850  16.907  0.00  0.00    +0.000 A 
ATOM      2  N   UNL     1       4.706   3.502  17.056  0.00  0.00    +0.000 NA
ATOM      3  C   UNL     1       3.887   2.947  17.965  0.00  0.00    +0.000 A 
ATOM      4  C   UNL     1       3.016   3.635  18.785  0.00  0.00    +0.000 A 
ATOM      5  C   UNL     1       2.980   5.036  18.656  0.00  0.00    +0.000 A 
ATOM      6  C   UNL     1       3.783   5.659  17.663  0.00  0.00    +0.000 A 
ATOM      7  C   UNL     1       3.713   7.155  17.443  0.00  0.00    +0.000 C 
ATOM      8  C   UNL     1       2.530   7.841  18.126  0.00  0.00    +0.000 C 
ATOM      9  C   UNL     1       2.381   7.338  19.550  0.00  0.00    +0.000 C 
ATOM     10  C   UNL     1       2.049   5.850  19.533  0.00  0.00    +0.000 C 
ENDROOT
BRANCH   3  11
ATOM     11  O   UNL     1       3.988   1.595  17.990  0.00  0.00    +0.000 OA
ATOM     12  H   UNL     1       3.972   1.441  18.953  0.00  0.00    +0.000 HD
ENDBRANCH   3  11
BRANCH   4  13
ATOM     13  C   UNL     1       2.185   2.926  19.709  0.00  0.00    +0.000 C 
ATOM     14  N   UNL     1       1.535   2.377  20.503  0.00  0.00    +0.000 NA
ENDBRANCH   4  13
BRANCH   1  15
ATOM     15  C   UNL     1       5.590   5.390  15.845  0.00  0.00    +0.000 C 
BRANCH  15  16
ATOM     16  C   UNL     1       6.204   4.346  14.902  0.00  0.00    +0.000 C 
BRANCH  16  18
ATOM     17  C   UNL     1       6.299   3.517  12.530  0.00  0.00    +0.000 C 
ATOM     18  C   UNL     1       5.401   4.080  13.626  0.00  0.00    +0.000 C 
ENDBRANCH  16  18
ENDBRANCH  15  16
ENDBRANCH   1  15
TORSDOF 5
ENDMDL
MODEL 7
REMARK VINA RESULT:      -6.2      3.600      5.029
REMARK  Name = 
REMARK  6 active torsions:
REMARK  status: ('A' for Active; 'I' for Inactive)
REMARK    1  A    between atoms: C_1  and  C_2
REMARK    2  A    between atoms: C_2  and  C_3
REMARK    3  A    between atoms: C_3  and  C_4
REMARK    4  A    between atoms: C_4  and  C_5
REMARK    5  A    between atoms: C_7  and  O_8
REMARK    6  A    between atoms: C_9  and  C_10
REMARK                            x       y       z     vdW  Elec       q    Type
REMARK                         _______ _______ _______ _____ _____    ______ ____
ROOT
ATOM      1  C   UNL     1       6.989   6.122  17.078  0.00  0.00    +0.000 A 
ATOM      2  N   UNL     1       7.659   6.127  15.898  0.00  0.00    +0.000 NA
ATOM      3  C   UNL     1       7.145   5.408  14.887  0.00  0.00    +0.000 A 
ATOM      4  C   UNL     1       6.003   4.635  14.954  0.00  0.00    +0.000 A 
ATOM      5  C   UNL     1       5.318   4.602  16.182  0.00  0.00    +0.000 A 
ATOM      6  C   UNL     1       5.791   5.399  17.259  0.00  0.00    +0.000 A 
ATOM      7  C   UNL     1       5.037   5.449  18.570  0.00  0.00    +0.000 C 
ATOM      8  C   UNL     1       3.630   4.854  18.514  0.00  0.00    +0.000 C 
ATOM      9  C   UNL     1       3.647   3.532  17.770  0.00  0.00    +0.000 C 
ATOM     10  C   UNL     1       4.060   3.768  16.321  0.00  0.00    +0.000 C 
ENDROOT
BRANCH   3  11
ATOM     11  O   UNL     1       7.871   5.528  13.749  0.00  0.00    +0.000 OA
ATOM     12  H   UNL     1       7.164   5.759  13.118  0.00  0.00    +0.000 HD
ENDBRANCH   3  11
BRANCH   4  13
ATOM     13  C   UNL     1       5.550   3.920  13.799  0.00  0.00    +0.000 C 
ATOM     14  N   UNL     1       5.128   3.353  12.875  0.00  0.00    +0.000 NA
ENDBRANCH   4  13
BRANCH   1  15
ATOM     15  C   UNL     1       7.620   6.980  18.153  0.00  0.00    +0.000 C 
BRANCH  15  16
ATOM     16  C   UNL     1       7.879   8.444  17.773  0.00  0.00    +0.000 C 
BRANCH  16  18
ATOM     17  C   UNL     1       9.069  10.615  18.218  0.00  0.00    +0.000 C 
ATOM     18  C   UNL     1       8.799   9.205  18.732  0.00  0.00    +0.000 C 
ENDBRANCH  16  18
ENDBRANCH  15  16
ENDBRANCH   1  15
TORSDOF 5
ENDMDL
MODEL 8
REMARK VINA RESULT:      -6.1      3.211      5.310
REMARK  Name = 
REMARK  6 active torsions:
REMARK  status: ('A' for Active; 'I' for Inactive)
REMARK    1  A    between atoms: C_1  and  C_2
REMARK    2  A    between atoms: C_2  and  C_3
REMARK    3  A    between atoms: C_3  and  C_4
REMARK    4  A    between atoms: C_4  and  C_5
REMARK    5  A    between atoms: C_7  and  O_8
REMARK    6  A    between atoms: C_9  and  C_10
REMARK                            x       y       z     vdW  Elec       q    Type
REMARK                         _______ _______ _______ _____ _____    ______ ____
ROOT
ATOM      1  C   UNL     1       3.140   6.598  18.027  0.00  0.00    +0.000 A 
ATOM      2  N   UNL     1       4.166   7.133  17.318  0.00  0.00    +0.000 NA
ATOM      3  C   UNL     1       4.928   6.294  16.597  0.00  0.00    +0.000 A 
ATOM      4  C   UNL     1       4.776   4.923  16.539  0.00  0.00    +0.000 A 
ATOM      5  C   UNL     1       3.731   4.358  17.295  0.00  0.00    +0.000 A 
ATOM      6  C   UNL     1       2.861   5.215  18.020  0.00  0.00    +0.000 A 
ATOM      7  C   UNL     1       1.681   4.650  18.781  0.00  0.00    +0.000 C 
ATOM      8  C   UNL     1       1.348   3.197  18.444  0.00  0.00    +0.000 C 
ATOM      9  C   UNL     1       2.615   2.363  18.404  0.00  0.00    +0.000 C 
ATOM     10  C   UNL     1       3.516   2.857  17.277  0.00  0.00    +0.000 C 
ENDROOT
BRANCH   3  11
ATOM     11  O   UNL     1       5.887   6.944  15.894  0.00  0.00    +0.000 OA
ATOM     12  H   UNL     1       5.750   6.551  15.013  0.00  0.00    +0.000 HD
ENDBRANCH   3  11
BRANCH   4  13
ATOM     13  C   UNL     1       5.650   4.135  15.724  0.00  0.00    +0.000 C 
ATOM     14  N   UNL     1       6.341   3.524  15.015  0.00  0.00    +0.000 NA
ENDBRANCH   4  13
BRANCH   1  15
ATOM     15  C   UNL     1       2.315   7.615  18.786  0.00  0.00    +0.000 C 
BRANCH  15  16
ATOM     16  C   UNL     1       1.888   8.856  17.991  0.00  0.00    +0.000 C 
BRANCH  16  18
ATOM     17  C   UNL     1       0.786   9.402  20.185  0.00  0.00    +0.000 C 
ATOM     18  C   UNL     1       0.890   9.769  18.709  0.00  0.00    +0.000 C 
ENDBRANCH  16  18
ENDBRANCH  15  16
ENDBRANCH   1  15
TORSDOF 5
ENDMDL
MODEL 9
REMARK VINA RESULT:      -6.1      2.523      3.682
REMARK  Name = 
REMARK  6 active torsions:
REMARK  status: ('A' for Active; 'I' for Inactive)
REMARK    1  A    between atoms: C_1  and  C_2
REMARK    2  A    between atoms: C_2  and  C_3
REMARK    3  A    between atoms: C_3  and  C_4
REMARK    4  A    between atoms: C_4  and  C_5
REMARK    5  A    between atoms: C_7  and  O_8
REMARK    6  A    between atoms: C_9  and  C_10
REMARK                            x       y       z     vdW  Elec       q    Type
REMARK                         _______ _______ _______ _____ _____    ______ ____
ROOT
ATOM      1  C   UNL     1       4.067   4.882  17.697  0.00  0.00    +0.000 A 
ATOM      2  N   UNL     1       3.880   6.184  17.365  0.00  0.00    +0.000 NA
ATOM      3  C   UNL     1       3.181   6.950  18.219  0.00  0.00    +0.000 A 
ATOM      4  C   UNL     1       2.607   6.516  19.397  0.00  0.00    +0.000 A 
ATOM      5  C   UNL     1       2.773   5.160  19.734  0.00  0.00    +0.000 A 
ATOM      6  C   UNL     1       3.559   4.330  18.892  0.00  0.00    +0.000 A 
ATOM      7  C   UNL     1       3.823   2.886  19.262  0.00  0.00    +0.000 C 
ATOM      8  C   UNL     1       3.458   2.525  20.702  0.00  0.00    +0.000 C 
ATOM      9  C   UNL     1       2.100   3.099  21.059  0.00  0.00    +0.000 C 
ATOM     10  C   UNL     1       2.162   4.622  21.013  0.00  0.00    +0.000 C 
ENDROOT
BRANCH   3  11
ATOM     11  O   UNL     1       3.102   8.239  17.808  0.00  0.00    +0.000 OA
ATOM     12  H   UNL     1       2.317   8.186  17.231  0.00  0.00    +0.000 HD
ENDBRANCH   3  11
BRANCH   4  13
ATOM     13  C   UNL     1       1.892   7.435  20.230  0.00  0.00    +0.000 C 
ATOM     14  N   UNL     1       1.360   8.197  20.930  0.00  0.00    +0.000 NA
ENDBRANCH   4  13
BRANCH   1  15
ATOM     15  C   UNL     1       4.889   4.099  16.695  0.00  0.00    +0.000 C 
BRANCH  15  16
ATOM     16  C   UNL     1       6.317   4.608  16.459  0.00  0.00    +0.000 C 
BRANCH  16  18
ATOM     17  C   UNL     1       7.490   6.120  18.092  0.00  0.00    +0.000 C 
ATOM     18  C   UNL     1       7.193   4.673  17.714  0.00  0.00    +0.000 C 
ENDBRANCH  16  18
ENDBRANCH  15  16
ENDBRANCH   1  15
TORSDOF 5
ENDMDL
