MODEL 1
REMARK VINA RESULT:      -6.3      0.000      0.000
REMARK  Name = 
REMARK  5 active torsions:
REMARK  status: ('A' for Active; 'I' for Inactive)
REMARK    1  A    between atoms: C_1  and  C_2
REMARK    2  A    between atoms: N_4  and  C_5
REMARK    3  A    between atoms: C_6  and  C_7
REMARK    4  A    between atoms: CA_10  and  C_11
REMARK    5  A    between atoms: C_11  and  O_12
REMARK                            x       y       z     vdW  Elec       q    Type
REMARK                         _______ _______ _______ _____ _____    ______ ____
ROOT
ATOM      1  C   UNL     1       7.996   5.996  18.827  0.00  0.00    +0.000 C 
ATOM      2  C   UNL     1       6.555   5.991  18.317  0.00  0.00    +0.000 C 
ATOM      3  C   UNL     1       5.621   5.318  19.367  0.00  0.00    +0.000 C 
ATOM      4  N   UNL     1       4.446   4.626  18.845  0.00  0.00    +0.000 NA
ATOM      5  C   UNL     1       3.201   4.816  19.547  0.00  0.00    +0.000 C 
ATOM      6  C   UNL     1       4.539   3.731  17.686  0.00  0.00    +0.000 C 
ATOM      7  C   UNL     1       3.182   3.524  16.991  0.00  0.00    +0.000 C 
ATOM      8  C   UNL     1       5.547   4.285  16.706  0.00  0.00    +0.000 A 
ATOM      9  C   UNL     1       5.800   3.914  15.358  0.00  0.00    +0.000 A 
ATOM     10  CA  UNL     1       6.768   4.772  14.854  0.00  0.00    +0.000 A 
ATOM     11  N   UNL     1       7.142   5.608  15.876  0.00  0.00    +0.000 N 
ATOM     12  C   UNL     1       6.441   5.294  17.004  0.00  0.00    +0.000 A 
ATOM     13  H   UNL     1       7.819   6.356  15.782  0.00  0.00    +0.000 HD
ENDROOT
BRANCH  10  14
ATOM     14  C   UNL     1       7.359   4.885  13.502  0.00  0.00    +0.000 C 
BRANCH  14  15
ATOM     15  O   UNL     1       8.428   5.815  13.602  0.00  0.00    +0.000 OA
ATOM     16  H   UNL     1       9.225   5.339  13.309  0.00  0.00    +0.000 HD
ENDBRANCH  14  15
ENDBRANCH  10  14
TORSDOF 2
ENDMDL
MODEL 2
REMARK VINA RESULT:      -6.2      2.022      3.145
REMARK  Name = 
REMARK  5 active torsions:
REMARK  status: ('A' for Active; 'I' for Inactive)
REMARK    1  A    between atoms: C_1  and  C_2
REMARK    2  A    between atoms: N_4  and  C_5
REMARK    3  A    between atoms: C_6  and  C_7
REMARK    4  A    between atoms: CA_10  and  C_11
REMARK    5  A    between atoms: C_11  and  O_12
REMARK                            x       y       z     vdW  Elec       q    Type
REMARK                         _______ _______ _______ _____ _____    ______ ____
ROOT
ATOM      1  C   UNL     1       3.683   1.411  18.476  0.00  0.00    +0.000 C 
ATOM      2  C   UNL     1       3.871   2.840  18.984  0.00  0.00    +0.000 C 
ATOM      3  C   UNL     1       2.522   3.391  19.536  0.00  0.00    +0.000 C 
ATOM      4  N   UNL     1       2.312   4.832  19.424  0.00  0.00    +0.000 NA
ATOM      5  C   UNL     1       1.739   5.507  20.561  0.00  0.00    +0.000 C 
ATOM      6  C   UNL     1       2.621   5.554  18.184  0.00  0.00    +0.000 C 
ATOM      7  C   UNL     1       2.829   7.061  18.417  0.00  0.00    +0.000 C 
ATOM      8  C   UNL     1       3.851   4.951  17.547  0.00  0.00    +0.000 A 
ATOM      9  C   UNL     1       4.661   5.447  16.490  0.00  0.00    +0.000 A 
ATOM     10  CA  UNL     1       5.722   4.569  16.318  0.00  0.00    +0.000 A 
ATOM     11  N   UNL     1       5.541   3.534  17.202  0.00  0.00    +0.000 N 
ATOM     12  C   UNL     1       4.396   3.737  17.915  0.00  0.00    +0.000 A 
ATOM     13  H   UNL     1       6.184   2.758  17.312  0.00  0.00    +0.000 HD
ENDROOT
BRANCH  10  14
ATOM     14  C   UNL     1       6.892   4.623  15.414  0.00  0.00    +0.000 C 
BRANCH  14  15
ATOM     15  O   UNL     1       7.540   5.862  15.661  0.00  0.00    +0.000 OA
ATOM     16  H   UNL     1       7.967   6.114  14.823  0.00  0.00    +0.000 HD
ENDBRANCH  14  15
ENDBRANCH  10  14
TORSDOF 2
ENDMDL
MODEL 3
REMARK VINA RESULT:      -5.9      2.117      3.339
REMARK  Name = 
REMARK  5 active torsions:
REMARK  status: ('A' for Active; 'I' for Inactive)
REMARK    1  A    between atoms: C_1  and  C_2
REMARK    2  A    between atoms: N_4  and  C_5
REMARK    3  A    between atoms: C_6  and  C_7
REMARK    4  A    between atoms: CA_10  and  C_11
REMARK    5  A    between atoms: C_11  and  O_12
REMARK                            x       y       z     vdW  Elec       q    Type
REMARK                         _______ _______ _______ _____ _____    ______ ____
ROOT
ATOM      1  C   UNL     1       3.631   2.317  19.789  0.00  0.00    +0.000 C 
ATOM      2  C   UNL     1       3.825   3.831  19.857  0.00  0.00    +0.000 C 
ATOM      3  C   UNL     1       2.469   4.529  20.172  0.00  0.00    +0.000 C 
ATOM      4  N   UNL     1       2.286   5.873  19.631  0.00  0.00    +0.000 NA
ATOM      5  C   UNL     1       1.688   6.858  20.495  0.00  0.00    +0.000 C 
ATOM      6  C   UNL     1       2.647   6.193  18.244  0.00  0.00    +0.000 C 
ATOM      7  C   UNL     1       2.873   7.700  18.027  0.00  0.00    +0.000 C 
ATOM      8  C   UNL     1       3.887   5.420  17.859  0.00  0.00    +0.000 A 
ATOM      9  C   UNL     1       4.739   5.575  16.733  0.00  0.00    +0.000 A 
ATOM     10  CA  UNL     1       5.791   4.680  16.867  0.00  0.00    +0.000 A 
ATOM     11  N   UNL     1       5.564   3.955  18.011  0.00  0.00    +0.000 N 
ATOM     12  C   UNL     1       4.400   4.367  18.590  0.00  0.00    +0.000 A 
ATOM     13  H   UNL     1       6.190   3.243  18.368  0.00  0.00    +0.000 HD
ENDROOT
BRANCH  10  14
ATOM     14  C   UNL     1       6.990   4.455  16.030  0.00  0.00    +0.000 C 
BRANCH  14  15
ATOM     15  O   UNL     1       8.057   4.158  16.920  0.00  0.00    +0.000 OA
ATOM     16  H   UNL     1       8.587   4.973  16.984  0.00  0.00    +0.000 HD
ENDBRANCH  14  15
ENDBRANCH  10  14
TORSDOF 2
ENDMDL
MODEL 4
REMARK VINA RESULT:      -5.9      2.325      3.444
REMARK  Name = 
REMARK  5 active torsions:
REMARK  status: ('A' for Active; 'I' for Inactive)
REMARK    1  A    between atoms: C_1  and  C_2
REMARK    2  A    between atoms: N_4  and  C_5
REMARK    3  A    between atoms: C_6  and  C_7
REMARK    4  A    between atoms: CA_10  and  C_11
REMARK    5  A    between atoms: C_11  and  O_12
REMARK                            x       y       z     vdW  Elec       q    Type
REMARK                         _______ _______ _______ _____ _____    ______ ____
ROOT
ATOM      1  C   UNL     1       5.108   1.513  20.676  0.00  0.00    +0.000 C 
ATOM      2  C   UNL     1       4.273   2.758  20.377  0.00  0.00    +0.000 C 
ATOM      3  C   UNL     1       2.756   2.408  20.430  0.00  0.00    +0.000 C 
ATOM      4  N   UNL     1       1.876   3.186  19.563  0.00  0.00    +0.000 NA
ATOM      5  C   UNL     1       0.625   3.633  20.120  0.00  0.00    +0.000 C 
ATOM      6  C   UNL     1       2.229   3.457  18.163  0.00  0.00    +0.000 C 
ATOM      7  C   UNL     1       1.481   4.674  17.593  0.00  0.00    +0.000 C 
ATOM      8  C   UNL     1       3.721   3.664  18.054  0.00  0.00    +0.000 A 
ATOM      9  C   UNL     1       4.489   4.180  16.976  0.00  0.00    +0.000 A 
ATOM     10  CA  UNL     1       5.812   4.249  17.388  0.00  0.00    +0.000 A 
ATOM     11  N   UNL     1       5.868   3.738  18.661  0.00  0.00    +0.000 N 
ATOM     12  C   UNL     1       4.621   3.346  19.052  0.00  0.00    +0.000 A 
ATOM     13  H   UNL     1       6.712   3.689  19.220  0.00  0.00    +0.000 HD
ENDROOT
BRANCH  10  14
ATOM     14  C   UNL     1       7.019   4.764  16.704  0.00  0.00    +0.000 C 
BRANCH  14  15
ATOM     15  O   UNL     1       8.130   4.094  17.282  0.00  0.00    +0.000 OA
ATOM     16  H   UNL     1       7.961   3.143  17.163  0.00  0.00    +0.000 HD
ENDBRANCH  14  15
ENDBRANCH  10  14
TORSDOF 2
ENDMDL
MODEL 5
REMARK VINA RESULT:      -5.9      2.963      4.144
REMARK  Name = 
REMARK  5 active torsions:
REMARK  status: ('A' for Active; 'I' for Inactive)
REMARK    1  A    between atoms: C_1  and  C_2
REMARK    2  A    between atoms: N_4  and  C_5
REMARK    3  A    between atoms: C_6  and  C_7
REMARK    4  A    between atoms: CA_10  and  C_11
REMARK    5  A    between atoms: C_11  and  O_12
REMARK                            x       y       z     vdW  Elec       q    Type
REMARK                         _______ _______ _______ _____ _____    ______ ____
ROOT
ATOM      1  C   UNL     1       3.979   1.276  18.317  0.00  0.00    +0.000 C 
ATOM      2  C   UNL     1       3.699   2.419  19.293  0.00  0.00    +0.000 C 
ATOM      3  C   UNL     1       2.181   2.767  19.286  0.00  0.00    +0.000 C 
ATOM      4  N   UNL     1       1.829   4.155  19.572  0.00  0.00    +0.000 NA
ATOM      5  C   UNL     1       0.711   4.386  20.451  0.00  0.00    +0.000 C 
ATOM      6  C   UNL     1       2.550   5.270  18.946  0.00  0.00    +0.000 C 
ATOM      7  C   UNL     1       2.401   6.583  19.733  0.00  0.00    +0.000 C 
ATOM      8  C   UNL     1       4.011   4.907  18.809  0.00  0.00    +0.000 A 
ATOM      9  C   UNL     1       5.125   5.731  18.496  0.00  0.00    +0.000 A 
ATOM     10  CA  UNL     1       6.269   4.948  18.569  0.00  0.00    +0.000 A 
ATOM     11  N   UNL     1       5.867   3.668  18.862  0.00  0.00    +0.000 N 
ATOM     12  C   UNL     1       4.508   3.628  18.967  0.00  0.00    +0.000 A 
ATOM     13  H   UNL     1       6.501   2.889  18.999  0.00  0.00    +0.000 HD
ENDROOT
BRANCH  10  14
ATOM     14  C   UNL     1       7.698   5.296  18.404  0.00  0.00    +0.000 C 
BRANCH  14  15
ATOM     15  O   UNL     1       8.236   5.432  19.711  0.00  0.00    +0.000 OA
ATOM     16  H   UNL     1       8.889   6.152  19.658  0.00  0.00    +0.000 HD
ENDBRANCH  14  15
ENDBRANCH  10  14
TORSDOF 2
ENDMDL
MODEL 6
REMARK VINA RESULT:      -5.8      2.257      3.661
REMARK  Name = 
REMARK  5 active torsions:
REMARK  status: ('A' for Active; 'I' for Inactive)
REMARK    1  A    between atoms: C_1  and  C_2
REMARK    2  A    between atoms: N_4  and  C_5
REMARK    3  A    between atoms: C_6  and  C_7
REMARK    4  A    between atoms: CA_10  and  C_11
REMARK    5  A    between atoms: C_11  and  O_12
REMARK                            x       y       z     vdW  Elec       q    Type
REMARK                         _______ _______ _______ _____ _____    ______ ____
ROOT
ATOM      1  C   UNL     1       3.848   1.263  18.323  0.00  0.00    +0.000 C 
ATOM      2  C   UNL     1       3.705   2.503  19.204  0.00  0.00    +0.000 C 
ATOM      3  C   UNL     1       2.199   2.869  19.368  0.00  0.00    +0.000 C 
ATOM      4  N   UNL     1       1.889   4.284  19.554  0.00  0.00    +0.000 NA
ATOM      5  C   UNL     1       0.902   4.619  20.548  0.00  0.00    +0.000 C 
ATOM      6  C   UNL     1       2.517   5.319  18.722  0.00  0.00    +0.000 C 
ATOM      7  C   UNL     1       2.476   6.708  19.382  0.00  0.00    +0.000 C 
ATOM      8  C   UNL     1       3.945   4.924  18.426  0.00  0.00    +0.000 A 
ATOM      9  C   UNL     1       5.005   5.696  17.879  0.00  0.00    +0.000 A 
ATOM     10  CA  UNL     1       6.148   4.910  17.877  0.00  0.00    +0.000 A 
ATOM     11  N   UNL     1       5.792   3.672  18.353  0.00  0.00    +0.000 N 
ATOM     12  C   UNL     1       4.460   3.662  18.647  0.00  0.00    +0.000 A 
ATOM     13  H   UNL     1       6.439   2.903  18.483  0.00  0.00    +0.000 HD
ENDROOT
BRANCH  10  14
ATOM     14  C   UNL     1       7.541   5.219  17.483  0.00  0.00    +0.000 C 
BRANCH  14  15
ATOM     15  O   UNL     1       7.462   6.125  16.391  0.00  0.00    +0.000 OA
ATOM     16  H   UNL     1       8.312   6.053  15.922  0.00  0.00    +0.000 HD
ENDBRANCH  14  15
ENDBRANCH  10  14
TORSDOF 2
ENDMDL
MODEL 7
REMARK VINA RESULT:      -5.8      3.454      5.280
REMARK  Name = 
REMARK  5 active torsions:
REMARK  status: ('A' for Active; 'I' for Inactive)
REMARK    1  A    between atoms: C_1  and  C_2
REMARK    2  A    between atoms: N_4  and  C_5
REMARK    3  A    between atoms: C_6  and  C_7
REMARK    4  A    between atoms: CA_10  and  C_11
REMARK    5  A    between atoms: C_11  and  O_12
REMARK                            x       y       z     vdW  Elec       q    Type
REMARK                         _______ _______ _______ _____ _____    ______ ____
ROOT
ATOM      1  C   UNL     1       2.288   7.701  18.130  0.00  0.00    +0.000 C 
ATOM      2  C   UNL     1       3.435   6.698  18.263  0.00  0.00    +0.000 C 
ATOM      3  C   UNL     1       4.572   7.053  17.259  0.00  0.00    +0.000 C 
ATOM      4  N   UNL     1       5.367   5.937  16.755  0.00  0.00    +0.000 NA
ATOM      5  C   UNL     1       6.793   6.126  16.672  0.00  0.00    +0.000 C 
ATOM      6  C   UNL     1       4.735   4.694  16.298  0.00  0.00    +0.000 C 
ATOM      7  C   UNL     1       5.708   3.502  16.304  0.00  0.00    +0.000 C 
ATOM      8  C   UNL     1       3.537   4.393  17.169  0.00  0.00    +0.000 A 
ATOM      9  C   UNL     1       2.767   3.203  17.274  0.00  0.00    +0.000 A 
ATOM     10  CA  UNL     1       1.821   3.393  18.272  0.00  0.00    +0.000 A 
ATOM     11  N   UNL     1       1.965   4.680  18.728  0.00  0.00    +0.000 N 
ATOM     12  C   UNL     1       2.968   5.300  18.041  0.00  0.00    +0.000 A 
ATOM     13  H   UNL     1       1.417   5.084  19.479  0.00  0.00    +0.000 HD
ENDROOT
BRANCH  10  14
ATOM     14  C   UNL     1       0.810   2.475  18.841  0.00  0.00    +0.000 C 
BRANCH  14  15
ATOM     15  O   UNL     1       0.403   3.038  20.080  0.00  0.00    +0.000 OA
ATOM     16  H   UNL     1      -0.547   2.843  20.164  0.00  0.00    +0.000 HD
ENDBRANCH  14  15
ENDBRANCH  10  14
TORSDOF 2
ENDMDL
MODEL 8
REMARK VINA RESULT:      -5.7      2.031      2.990
REMARK  Name = 
REMARK  5 active torsions:
REMARK  status: ('A' for Active; 'I' for Inactive)
REMARK    1  A    between atoms: C_1  and  C_2
REMARK    2  A    between atoms: N_4  and  C_5
REMARK    3  A    between atoms: C_6  and  C_7
REMARK    4  A    between atoms: CA_10  and  C_11
REMARK    5  A    between atoms: C_11  and  O_12
REMARK                            x       y       z     vdW  Elec       q    Type
REMARK                         _______ _______ _______ _____ _____    ______ ____
ROOT
ATOM      1  C   UNL     1       2.683   7.187  18.607  0.00  0.00    +0.000 C 
ATOM      2  C   UNL     1       2.460   5.791  18.027  0.00  0.00    +0.000 C 
ATOM      3  C   UNL     1       1.777   4.876  19.087  0.00  0.00    +0.000 C 
ATOM      4  N   UNL     1       2.086   3.451  19.014  0.00  0.00    +0.000 NA
ATOM      5  C   UNL     1       0.993   2.528  19.185  0.00  0.00    +0.000 C 
ATOM      6  C   UNL     1       3.463   2.977  18.829  0.00  0.00    +0.000 C 
ATOM      7  C   UNL     1       3.523   1.545  18.271  0.00  0.00    +0.000 C 
ATOM      8  C   UNL     1       4.200   3.925  17.911  0.00  0.00    +0.000 A 
ATOM      9  C   UNL     1       5.450   3.766  17.255  0.00  0.00    +0.000 A 
ATOM     10  CA  UNL     1       5.659   4.882  16.458  0.00  0.00    +0.000 A 
ATOM     11  N   UNL     1       4.599   5.730  16.659  0.00  0.00    +0.000 N 
ATOM     12  C   UNL     1       3.738   5.179  17.563  0.00  0.00    +0.000 A 
ATOM     13  H   UNL     1       4.478   6.616  16.182  0.00  0.00    +0.000 HD
ENDROOT
BRANCH  10  14
ATOM     14  C   UNL     1       6.752   5.214  15.517  0.00  0.00    +0.000 C 
BRANCH  14  15
ATOM     15  O   UNL     1       7.505   6.256  16.122  0.00  0.00    +0.000 OA
ATOM     16  H   UNL     1       7.401   6.139  17.083  0.00  0.00    +0.000 HD
ENDBRANCH  14  15
ENDBRANCH  10  14
TORSDOF 2
ENDMDL
MODEL 9
REMARK VINA RESULT:      -5.6      1.912      2.777
REMARK  Name = 
REMARK  5 active torsions:
REMARK  status: ('A' for Active; 'I' for Inactive)
REMARK    1  A    between atoms: C_1  and  C_2
REMARK    2  A    between atoms: N_4  and  C_5
REMARK    3  A    between atoms: C_6  and  C_7
REMARK    4  A    between atoms: CA_10  and  C_11
REMARK    5  A    between atoms: C_11  and  O_12
REMARK                            x       y       z     vdW  Elec       q    Type
REMARK                         _______ _______ _______ _____ _____    ______ ____
ROOT
ATOM      1  C   UNL     1       3.040   7.913  17.859  0.00  0.00    +0.000 C 
ATOM      2  C   UNL     1       2.830   6.405  17.983  0.00  0.00    +0.000 C 
ATOM      3  C   UNL     1       2.406   6.043  19.438  0.00  0.00    +0.000 C 
ATOM      4  N   UNL     1       2.806   4.727  19.926  0.00  0.00    +0.000 NA
ATOM      5  C   UNL     1       1.831   3.973  20.672  0.00  0.00    +0.000 C 
ATOM      6  C   UNL     1       4.166   4.214  19.712  0.00  0.00    +0.000 C 
ATOM      7  C   UNL     1       4.240   2.681  19.819  0.00  0.00    +0.000 C 
ATOM      8  C   UNL     1       4.664   4.667  18.359  0.00  0.00    +0.000 A 
ATOM      9  C   UNL     1       5.795   4.234  17.617  0.00  0.00    +0.000 A 
ATOM     10  CA  UNL     1       5.783   4.892  16.396  0.00  0.00    +0.000 A 
ATOM     11  N   UNL     1       4.709   5.748  16.406  0.00  0.00    +0.000 N 
ATOM     12  C   UNL     1       4.056   5.647  17.600  0.00  0.00    +0.000 A 
ATOM     13  H   UNL     1       4.443   6.339  15.627  0.00  0.00    +0.000 HD
ENDROOT
BRANCH  10  14
ATOM     14  C   UNL     1       6.675   4.779  15.220  0.00  0.00    +0.000 C 
BRANCH  14  15
ATOM     15  O   UNL     1       7.646   5.808  15.348  0.00  0.00    +0.000 OA
ATOM     16  H   UNL     1       7.905   5.817  16.286  0.00  0.00    +0.000 HD
ENDBRANCH  14  15
ENDBRANCH  10  14
TORSDOF 2
ENDMDL
