MODEL 1
REMARK VINA RESULT:      -7.2      0.000      0.000
REMARK  Name = 
REMARK  12 active torsions:
REMARK  status: ('A' for Active; 'I' for Inactive)
REMARK    1  A    between atoms: C_1  and  C_2
REMARK    2  A    between atoms: C_2  and  O_3
REMARK    3  A    between atoms: O_3  and  C_4
REMARK    4  A    between atoms: C_4  and  C_6
REMARK    5  A    between atoms: C_10  and  N_11
REMARK    6  A    between atoms: N_11  and  C_12
REMARK    7  A    between atoms: C_12  and  N_14
REMARK    8  A    between atoms: N_14  and  C_15
REMARK    9  A    between atoms: C_15  and  C_16
REMARK   10  A    between atoms: C_19  and  S_20
REMARK   11  A    between atoms: S_20  and  N_21
REMARK   12  A    between atoms: C_29  and  C_30
REMARK                            x       y       z     vdW  Elec       q    Type
REMARK                         _______ _______ _______ _____ _____    ______ ____
ROOT
ATOM      1  N   UNL     1       2.416   5.290  20.971  0.00  0.00    +0.000 N 
ATOM      2  H   UNL     1       2.846   5.491  21.861  0.00  0.00    +0.000 HD
ENDROOT
BRANCH   1   7
ATOM      3  C   UNL     1       0.810  10.268  20.463  0.00  0.00    +0.000 A 
ATOM      4  C   UNL     1       0.733   9.319  21.610  0.00  0.00    +0.000 A 
ATOM      5  N   UNL     1       1.150   8.096  21.629  0.00  0.00    +0.000 NA
ATOM      6  C   UNL     1       1.670   7.616  20.464  0.00  0.00    +0.000 A 
ATOM      7  C   UNL     1       2.234   6.397  20.153  0.00  0.00    +0.000 A 
ATOM      8  C   UNL     1       2.725   6.568  18.845  0.00  0.00    +0.000 A 
ATOM      9  N   UNL     1       2.427   7.758  18.322  0.00  0.00    +0.000 NA
ATOM     10  N   UNL     1       1.787   8.424  19.323  0.00  0.00    +0.000 N 
ATOM     11  C   UNL     1       1.340   9.761  19.325  0.00  0.00    +0.000 A 
ATOM     12  C   UNL     1       1.547  10.570  18.072  0.00  0.00    +0.000 C 
BRANCH   3  13
ATOM     13  C   UNL     1       0.438  11.690  20.641  0.00  0.00    +0.000 C 
ATOM     14  O   UNL     1      -0.608  12.205  20.280  0.00  0.00    +0.000 OA
BRANCH  13  15
ATOM     15  O   UNL     1       1.512  12.344  21.152  0.00  0.00    +0.000 OA
BRANCH  15  17
ATOM     16  C   UNL     1       1.479  14.684  21.631  0.00  0.00    +0.000 C 
ATOM     17  C   UNL     1       1.800  13.628  20.587  0.00  0.00    +0.000 C 
ENDBRANCH  15  17
ENDBRANCH  13  15
ENDBRANCH   3  13
ENDBRANCH   1   7
BRANCH   1  18
ATOM     18  C   UNL     1       2.072   3.984  20.716  0.00  0.00    +0.000 C 
ATOM     19  S   UNL     1       0.679   3.394  20.000  0.00  0.00    +0.000 S 
BRANCH  18  20
ATOM     20  N   UNL     1       3.019   3.048  21.024  0.00  0.00    +0.000 N 
ATOM     21  H   UNL     1       2.861   2.609  21.924  0.00  0.00    +0.000 HD
BRANCH  20  22
ATOM     22  C   UNL     1       3.958   2.398  20.138  0.00  0.00    +0.000 C 
BRANCH  22  23
ATOM     23  C   UNL     1       4.490   3.262  19.024  0.00  0.00    +0.000 A 
ATOM     24  C   UNL     1       5.547   4.165  19.218  0.00  0.00    +0.000 A 
ATOM     25  C   UNL     1       6.074   4.888  18.143  0.00  0.00    +0.000 A 
ATOM     26  C   UNL     1       5.548   4.696  16.863  0.00  0.00    +0.000 A 
ATOM     27  C   UNL     1       4.487   3.815  16.653  0.00  0.00    +0.000 A 
ATOM     28  C   UNL     1       3.967   3.095  17.729  0.00  0.00    +0.000 A 
BRANCH  26  29
ATOM     29  S   UNL     1       6.227   5.584  15.488  0.00  0.00    +0.000 S 
ATOM     30  O   UNL     1       5.235   6.519  15.014  0.00  0.00    +0.000 OA
ATOM     31  O   UNL     1       7.579   5.974  15.818  0.00  0.00    +0.000 OA
BRANCH  29  32
ATOM     32  N   UNL     1       6.327   4.368  14.353  0.00  0.00    +0.000 NA
ATOM     33  H   UNL     1       6.399   3.425  14.721  0.00  0.00    +0.000 HD
ATOM     34  H   UNL     1       6.737   4.611  13.458  0.00  0.00    +0.000 HD
ENDBRANCH  29  32
ENDBRANCH  26  29
ENDBRANCH  22  23
ENDBRANCH  20  22
ENDBRANCH  18  20
ENDBRANCH   1  18
TORSDOF 10
ENDMDL
MODEL 2
REMARK VINA RESULT:      -7.1      1.044      1.492
REMARK  Name = 
REMARK  12 active torsions:
REMARK  status: ('A' for Active; 'I' for Inactive)
REMARK    1  A    between atoms: C_1  and  C_2
REMARK    2  A    between atoms: C_2  and  O_3
REMARK    3  A    between atoms: O_3  and  C_4
REMARK    4  A    between atoms: C_4  and  C_6
REMARK    5  A    between atoms: C_10  and  N_11
REMARK    6  A    between atoms: N_11  and  C_12
REMARK    7  A    between atoms: C_12  and  N_14
REMARK    8  A    between atoms: N_14  and  C_15
REMARK    9  A    between atoms: C_15  and  C_16
REMARK   10  A    between atoms: C_19  and  S_20
REMARK   11  A    between atoms: S_20  and  N_21
REMARK   12  A    between atoms: C_29  and  C_30
REMARK                            x       y       z     vdW  Elec       q    Type
REMARK                         _______ _______ _______ _____ _____    ______ ____
ROOT
ATOM      1  N   UNL     1       2.185   5.262  21.025  0.00  0.00    +0.000 N 
ATOM      2  H   UNL     1       2.466   5.446  21.975  0.00  0.00    +0.000 HD
ENDROOT
BRANCH   1   7
ATOM      3  C   UNL     1       0.763  10.304  20.593  0.00  0.00    +0.000 A 
ATOM      4  C   UNL     1       0.622   9.332  21.714  0.00  0.00    +0.000 A 
ATOM      5  N   UNL     1       0.996   8.094  21.715  0.00  0.00    +0.000 NA
ATOM      6  C   UNL     1       1.532   7.625  20.554  0.00  0.00    +0.000 A 
ATOM      7  C   UNL     1       2.064   6.394  20.229  0.00  0.00    +0.000 A 
ATOM      8  C   UNL     1       2.596   6.578  18.939  0.00  0.00    +0.000 A 
ATOM      9  N   UNL     1       2.354   7.789  18.437  0.00  0.00    +0.000 NA
ATOM     10  N   UNL     1       1.709   8.454  19.435  0.00  0.00    +0.000 N 
ATOM     11  C   UNL     1       1.308   9.805  19.458  0.00  0.00    +0.000 A 
ATOM     12  C   UNL     1       1.577  10.635  18.231  0.00  0.00    +0.000 C 
BRANCH   3  13
ATOM     13  C   UNL     1       0.435  11.734  20.795  0.00  0.00    +0.000 C 
ATOM     14  O   UNL     1       1.144  12.557  21.349  0.00  0.00    +0.000 OA
BRANCH  13  15
ATOM     15  O   UNL     1      -0.840  11.934  20.376  0.00  0.00    +0.000 OA
BRANCH  15  17
ATOM     16  C   UNL     1      -2.231  13.657  21.273  0.00  0.00    +0.000 C 
ATOM     17  C   UNL     1      -1.808  12.203  21.397  0.00  0.00    +0.000 C 
ENDBRANCH  15  17
ENDBRANCH  13  15
ENDBRANCH   3  13
ENDBRANCH   1   7
BRANCH   1  18
ATOM     18  C   UNL     1       1.957   3.954  20.675  0.00  0.00    +0.000 C 
ATOM     19  S   UNL     1       0.666   3.313  19.824  0.00  0.00    +0.000 S 
BRANCH  18  20
ATOM     20  N   UNL     1       2.945   3.068  21.003  0.00  0.00    +0.000 N 
ATOM     21  H   UNL     1       2.820   2.664  21.925  0.00  0.00    +0.000 HD
BRANCH  20  22
ATOM     22  C   UNL     1       3.891   2.415  20.127  0.00  0.00    +0.000 C 
BRANCH  22  23
ATOM     23  C   UNL     1       4.504   3.302  19.074  0.00  0.00    +0.000 A 
ATOM     24  C   UNL     1       5.474   4.268  19.384  0.00  0.00    +0.000 A 
ATOM     25  C   UNL     1       6.086   5.013  18.371  0.00  0.00    +0.000 A 
ATOM     26  C   UNL     1       5.736   4.780  17.040  0.00  0.00    +0.000 A 
ATOM     27  C   UNL     1       4.764   3.834  16.713  0.00  0.00    +0.000 A 
ATOM     28  C   UNL     1       4.158   3.093  17.727  0.00  0.00    +0.000 A 
BRANCH  26  29
ATOM     29  S   UNL     1       6.527   5.697  15.745  0.00  0.00    +0.000 S 
ATOM     30  O   UNL     1       7.392   4.802  15.015  0.00  0.00    +0.000 OA
ATOM     31  O   UNL     1       5.536   6.529  15.103  0.00  0.00    +0.000 OA
BRANCH  29  32
ATOM     32  N   UNL     1       7.515   6.701  16.636  0.00  0.00    +0.000 NA
ATOM     33  H   UNL     1       8.411   6.311  16.910  0.00  0.00    +0.000 HD
ATOM     34  H   UNL     1       7.057   7.404  17.207  0.00  0.00    +0.000 HD
ENDBRANCH  29  32
ENDBRANCH  26  29
ENDBRANCH  22  23
ENDBRANCH  20  22
ENDBRANCH  18  20
ENDBRANCH   1  18
TORSDOF 10
ENDMDL
MODEL 3
REMARK VINA RESULT:      -7.1      3.242      8.766
REMARK  Name = 
REMARK  12 active torsions:
REMARK  status: ('A' for Active; 'I' for Inactive)
REMARK    1  A    between atoms: C_1  and  C_2
REMARK    2  A    between atoms: C_2  and  O_3
REMARK    3  A    between atoms: O_3  and  C_4
REMARK    4  A    between atoms: C_4  and  C_6
REMARK    5  A    between atoms: C_10  and  N_11
REMARK    6  A    between atoms: N_11  and  C_12
REMARK    7  A    between atoms: C_12  and  N_14
REMARK    8  A    between atoms: N_14  and  C_15
REMARK    9  A    between atoms: C_15  and  C_16
REMARK   10  A    between atoms: C_19  and  S_20
REMARK   11  A    between atoms: S_20  and  N_21
REMARK   12  A    between atoms: C_29  and  C_30
REMARK                            x       y       z     vdW  Elec       q    Type
REMARK                         _______ _______ _______ _____ _____    ______ ____
ROOT
ATOM      1  N   UNL     1       5.974   4.981  19.224  0.00  0.00    +0.000 N 
ATOM      2  H   UNL     1       6.631   5.005  19.990  0.00  0.00    +0.000 HD
ENDROOT
BRANCH   1   7
ATOM      3  C   UNL     1       6.199   3.855  14.096  0.00  0.00    +0.000 A 
ATOM      4  C   UNL     1       5.464   3.204  15.217  0.00  0.00    +0.000 A 
ATOM      5  N   UNL     1       5.487   3.554  16.461  0.00  0.00    +0.000 NA
ATOM      6  C   UNL     1       6.304   4.596  16.781  0.00  0.00    +0.000 A 
ATOM      7  C   UNL     1       6.530   5.242  17.978  0.00  0.00    +0.000 A 
ATOM      8  C   UNL     1       7.351   6.332  17.634  0.00  0.00    +0.000 A 
ATOM      9  N   UNL     1       7.700   6.342  16.346  0.00  0.00    +0.000 NA
ATOM     10  N   UNL     1       7.043   5.280  15.803  0.00  0.00    +0.000 N 
ATOM     11  C   UNL     1       6.994   4.893  14.448  0.00  0.00    +0.000 A 
ATOM     12  C   UNL     1       7.782   5.710  13.459  0.00  0.00    +0.000 C 
BRANCH   3  13
ATOM     13  C   UNL     1       5.948   3.443  12.696  0.00  0.00    +0.000 C 
ATOM     14  O   UNL     1       6.803   3.173  11.868  0.00  0.00    +0.000 OA
BRANCH  13  15
ATOM     15  O   UNL     1       4.616   3.548  12.459  0.00  0.00    +0.000 OA
BRANCH  15  17
ATOM     16  C   UNL     1       3.651   4.013  10.325  0.00  0.00    +0.000 C 
ATOM     17  C   UNL     1       4.132   2.922  11.266  0.00  0.00    +0.000 C 
ENDBRANCH  15  17
ENDBRANCH  13  15
ENDBRANCH   3  13
ENDBRANCH   1   7
BRANCH   1  18
ATOM     18  C   UNL     1       4.661   4.714  19.526  0.00  0.00    +0.000 C 
ATOM     19  S   UNL     1       3.955   3.241  19.892  0.00  0.00    +0.000 S 
BRANCH  18  20
ATOM     20  N   UNL     1       3.834   5.800  19.604  0.00  0.00    +0.000 N 
ATOM     21  H   UNL     1       4.160   6.495  20.267  0.00  0.00    +0.000 HD
BRANCH  20  22
ATOM     22  C   UNL     1       2.810   6.216  18.673  0.00  0.00    +0.000 C 
BRANCH  22  23
ATOM     23  C   UNL     1       2.119   7.510  19.019  0.00  0.00    +0.000 A 
ATOM     24  C   UNL     1       1.738   7.825  20.334  0.00  0.00    +0.000 A 
ATOM     25  C   UNL     1       1.178   9.070  20.633  0.00  0.00    +0.000 A 
ATOM     26  C   UNL     1       1.012  10.012  19.616  0.00  0.00    +0.000 A 
ATOM     27  C   UNL     1       1.370   9.712  18.301  0.00  0.00    +0.000 A 
ATOM     28  C   UNL     1       1.930   8.469  18.008  0.00  0.00    +0.000 A 
BRANCH  26  29
ATOM     29  S   UNL     1       0.331  11.605  19.990  0.00  0.00    +0.000 S 
ATOM     30  O   UNL     1      -1.090  11.457  20.196  0.00  0.00    +0.000 OA
ATOM     31  O   UNL     1       1.198  12.261  20.941  0.00  0.00    +0.000 OA
BRANCH  29  32
ATOM     32  N   UNL     1       0.528  12.377  18.526  0.00  0.00    +0.000 NA
ATOM     33  H   UNL     1       0.219  11.861  17.709  0.00  0.00    +0.000 HD
ATOM     34  H   UNL     1       1.286  13.048  18.462  0.00  0.00    +0.000 HD
ENDBRANCH  29  32
ENDBRANCH  26  29
ENDBRANCH  22  23
ENDBRANCH  20  22
ENDBRANCH  18  20
ENDBRANCH   1  18
TORSDOF 10
ENDMDL
MODEL 4
REMARK VINA RESULT:      -7.0      2.299      2.885
REMARK  Name = 
REMARK  12 active torsions:
REMARK  status: ('A' for Active; 'I' for Inactive)
REMARK    1  A    between atoms: C_1  and  C_2
REMARK    2  A    between atoms: C_2  and  O_3
REMARK    3  A    between atoms: O_3  and  C_4
REMARK    4  A    between atoms: C_4  and  C_6
REMARK    5  A    between atoms: C_10  and  N_11
REMARK    6  A    between atoms: N_11  and  C_12
REMARK    7  A    between atoms: C_12  and  N_14
REMARK    8  A    between atoms: N_14  and  C_15
REMARK    9  A    between atoms: C_15  and  C_16
REMARK   10  A    between atoms: C_19  and  S_20
REMARK   11  A    between atoms: S_20  and  N_21
REMARK   12  A    between atoms: C_29  and  C_30
REMARK                            x       y       z     vdW  Elec       q    Type
REMARK                         _______ _______ _______ _____ _____    ______ ____
ROOT
ATOM      1  N   UNL     1       1.886   6.467  21.290  0.00  0.00    +0.000 N 
ATOM      2  H   UNL     1       2.323   6.496  22.198  0.00  0.00    +0.000 HD
ENDROOT
BRANCH   1   7
ATOM      3  C   UNL     1      -0.624  10.968  22.316  0.00  0.00    +0.000 A 
ATOM      4  C   UNL     1      -0.400   9.752  23.148  0.00  0.00    +0.000 A 
ATOM      5  N   UNL     1       0.226   8.678  22.794  0.00  0.00    +0.000 NA
ATOM      6  C   UNL     1       0.687   8.643  21.511  0.00  0.00    +0.000 A 
ATOM      7  C   UNL     1       1.419   7.692  20.833  0.00  0.00    +0.000 A 
ATOM      8  C   UNL     1       1.719   8.302  19.600  0.00  0.00    +0.000 A 
ATOM      9  N   UNL     1       1.157   9.503  19.456  0.00  0.00    +0.000 NA
ATOM     10  N   UNL     1       0.528   9.733  20.642  0.00  0.00    +0.000 N 
ATOM     11  C   UNL     1      -0.146  10.902  21.052  0.00  0.00    +0.000 A 
ATOM     12  C   UNL     1      -0.230  12.041  20.070  0.00  0.00    +0.000 C 
BRANCH   3  13
ATOM     13  C   UNL     1      -1.220  12.186  22.913  0.00  0.00    +0.000 C 
ATOM     14  O   UNL     1      -0.602  13.158  23.316  0.00  0.00    +0.000 OA
BRANCH  13  15
ATOM     15  O   UNL     1      -2.553  11.974  23.055  0.00  0.00    +0.000 OA
BRANCH  15  17
ATOM     16  C   UNL     1      -4.243  12.926  24.448  0.00  0.00    +0.000 C 
ATOM     17  C   UNL     1      -3.365  13.141  23.228  0.00  0.00    +0.000 C 
ENDBRANCH  15  17
ENDBRANCH  13  15
ENDBRANCH   3  13
ENDBRANCH   1   7
BRANCH   1  18
ATOM     18  C   UNL     1       1.811   5.246  20.664  0.00  0.00    +0.000 C 
ATOM     19  S   UNL     1       2.223   3.740  21.266  0.00  0.00    +0.000 S 
BRANCH  18  20
ATOM     20  N   UNL     1       1.265   5.251  19.411  0.00  0.00    +0.000 N 
ATOM     21  H   UNL     1       0.736   6.094  19.216  0.00  0.00    +0.000 HD
BRANCH  20  22
ATOM     22  C   UNL     1       1.611   4.422  18.279  0.00  0.00    +0.000 C 
BRANCH  22  23
ATOM     23  C   UNL     1       2.973   4.683  17.689  0.00  0.00    +0.000 A 
ATOM     24  C   UNL     1       3.595   5.939  17.771  0.00  0.00    +0.000 A 
ATOM     25  C   UNL     1       4.895   6.123  17.291  0.00  0.00    +0.000 A 
ATOM     26  C   UNL     1       5.583   5.041  16.738  0.00  0.00    +0.000 A 
ATOM     27  C   UNL     1       4.976   3.788  16.633  0.00  0.00    +0.000 A 
ATOM     28  C   UNL     1       3.680   3.610  17.116  0.00  0.00    +0.000 A 
BRANCH  26  29
ATOM     29  S   UNL     1       7.242   5.255  16.153  0.00  0.00    +0.000 S 
ATOM     30  O   UNL     1       8.099   4.340  16.867  0.00  0.00    +0.000 OA
ATOM     31  O   UNL     1       7.212   5.338  14.711  0.00  0.00    +0.000 OA
BRANCH  29  32
ATOM     32  N   UNL     1       7.579   6.782  16.729  0.00  0.00    +0.000 NA
ATOM     33  H   UNL     1       8.564   7.015  16.813  0.00  0.00    +0.000 HD
ATOM     34  H   UNL     1       6.891   7.199  17.346  0.00  0.00    +0.000 HD
ENDBRANCH  29  32
ENDBRANCH  26  29
ENDBRANCH  22  23
ENDBRANCH  20  22
ENDBRANCH  18  20
ENDBRANCH   1  18
TORSDOF 10
ENDMDL
MODEL 5
REMARK VINA RESULT:      -6.9      0.888      1.457
REMARK  Name = 
REMARK  12 active torsions:
REMARK  status: ('A' for Active; 'I' for Inactive)
REMARK    1  A    between atoms: C_1  and  C_2
REMARK    2  A    between atoms: C_2  and  O_3
REMARK    3  A    between atoms: O_3  and  C_4
REMARK    4  A    between atoms: C_4  and  C_6
REMARK    5  A    between atoms: C_10  and  N_11
REMARK    6  A    between atoms: N_11  and  C_12
REMARK    7  A    between atoms: C_12  and  N_14
REMARK    8  A    between atoms: N_14  and  C_15
REMARK    9  A    between atoms: C_15  and  C_16
REMARK   10  A    between atoms: C_19  and  S_20
REMARK   11  A    between atoms: S_20  and  N_21
REMARK   12  A    between atoms: C_29  and  C_30
REMARK                            x       y       z     vdW  Elec       q    Type
REMARK                         _______ _______ _______ _____ _____    ______ ____
ROOT
ATOM      1  N   UNL     1       2.758   5.337  20.645  0.00  0.00    +0.000 N 
ATOM      2  H   UNL     1       3.473   5.487  21.341  0.00  0.00    +0.000 HD
ENDROOT
BRANCH   1   7
ATOM      3  C   UNL     1       0.641  10.140  20.383  0.00  0.00    +0.000 A 
ATOM      4  C   UNL     1       0.677   9.137  21.485  0.00  0.00    +0.000 A 
ATOM      5  N   UNL     1       1.218   7.964  21.444  0.00  0.00    +0.000 NA
ATOM      6  C   UNL     1       1.769   7.594  20.253  0.00  0.00    +0.000 A 
ATOM      7  C   UNL     1       2.452   6.456  19.881  0.00  0.00    +0.000 A 
ATOM      8  C   UNL     1       2.905   6.735  18.578  0.00  0.00    +0.000 A 
ATOM      9  N   UNL     1       2.479   7.910  18.113  0.00  0.00    +0.000 NA
ATOM     10  N   UNL     1       1.787   8.460  19.149  0.00  0.00    +0.000 N 
ATOM     11  C   UNL     1       1.205   9.743  19.218  0.00  0.00    +0.000 A 
ATOM     12  C   UNL     1       1.310  10.624  18.002  0.00  0.00    +0.000 C 
BRANCH   3  13
ATOM     13  C   UNL     1       0.126  11.507  20.629  0.00  0.00    +0.000 C 
ATOM     14  O   UNL     1      -0.183  12.318  19.772  0.00  0.00    +0.000 OA
BRANCH  13  15
ATOM     15  O   UNL     1       0.186  11.743  21.964  0.00  0.00    +0.000 OA
BRANCH  15  17
ATOM     16  C   UNL     1      -1.894  11.668  23.135  0.00  0.00    +0.000 C 
ATOM     17  C   UNL     1      -0.847  12.572  22.508  0.00  0.00    +0.000 C 
ENDBRANCH  15  17
ENDBRANCH  13  15
ENDBRANCH   3  13
ENDBRANCH   1   7
BRANCH   1  18
ATOM     18  C   UNL     1       2.201   4.083  20.571  0.00  0.00    +0.000 C 
ATOM     19  S   UNL     1       0.723   3.637  19.924  0.00  0.00    +0.000 S 
BRANCH  18  20
ATOM     20  N   UNL     1       2.981   3.056  21.023  0.00  0.00    +0.000 N 
ATOM     21  H   UNL     1       2.555   2.545  21.788  0.00  0.00    +0.000 HD
BRANCH  20  22
ATOM     22  C   UNL     1       4.106   2.430  20.366  0.00  0.00    +0.000 C 
BRANCH  22  23
ATOM     23  C   UNL     1       4.591   3.130  19.123  0.00  0.00    +0.000 A 
ATOM     24  C   UNL     1       3.955   2.974  17.881  0.00  0.00    +0.000 A 
ATOM     25  C   UNL     1       4.378   3.706  16.767  0.00  0.00    +0.000 A 
ATOM     26  C   UNL     1       5.434   4.610  16.900  0.00  0.00    +0.000 A 
ATOM     27  C   UNL     1       6.089   4.767  18.122  0.00  0.00    +0.000 A 
ATOM     28  C   UNL     1       5.662   4.035  19.230  0.00  0.00    +0.000 A 
BRANCH  26  29
ATOM     29  S   UNL     1       5.959   5.565  15.502  0.00  0.00    +0.000 S 
ATOM     30  O   UNL     1       5.093   6.714  15.384  0.00  0.00    +0.000 OA
ATOM     31  O   UNL     1       7.400   5.669  15.534  0.00  0.00    +0.000 OA
BRANCH  29  32
ATOM     32  N   UNL     1       5.564   4.533  14.255  0.00  0.00    +0.000 NA
ATOM     33  H   UNL     1       6.310   3.925  13.932  0.00  0.00    +0.000 HD
ATOM     34  H   UNL     1       4.832   4.838  13.624  0.00  0.00    +0.000 HD
ENDBRANCH  29  32
ENDBRANCH  26  29
ENDBRANCH  22  23
ENDBRANCH  20  22
ENDBRANCH  18  20
ENDBRANCH   1  18
TORSDOF 10
ENDMDL
MODEL 6
REMARK VINA RESULT:      -6.9      4.376      5.686
REMARK  Name = 
REMARK  12 active torsions:
REMARK  status: ('A' for Active; 'I' for Inactive)
REMARK    1  A    between atoms: C_1  and  C_2
REMARK    2  A    between atoms: C_2  and  O_3
REMARK    3  A    between atoms: O_3  and  C_4
REMARK    4  A    between atoms: C_4  and  C_6
REMARK    5  A    between atoms: C_10  and  N_11
REMARK    6  A    between atoms: N_11  and  C_12
REMARK    7  A    between atoms: C_12  and  N_14
REMARK    8  A    between atoms: N_14  and  C_15
REMARK    9  A    between atoms: C_15  and  C_16
REMARK   10  A    between atoms: C_19  and  S_20
REMARK   11  A    between atoms: S_20  and  N_21
REMARK   12  A    between atoms: C_29  and  C_30
REMARK                            x       y       z     vdW  Elec       q    Type
REMARK                         _______ _______ _______ _____ _____    ______ ____
ROOT
ATOM      1  N   UNL     1       0.166  10.503  18.300  0.00  0.00    +0.000 N 
ATOM      2  H   UNL     1       0.704  10.992  17.601  0.00  0.00    +0.000 HD
ENDROOT
BRANCH   1   7
ATOM      3  C   UNL     1      -4.512  12.474  19.660  0.00  0.00    +0.000 A 
ATOM      4  C   UNL     1      -3.157  12.650  20.255  0.00  0.00    +0.000 A 
ATOM      5  N   UNL     1      -2.058  12.104  19.849  0.00  0.00    +0.000 NA
ATOM      6  C   UNL     1      -2.165  11.243  18.798  0.00  0.00    +0.000 A 
ATOM      7  C   UNL     1      -1.208  10.536  18.100  0.00  0.00    +0.000 A 
ATOM      8  C   UNL     1      -1.918   9.956  17.032  0.00  0.00    +0.000 A 
ATOM      9  N   UNL     1      -3.230  10.190  17.083  0.00  0.00    +0.000 NA
ATOM     10  N   UNL     1      -3.393  11.002  18.164  0.00  0.00    +0.000 N 
ATOM     11  C   UNL     1      -4.579  11.619  18.612  0.00  0.00    +0.000 A 
ATOM     12  C   UNL     1      -5.845  11.340  17.846  0.00  0.00    +0.000 C 
BRANCH   3  13
ATOM     13  C   UNL     1      -5.652  13.293  20.134  0.00  0.00    +0.000 C 
ATOM     14  O   UNL     1      -5.991  14.373  19.680  0.00  0.00    +0.000 OA
BRANCH  13  15
ATOM     15  O   UNL     1      -6.165  12.697  21.239  0.00  0.00    +0.000 OA
BRANCH  15  17
ATOM     16  C   UNL     1      -7.710  10.915  20.866  0.00  0.00    +0.000 C 
ATOM     17  C   UNL     1      -7.563  12.388  21.202  0.00  0.00    +0.000 C 
ENDBRANCH  15  17
ENDBRANCH  13  15
ENDBRANCH   3  13
ENDBRANCH   1   7
BRANCH   1  18
ATOM     18  C   UNL     1       0.857   9.905  19.326  0.00  0.00    +0.000 C 
ATOM     19  S   UNL     1       0.616  10.061  20.975  0.00  0.00    +0.000 S 
BRANCH  18  20
ATOM     20  N   UNL     1       1.824   9.013  18.953  0.00  0.00    +0.000 N 
ATOM     21  H   UNL     1       2.605   9.454  18.481  0.00  0.00    +0.000 HD
BRANCH  20  22
ATOM     22  C   UNL     1       2.025   7.661  19.422  0.00  0.00    +0.000 C 
BRANCH  22  23
ATOM     23  C   UNL     1       3.131   6.903  18.733  0.00  0.00    +0.000 A 
ATOM     24  C   UNL     1       3.663   7.314  17.501  0.00  0.00    +0.000 A 
ATOM     25  C   UNL     1       4.748   6.639  16.933  0.00  0.00    +0.000 A 
ATOM     26  C   UNL     1       5.313   5.555  17.608  0.00  0.00    +0.000 A 
ATOM     27  C   UNL     1       4.788   5.122  18.827  0.00  0.00    +0.000 A 
ATOM     28  C   UNL     1       3.707   5.801  19.390  0.00  0.00    +0.000 A 
BRANCH  26  29
ATOM     29  S   UNL     1       6.707   4.711  16.913  0.00  0.00    +0.000 S 
ATOM     30  O   UNL     1       7.619   4.380  17.981  0.00  0.00    +0.000 OA
ATOM     31  O   UNL     1       6.223   3.735  15.963  0.00  0.00    +0.000 OA
BRANCH  29  32
ATOM     32  N   UNL     1       7.412   5.943  16.040  0.00  0.00    +0.000 NA
ATOM     33  H   UNL     1       7.434   6.850  16.495  0.00  0.00    +0.000 HD
ATOM     34  H   UNL     1       7.371   5.868  15.029  0.00  0.00    +0.000 HD
ENDBRANCH  29  32
ENDBRANCH  26  29
ENDBRANCH  22  23
ENDBRANCH  20  22
ENDBRANCH  18  20
ENDBRANCH   1  18
TORSDOF 10
ENDMDL
MODEL 7
REMARK VINA RESULT:      -6.8      0.884      1.374
REMARK  Name = 
REMARK  12 active torsions:
REMARK  status: ('A' for Active; 'I' for Inactive)
REMARK    1  A    between atoms: C_1  and  C_2
REMARK    2  A    between atoms: C_2  and  O_3
REMARK    3  A    between atoms: O_3  and  C_4
REMARK    4  A    between atoms: C_4  and  C_6
REMARK    5  A    between atoms: C_10  and  N_11
REMARK    6  A    between atoms: N_11  and  C_12
REMARK    7  A    between atoms: C_12  and  N_14
REMARK    8  A    between atoms: N_14  and  C_15
REMARK    9  A    between atoms: C_15  and  C_16
REMARK   10  A    between atoms: C_19  and  S_20
REMARK   11  A    between atoms: S_20  and  N_21
REMARK   12  A    between atoms: C_29  and  C_30
REMARK                            x       y       z     vdW  Elec       q    Type
REMARK                         _______ _______ _______ _____ _____    ______ ____
ROOT
ATOM      1  N   UNL     1       2.865   5.324  20.574  0.00  0.00    +0.000 N 
ATOM      2  H   UNL     1       3.657   5.443  21.186  0.00  0.00    +0.000 HD
ENDROOT
BRANCH   1   7
ATOM      3  C   UNL     1       0.482  10.008  20.512  0.00  0.00    +0.000 A 
ATOM      4  C   UNL     1       0.556   8.953  21.562  0.00  0.00    +0.000 A 
ATOM      5  N   UNL     1       1.164   7.816  21.473  0.00  0.00    +0.000 NA
ATOM      6  C   UNL     1       1.756   7.540  20.277  0.00  0.00    +0.000 A 
ATOM      7  C   UNL     1       2.509   6.462  19.862  0.00  0.00    +0.000 A 
ATOM      8  C   UNL     1       2.969   6.834  18.584  0.00  0.00    +0.000 A 
ATOM      9  N   UNL     1       2.485   8.006  18.171  0.00  0.00    +0.000 NA
ATOM     10  N   UNL     1       1.745   8.462  19.219  0.00  0.00    +0.000 N 
ATOM     11  C   UNL     1       1.089   9.704  19.340  0.00  0.00    +0.000 A 
ATOM     12  C   UNL     1       1.166  10.652  18.173  0.00  0.00    +0.000 C 
BRANCH   3  13
ATOM     13  C   UNL     1      -0.113  11.329  20.817  0.00  0.00    +0.000 C 
ATOM     14  O   UNL     1      -1.243  11.686  20.528  0.00  0.00    +0.000 OA
BRANCH  13  15
ATOM     15  O   UNL     1       0.857  12.114  21.351  0.00  0.00    +0.000 OA
BRANCH  15  17
ATOM     16  C   UNL     1       0.003  14.160  22.237  0.00  0.00    +0.000 C 
ATOM     17  C   UNL     1       0.755  13.518  21.085  0.00  0.00    +0.000 C 
ENDBRANCH  15  17
ENDBRANCH  13  15
ENDBRANCH   3  13
ENDBRANCH   1   7
BRANCH   1  18
ATOM     18  C   UNL     1       2.264   4.089  20.550  0.00  0.00    +0.000 C 
ATOM     19  S   UNL     1       0.670   3.712  20.207  0.00  0.00    +0.000 S 
BRANCH  18  20
ATOM     20  N   UNL     1       3.090   3.021  20.766  0.00  0.00    +0.000 N 
ATOM     21  H   UNL     1       2.930   2.575  21.662  0.00  0.00    +0.000 HD
BRANCH  20  22
ATOM     22  C   UNL     1       3.870   2.281  19.800  0.00  0.00    +0.000 C 
BRANCH  22  23
ATOM     23  C   UNL     1       4.545   3.120  18.746  0.00  0.00    +0.000 A 
ATOM     24  C   UNL     1       4.097   3.150  17.415  0.00  0.00    +0.000 A 
ATOM     25  C   UNL     1       4.691   4.007  16.483  0.00  0.00    +0.000 A 
ATOM     26  C   UNL     1       5.730   4.848  16.888  0.00  0.00    +0.000 A 
ATOM     27  C   UNL     1       6.199   4.822  18.202  0.00  0.00    +0.000 A 
ATOM     28  C   UNL     1       5.601   3.967  19.127  0.00  0.00    +0.000 A 
BRANCH  26  29
ATOM     29  S   UNL     1       6.471   5.959  15.723  0.00  0.00    +0.000 S 
ATOM     30  O   UNL     1       7.318   5.195  14.839  0.00  0.00    +0.000 OA
ATOM     31  O   UNL     1       5.453   6.866  15.244  0.00  0.00    +0.000 OA
BRANCH  29  32
ATOM     32  N   UNL     1       7.479   6.831  16.723  0.00  0.00    +0.000 NA
ATOM     33  H   UNL     1       8.292   7.246  16.279  0.00  0.00    +0.000 HD
ATOM     34  H   UNL     1       7.502   6.557  17.699  0.00  0.00    +0.000 HD
ENDBRANCH  29  32
ENDBRANCH  26  29
ENDBRANCH  22  23
ENDBRANCH  20  22
ENDBRANCH  18  20
ENDBRANCH   1  18
TORSDOF 10
ENDMDL
MODEL 8
REMARK VINA RESULT:      -6.8      1.696      2.282
REMARK  Name = 
REMARK  12 active torsions:
REMARK  status: ('A' for Active; 'I' for Inactive)
REMARK    1  A    between atoms: C_1  and  C_2
REMARK    2  A    between atoms: C_2  and  O_3
REMARK    3  A    between atoms: O_3  and  C_4
REMARK    4  A    between atoms: C_4  and  C_6
REMARK    5  A    between atoms: C_10  and  N_11
REMARK    6  A    between atoms: N_11  and  C_12
REMARK    7  A    between atoms: C_12  and  N_14
REMARK    8  A    between atoms: N_14  and  C_15
REMARK    9  A    between atoms: C_15  and  C_16
REMARK   10  A    between atoms: C_19  and  S_20
REMARK   11  A    between atoms: S_20  and  N_21
REMARK   12  A    between atoms: C_29  and  C_30
REMARK                            x       y       z     vdW  Elec       q    Type
REMARK                         _______ _______ _______ _____ _____    ______ ____
ROOT
ATOM      1  N   UNL     1       2.593   5.603  20.531  0.00  0.00    +0.000 N 
ATOM      2  H   UNL     1       3.464   5.651  21.038  0.00  0.00    +0.000 HD
ENDROOT
BRANCH   1   7
ATOM      3  C   UNL     1       0.390  10.345  21.058  0.00  0.00    +0.000 A 
ATOM      4  C   UNL     1       0.545   9.217  22.020  0.00  0.00    +0.000 A 
ATOM      5  N   UNL     1       1.097   8.072  21.785  0.00  0.00    +0.000 NA
ATOM      6  C   UNL     1       1.539   7.864  20.513  0.00  0.00    +0.000 A 
ATOM      7  C   UNL     1       2.200   6.798  19.942  0.00  0.00    +0.000 A 
ATOM      8  C   UNL     1       2.524   7.245  18.647  0.00  0.00    +0.000 A 
ATOM      9  N   UNL     1       2.039   8.457  18.372  0.00  0.00    +0.000 NA
ATOM     10  N   UNL     1       1.440   8.859  19.527  0.00  0.00    +0.000 N 
ATOM     11  C   UNL     1       0.848  10.107  19.807  0.00  0.00    +0.000 A 
ATOM     12  C   UNL     1       0.825  11.133  18.704  0.00  0.00    +0.000 C 
BRANCH   3  13
ATOM     13  C   UNL     1      -0.119  11.658  21.518  0.00  0.00    +0.000 C 
ATOM     14  O   UNL     1       0.564  12.630  21.794  0.00  0.00    +0.000 OA
BRANCH  13  15
ATOM     15  O   UNL     1      -1.459  11.546  21.705  0.00  0.00    +0.000 OA
BRANCH  15  17
ATOM     16  C   UNL     1      -2.890  12.850  23.103  0.00  0.00    +0.000 C 
ATOM     17  C   UNL     1      -1.924  11.679  23.052  0.00  0.00    +0.000 C 
ENDBRANCH  15  17
ENDBRANCH  13  15
ENDBRANCH   3  13
ENDBRANCH   1   7
BRANCH   1  18
ATOM     18  C   UNL     1       1.939   4.395  20.512  0.00  0.00    +0.000 C 
ATOM     19  S   UNL     1       1.779   3.278  21.747  0.00  0.00    +0.000 S 
BRANCH  18  20
ATOM     20  N   UNL     1       1.274   4.095  19.356  0.00  0.00    +0.000 N 
ATOM     21  H   UNL     1       0.461   4.683  19.206  0.00  0.00    +0.000 HD
BRANCH  20  22
ATOM     22  C   UNL     1       1.746   3.334  18.221  0.00  0.00    +0.000 C 
BRANCH  22  23
ATOM     23  C   UNL     1       3.162   3.629  17.799  0.00  0.00    +0.000 A 
ATOM     24  C   UNL     1       3.465   4.216  16.559  0.00  0.00    +0.000 A 
ATOM     25  C   UNL     1       4.783   4.556  16.236  0.00  0.00    +0.000 A 
ATOM     26  C   UNL     1       5.800   4.322  17.163  0.00  0.00    +0.000 A 
ATOM     27  C   UNL     1       5.521   3.727  18.394  0.00  0.00    +0.000 A 
ATOM     28  C   UNL     1       4.205   3.391  18.712  0.00  0.00    +0.000 A 
BRANCH  26  29
ATOM     29  S   UNL     1       7.469   4.777  16.776  0.00  0.00    +0.000 S 
ATOM     30  O   UNL     1       8.350   4.118  17.709  0.00  0.00    +0.000 OA
ATOM     31  O   UNL     1       7.643   4.701  15.344  0.00  0.00    +0.000 OA
BRANCH  29  32
ATOM     32  N   UNL     1       7.453   6.393  17.186  0.00  0.00    +0.000 NA
ATOM     33  H   UNL     1       6.819   6.652  17.936  0.00  0.00    +0.000 HD
ATOM     34  H   UNL     1       7.690   7.053  16.454  0.00  0.00    +0.000 HD
ENDBRANCH  29  32
ENDBRANCH  26  29
ENDBRANCH  22  23
ENDBRANCH  20  22
ENDBRANCH  18  20
ENDBRANCH   1  18
TORSDOF 10
ENDMDL
MODEL 9
REMARK VINA RESULT:      -6.8      3.338      8.776
REMARK  Name = 
REMARK  12 active torsions:
REMARK  status: ('A' for Active; 'I' for Inactive)
REMARK    1  A    between atoms: C_1  and  C_2
REMARK    2  A    between atoms: C_2  and  O_3
REMARK    3  A    between atoms: O_3  and  C_4
REMARK    4  A    between atoms: C_4  and  C_6
REMARK    5  A    between atoms: C_10  and  N_11
REMARK    6  A    between atoms: N_11  and  C_12
REMARK    7  A    between atoms: C_12  and  N_14
REMARK    8  A    between atoms: N_14  and  C_15
REMARK    9  A    between atoms: C_15  and  C_16
REMARK   10  A    between atoms: C_19  and  S_20
REMARK   11  A    between atoms: S_20  and  N_21
REMARK   12  A    between atoms: C_29  and  C_30
REMARK                            x       y       z     vdW  Elec       q    Type
REMARK                         _______ _______ _______ _____ _____    ______ ____
ROOT
ATOM      1  N   UNL     1       5.209   5.694  18.692  0.00  0.00    +0.000 N 
ATOM      2  H   UNL     1       5.342   6.491  19.296  0.00  0.00    +0.000 HD
ENDROOT
BRANCH   1   7
ATOM      3  C   UNL     1       6.047   3.949  13.807  0.00  0.00    +0.000 A 
ATOM      4  C   UNL     1       5.006   3.599  14.814  0.00  0.00    +0.000 A 
ATOM      5  N   UNL     1       4.893   4.081  16.008  0.00  0.00    +0.000 NA
ATOM      6  C   UNL     1       5.856   4.965  16.395  0.00  0.00    +0.000 A 
ATOM      7  C   UNL     1       6.013   5.687  17.559  0.00  0.00    +0.000 A 
ATOM      8  C   UNL     1       7.102   6.537  17.294  0.00  0.00    +0.000 A 
ATOM      9  N   UNL     1       7.658   6.324  16.101  0.00  0.00    +0.000 NA
ATOM     10  N   UNL     1       6.884   5.362  15.527  0.00  0.00    +0.000 N 
ATOM     11  C   UNL     1       6.981   4.837  14.222  0.00  0.00    +0.000 A 
ATOM     12  C   UNL     1       8.088   5.352  13.341  0.00  0.00    +0.000 C 
BRANCH   3  13
ATOM     13  C   UNL     1       5.953   3.435  12.421  0.00  0.00    +0.000 C 
ATOM     14  O   UNL     1       6.806   2.782  11.843  0.00  0.00    +0.000 OA
BRANCH  13  15
ATOM     15  O   UNL     1       4.817   3.928  11.867  0.00  0.00    +0.000 OA
BRANCH  15  17
ATOM     16  C   UNL     1       3.206   3.761  10.111  0.00  0.00    +0.000 C 
ATOM     17  C   UNL     1       4.001   2.993  11.152  0.00  0.00    +0.000 C 
ENDBRANCH  15  17
ENDBRANCH  13  15
ENDBRANCH   3  13
ENDBRANCH   1   7
BRANCH   1  18
ATOM     18  C   UNL     1       4.267   4.768  19.067  0.00  0.00    +0.000 C 
ATOM     19  S   UNL     1       4.496   3.171  19.513  0.00  0.00    +0.000 S 
BRANCH  18  20
ATOM     20  N   UNL     1       2.982   5.226  19.154  0.00  0.00    +0.000 N 
ATOM     21  H   UNL     1       2.394   4.896  18.396  0.00  0.00    +0.000 HD
BRANCH  20  22
ATOM     22  C   UNL     1       2.309   5.797  20.299  0.00  0.00    +0.000 C 
BRANCH  22  23
ATOM     23  C   UNL     1       1.824   7.212  20.115  0.00  0.00    +0.000 A 
ATOM     24  C   UNL     1       1.210   7.932  21.153  0.00  0.00    +0.000 A 
ATOM     25  C   UNL     1       0.851   9.271  20.974  0.00  0.00    +0.000 A 
ATOM     26  C   UNL     1       1.121   9.899  19.756  0.00  0.00    +0.000 A 
ATOM     27  C   UNL     1       1.716   9.196  18.708  0.00  0.00    +0.000 A 
ATOM     28  C   UNL     1       2.074   7.860  18.892  0.00  0.00    +0.000 A 
BRANCH  26  29
ATOM     29  S   UNL     1       0.698  11.605  19.529  0.00  0.00    +0.000 S 
ATOM     30  O   UNL     1       1.569  12.161  18.521  0.00  0.00    +0.000 OA
ATOM     31  O   UNL     1      -0.742  11.715  19.470  0.00  0.00    +0.000 OA
BRANCH  29  32
ATOM     32  N   UNL     1       1.183  12.242  20.990  0.00  0.00    +0.000 NA
ATOM     33  H   UNL     1       0.829  13.168  21.208  0.00  0.00    +0.000 HD
ATOM     34  H   UNL     1       2.077  11.928  21.352  0.00  0.00    +0.000 HD
ENDBRANCH  29  32
ENDBRANCH  26  29
ENDBRANCH  22  23
ENDBRANCH  20  22
ENDBRANCH  18  20
ENDBRANCH   1  18
TORSDOF 10
ENDMDL
