MODEL 1
REMARK VINA RESULT:      -7.1      0.000      0.000
REMARK  Name = 
REMARK  8 active torsions:
REMARK  status: ('A' for Active; 'I' for Inactive)
REMARK    1  A    between atoms: C_1  and  O_2
REMARK    2  A    between atoms: O_2  and  C_3
REMARK    3  A    between atoms: C_3  and  C_5
REMARK    4  A    between atoms: C_5  and  S_6
REMARK    5  A    between atoms: S_6  and  C_7
REMARK    6  A    between atoms: C_11  and  C_12
REMARK    7  A    between atoms: N_15  and  C_16
REMARK    8  A    between atoms: C_23  and  C_24
REMARK                            x       y       z     vdW  Elec       q    Type
REMARK                         _______ _______ _______ _____ _____    ______ ____
ROOT
ATOM      1  C   UNL     1       0.814  10.462  19.068  0.00  0.00    +0.000 A 
ATOM      2  N   UNL     1       1.650  10.283  17.999  0.00  0.00    +0.000 N 
ATOM      3  C   UNL     1       2.273   9.067  18.099  0.00  0.00    +0.000 A 
ATOM      4  N   UNL     1       3.136   8.584  17.197  0.00  0.00    +0.000 NA
ATOM      5  C   UNL     1       3.573   7.353  17.519  0.00  0.00    +0.000 A 
ATOM      6  C   UNL     1       4.557   6.694  16.601  0.00  0.00    +0.000 C 
ATOM      7  N   UNL     1       3.204   6.641  18.602  0.00  0.00    +0.000 NA
ATOM      8  C   UNL     1       2.325   7.153  19.504  0.00  0.00    +0.000 A 
ATOM      9  N   UNL     1       1.971   6.390  20.625  0.00  0.00    +0.000 N 
ATOM     10  C   UNL     1       1.830   8.445  19.258  0.00  0.00    +0.000 A 
ATOM     11  C   UNL     1       0.902   9.342  19.868  0.00  0.00    +0.000 A 
ATOM     12  H   UNL     1       1.762  10.916  17.222  0.00  0.00    +0.000 HD
ATOM     13  H   UNL     1       1.391   6.850  21.316  0.00  0.00    +0.000 HD
ENDROOT
BRANCH   9  14
ATOM     14  C   UNL     1       1.833   4.989  20.684  0.00  0.00    +0.000 A 
ATOM     15  C   UNL     1       0.998   4.347  19.762  0.00  0.00    +0.000 A 
ATOM     16  C   UNL     1       0.832   2.959  19.796  0.00  0.00    +0.000 A 
ATOM     17  C   UNL     1       1.511   2.199  20.747  0.00  0.00    +0.000 A 
ATOM     18  C   UNL     1       2.352   2.823  21.662  0.00  0.00    +0.000 A 
ATOM     19  C   UNL     1       2.508   4.210  21.632  0.00  0.00    +0.000 A 
ENDBRANCH   9  14
BRANCH  11  20
ATOM     20  C   UNL     1       0.149   9.088  21.049  0.00  0.00    +0.000 C 
ATOM     21  N   UNL     1      -0.415   8.911  22.048  0.00  0.00    +0.000 NA
ENDBRANCH  11  20
BRANCH   1  22
ATOM     22  S   UNL     1      -0.199  11.865  19.069  0.00  0.00    +0.000 S 
BRANCH  22  23
ATOM     23  C   UNL     1      -1.888  11.201  18.886  0.00  0.00    +0.000 C 
BRANCH  23  24
ATOM     24  C   UNL     1      -2.087  10.636  17.486  0.00  0.00    +0.000 C 
ATOM     25  O   UNL     1      -1.486   9.689  16.991  0.00  0.00    +0.000 OA
BRANCH  24  27
ATOM     26  C   UNL     1      -4.245  11.533  17.587  0.00  0.00    +0.000 C 
ATOM     27  O   UNL     1      -3.046  11.353  16.826  0.00  0.00    +0.000 OA
ENDBRANCH  24  27
ENDBRANCH  23  24
ENDBRANCH  22  23
ENDBRANCH   1  22
TORSDOF 6
ENDMDL
MODEL 2
REMARK VINA RESULT:      -7.1      4.768      7.814
REMARK  Name = 
REMARK  8 active torsions:
REMARK  status: ('A' for Active; 'I' for Inactive)
REMARK    1  A    between atoms: C_1  and  O_2
REMARK    2  A    between atoms: O_2  and  C_3
REMARK    3  A    between atoms: C_3  and  C_5
REMARK    4  A    between atoms: C_5  and  S_6
REMARK    5  A    between atoms: S_6  and  C_7
REMARK    6  A    between atoms: C_11  and  C_12
REMARK    7  A    between atoms: N_15  and  C_16
REMARK    8  A    between atoms: C_23  and  C_24
REMARK                            x       y       z     vdW  Elec       q    Type
REMARK                         _______ _______ _______ _____ _____    ______ ____
ROOT
ATOM      1  C   UNL     1       5.218   4.246  16.155  0.00  0.00    +0.000 A 
ATOM      2  N   UNL     1       4.316   3.246  16.401  0.00  0.00    +0.000 N 
ATOM      3  C   UNL     1       3.429   3.652  17.364  0.00  0.00    +0.000 A 
ATOM      4  N   UNL     1       2.409   2.910  17.812  0.00  0.00    +0.000 NA
ATOM      5  C   UNL     1       1.672   3.561  18.730  0.00  0.00    +0.000 A 
ATOM      6  C   UNL     1       0.500   2.842  19.328  0.00  0.00    +0.000 C 
ATOM      7  N   UNL     1       1.885   4.815  19.170  0.00  0.00    +0.000 NA
ATOM      8  C   UNL     1       2.928   5.550  18.700  0.00  0.00    +0.000 A 
ATOM      9  N   UNL     1       3.128   6.849  19.187  0.00  0.00    +0.000 N 
ATOM     10  C   UNL     1       3.765   4.942  17.749  0.00  0.00    +0.000 A 
ATOM     11  C   UNL     1       4.906   5.310  16.974  0.00  0.00    +0.000 A 
ATOM     12  H   UNL     1       4.265   2.361  15.919  0.00  0.00    +0.000 HD
ATOM     13  H   UNL     1       3.970   7.319  18.881  0.00  0.00    +0.000 HD
ENDROOT
BRANCH   9  14
ATOM     14  C   UNL     1       2.131   7.769  19.569  0.00  0.00    +0.000 A 
ATOM     15  C   UNL     1       1.714   8.743  18.654  0.00  0.00    +0.000 A 
ATOM     16  C   UNL     1       0.734   9.677  19.002  0.00  0.00    +0.000 A 
ATOM     17  C   UNL     1       0.152   9.637  20.268  0.00  0.00    +0.000 A 
ATOM     18  C   UNL     1       0.548   8.667  21.183  0.00  0.00    +0.000 A 
ATOM     19  C   UNL     1       1.535   7.743  20.836  0.00  0.00    +0.000 A 
ENDBRANCH   9  14
BRANCH  11  20
ATOM     20  C   UNL     1       5.553   6.578  16.992  0.00  0.00    +0.000 C 
ATOM     21  N   UNL     1       6.100   7.601  16.942  0.00  0.00    +0.000 NA
ENDBRANCH  11  20
BRANCH   1  22
ATOM     22  S   UNL     1       6.339   4.014  14.857  0.00  0.00    +0.000 S 
BRANCH  22  23
ATOM     23  C   UNL     1       5.294   3.962  13.363  0.00  0.00    +0.000 C 
BRANCH  23  24
ATOM     24  C   UNL     1       6.047   3.310  12.211  0.00  0.00    +0.000 C 
ATOM     25  O   UNL     1       7.223   3.491  11.916  0.00  0.00    +0.000 OA
BRANCH  24  27
ATOM     26  C   UNL     1       3.968   3.092  11.160  0.00  0.00    +0.000 C 
ATOM     27  O   UNL     1       5.211   2.479  11.519  0.00  0.00    +0.000 OA
ENDBRANCH  24  27
ENDBRANCH  23  24
ENDBRANCH  22  23
ENDBRANCH   1  22
TORSDOF 6
ENDMDL
MODEL 3
REMARK VINA RESULT:      -7.1      4.585      7.865
REMARK  Name = 
REMARK  8 active torsions:
REMARK  status: ('A' for Active; 'I' for Inactive)
REMARK    1  A    between atoms: C_1  and  O_2
REMARK    2  A    between atoms: O_2  and  C_3
REMARK    3  A    between atoms: C_3  and  C_5
REMARK    4  A    between atoms: C_5  and  S_6
REMARK    5  A    between atoms: S_6  and  C_7
REMARK    6  A    between atoms: C_11  and  C_12
REMARK    7  A    between atoms: N_15  and  C_16
REMARK    8  A    between atoms: C_23  and  C_24
REMARK                            x       y       z     vdW  Elec       q    Type
REMARK                         _______ _______ _______ _____ _____    ______ ____
ROOT
ATOM      1  C   UNL     1       5.429   4.176  16.874  0.00  0.00    +0.000 A 
ATOM      2  N   UNL     1       4.560   3.201  17.284  0.00  0.00    +0.000 N 
ATOM      3  C   UNL     1       3.606   3.748  18.102  0.00  0.00    +0.000 A 
ATOM      4  N   UNL     1       2.597   3.060  18.651  0.00  0.00    +0.000 NA
ATOM      5  C   UNL     1       1.786   3.845  19.382  0.00  0.00    +0.000 A 
ATOM      6  C   UNL     1       0.616   3.203  20.065  0.00  0.00    +0.000 C 
ATOM      7  N   UNL     1       1.920   5.173  19.561  0.00  0.00    +0.000 NA
ATOM      8  C   UNL     1       2.954   5.850  18.993  0.00  0.00    +0.000 A 
ATOM      9  N   UNL     1       3.071   7.230  19.209  0.00  0.00    +0.000 N 
ATOM     10  C   UNL     1       3.865   5.105  18.226  0.00  0.00    +0.000 A 
ATOM     11  C   UNL     1       5.028   5.367  17.440  0.00  0.00    +0.000 A 
ATOM     12  H   UNL     1       4.573   2.235  16.994  0.00  0.00    +0.000 HD
ATOM     13  H   UNL     1       3.907   7.671  18.848  0.00  0.00    +0.000 HD
ENDROOT
BRANCH   9  14
ATOM     14  C   UNL     1       2.016   8.155  19.349  0.00  0.00    +0.000 A 
ATOM     15  C   UNL     1       1.591   8.879  18.229  0.00  0.00    +0.000 A 
ATOM     16  C   UNL     1       0.554   9.810  18.334  0.00  0.00    +0.000 A 
ATOM     17  C   UNL     1      -0.077  10.017  19.559  0.00  0.00    +0.000 A 
ATOM     18  C   UNL     1       0.328   9.295  20.678  0.00  0.00    +0.000 A 
ATOM     19  C   UNL     1       1.372   8.374  20.572  0.00  0.00    +0.000 A 
ENDBRANCH   9  14
BRANCH  11  20
ATOM     20  C   UNL     1       5.618   6.644  17.223  0.00  0.00    +0.000 C 
ATOM     21  N   UNL     1       6.143   7.657  17.002  0.00  0.00    +0.000 NA
ENDBRANCH  11  20
BRANCH   1  22
ATOM     22  S   UNL     1       6.626   3.743  15.701  0.00  0.00    +0.000 S 
BRANCH  22  23
ATOM     23  C   UNL     1       6.043   4.516  14.156  0.00  0.00    +0.000 C 
BRANCH  23  24
ATOM     24  C   UNL     1       7.217   4.803  13.230  0.00  0.00    +0.000 C 
ATOM     25  O   UNL     1       8.129   5.596  13.436  0.00  0.00    +0.000 OA
BRANCH  24  27
ATOM     26  C   UNL     1       5.965   3.190  12.088  0.00  0.00    +0.000 C 
ATOM     27  O   UNL     1       7.114   4.045  12.097  0.00  0.00    +0.000 OA
ENDBRANCH  24  27
ENDBRANCH  23  24
ENDBRANCH  22  23
ENDBRANCH   1  22
TORSDOF 6
ENDMDL
MODEL 4
REMARK VINA RESULT:      -7.1      4.656      7.966
REMARK  Name = 
REMARK  8 active torsions:
REMARK  status: ('A' for Active; 'I' for Inactive)
REMARK    1  A    between atoms: C_1  and  O_2
REMARK    2  A    between atoms: O_2  and  C_3
REMARK    3  A    between atoms: C_3  and  C_5
REMARK    4  A    between atoms: C_5  and  S_6
REMARK    5  A    between atoms: S_6  and  C_7
REMARK    6  A    between atoms: C_11  and  C_12
REMARK    7  A    between atoms: N_15  and  C_16
REMARK    8  A    between atoms: C_23  and  C_24
REMARK                            x       y       z     vdW  Elec       q    Type
REMARK                         _______ _______ _______ _____ _____    ______ ____
ROOT
ATOM      1  C   UNL     1       5.683   4.340  16.772  0.00  0.00    +0.000 A 
ATOM      2  N   UNL     1       4.789   3.341  17.046  0.00  0.00    +0.000 N 
ATOM      3  C   UNL     1       3.773   3.831  17.824  0.00  0.00    +0.000 A 
ATOM      4  N   UNL     1       2.727   3.108  18.244  0.00  0.00    +0.000 NA
ATOM      5  C   UNL     1       1.858   3.843  18.961  0.00  0.00    +0.000 A 
ATOM      6  C   UNL     1       0.641   3.156  19.506  0.00  0.00    +0.000 C 
ATOM      7  N   UNL     1       1.972   5.155  19.240  0.00  0.00    +0.000 NA
ATOM      8  C   UNL     1       3.043   5.868  18.802  0.00  0.00    +0.000 A 
ATOM      9  N   UNL     1       3.138   7.230  19.119  0.00  0.00    +0.000 N 
ATOM     10  C   UNL     1       4.015   5.177  18.059  0.00  0.00    +0.000 A 
ATOM     11  C   UNL     1       5.235   5.490  17.386  0.00  0.00    +0.000 A 
ATOM     12  H   UNL     1       4.829   2.396  16.693  0.00  0.00    +0.000 HD
ATOM     13  H   UNL     1       3.997   7.694  18.855  0.00  0.00    +0.000 HD
ENDROOT
BRANCH   9  14
ATOM     14  C   UNL     1       2.072   8.144  19.239  0.00  0.00    +0.000 A 
ATOM     15  C   UNL     1       1.470   8.331  20.489  0.00  0.00    +0.000 A 
ATOM     16  C   UNL     1       0.405   9.223  20.642  0.00  0.00    +0.000 A 
ATOM     17  C   UNL     1      -0.061   9.948  19.547  0.00  0.00    +0.000 A 
ATOM     18  C   UNL     1       0.535   9.780  18.301  0.00  0.00    +0.000 A 
ATOM     19  C   UNL     1       1.591   8.880  18.149  0.00  0.00    +0.000 A 
ENDBRANCH   9  14
BRANCH  11  20
ATOM     20  C   UNL     1       5.834   6.779  17.302  0.00  0.00    +0.000 C 
ATOM     21  N   UNL     1       6.321   7.824  17.166  0.00  0.00    +0.000 NA
ENDBRANCH  11  20
BRANCH   1  22
ATOM     22  S   UNL     1       6.970   3.986  15.670  0.00  0.00    +0.000 S 
BRANCH  22  23
ATOM     23  C   UNL     1       6.318   4.486  14.043  0.00  0.00    +0.000 C 
BRANCH  23  24
ATOM     24  C   UNL     1       7.451   4.941  13.133  0.00  0.00    +0.000 C 
ATOM     25  O   UNL     1       8.345   5.727  13.423  0.00  0.00    +0.000 OA
BRANCH  24  27
ATOM     26  C   UNL     1       6.475   3.201  11.911  0.00  0.00    +0.000 C 
ATOM     27  O   UNL     1       7.333   4.347  11.907  0.00  0.00    +0.000 OA
ENDBRANCH  24  27
ENDBRANCH  23  24
ENDBRANCH  22  23
ENDBRANCH   1  22
TORSDOF 6
ENDMDL
MODEL 5
REMARK VINA RESULT:      -6.9      2.206      2.881
REMARK  Name = 
REMARK  8 active torsions:
REMARK  status: ('A' for Active; 'I' for Inactive)
REMARK    1  A    between atoms: C_1  and  O_2
REMARK    2  A    between atoms: O_2  and  C_3
REMARK    3  A    between atoms: C_3  and  C_5
REMARK    4  A    between atoms: C_5  and  S_6
REMARK    5  A    between atoms: S_6  and  C_7
REMARK    6  A    between atoms: C_11  and  C_12
REMARK    7  A    between atoms: N_15  and  C_16
REMARK    8  A    between atoms: C_23  and  C_24
REMARK                            x       y       z     vdW  Elec       q    Type
REMARK                         _______ _______ _______ _____ _____    ______ ____
ROOT
ATOM      1  C   UNL     1       0.809  10.398  18.961  0.00  0.00    +0.000 A 
ATOM      2  N   UNL     1       1.662  10.208  17.908  0.00  0.00    +0.000 N 
ATOM      3  C   UNL     1       2.293   8.999  18.037  0.00  0.00    +0.000 A 
ATOM      4  N   UNL     1       3.174   8.508  17.157  0.00  0.00    +0.000 NA
ATOM      5  C   UNL     1       3.615   7.287  17.507  0.00  0.00    +0.000 A 
ATOM      6  C   UNL     1       4.618   6.620  16.614  0.00  0.00    +0.000 C 
ATOM      7  N   UNL     1       3.238   6.591  18.596  0.00  0.00    +0.000 NA
ATOM      8  C   UNL     1       2.341   7.110  19.477  0.00  0.00    +0.000 A 
ATOM      9  N   UNL     1       1.977   6.365  20.606  0.00  0.00    +0.000 N 
ATOM     10  C   UNL     1       1.839   8.394  19.201  0.00  0.00    +0.000 A 
ATOM     11  C   UNL     1       0.895   9.293  19.781  0.00  0.00    +0.000 A 
ATOM     12  H   UNL     1       1.780  10.828  17.121  0.00  0.00    +0.000 HD
ATOM     13  H   UNL     1       1.384   6.831  21.280  0.00  0.00    +0.000 HD
ENDROOT
BRANCH   9  14
ATOM     14  C   UNL     1       1.851   4.963  20.687  0.00  0.00    +0.000 A 
ATOM     15  C   UNL     1       0.951   4.310  19.837  0.00  0.00    +0.000 A 
ATOM     16  C   UNL     1       0.794   2.922  19.897  0.00  0.00    +0.000 A 
ATOM     17  C   UNL     1       1.546   2.173  20.800  0.00  0.00    +0.000 A 
ATOM     18  C   UNL     1       2.452   2.808  21.642  0.00  0.00    +0.000 A 
ATOM     19  C   UNL     1       2.599   4.196  21.588  0.00  0.00    +0.000 A 
ENDBRANCH   9  14
BRANCH  11  20
ATOM     20  C   UNL     1       0.128   9.053  20.956  0.00  0.00    +0.000 C 
ATOM     21  N   UNL     1      -0.460   8.904  21.947  0.00  0.00    +0.000 NA
ENDBRANCH  11  20
BRANCH   1  22
ATOM     22  S   UNL     1      -0.216  11.792  18.923  0.00  0.00    +0.000 S 
BRANCH  22  23
ATOM     23  C   UNL     1       0.452  12.877  20.228  0.00  0.00    +0.000 C 
BRANCH  23  24
ATOM     24  C   UNL     1       1.953  13.062  20.048  0.00  0.00    +0.000 C 
ATOM     25  O   UNL     1       2.557  13.108  18.983  0.00  0.00    +0.000 OA
BRANCH  24  27
ATOM     26  C   UNL     1       3.576  14.169  21.318  0.00  0.00    +0.000 C 
ATOM     27  O   UNL     1       2.560  13.162  21.268  0.00  0.00    +0.000 OA
ENDBRANCH  24  27
ENDBRANCH  23  24
ENDBRANCH  22  23
ENDBRANCH   1  22
TORSDOF 6
ENDMDL
MODEL 6
REMARK VINA RESULT:      -6.9      2.976      5.165
REMARK  Name = 
REMARK  8 active torsions:
REMARK  status: ('A' for Active; 'I' for Inactive)
REMARK    1  A    between atoms: C_1  and  O_2
REMARK    2  A    between atoms: O_2  and  C_3
REMARK    3  A    between atoms: C_3  and  C_5
REMARK    4  A    between atoms: C_5  and  S_6
REMARK    5  A    between atoms: S_6  and  C_7
REMARK    6  A    between atoms: C_11  and  C_12
REMARK    7  A    between atoms: N_15  and  C_16
REMARK    8  A    between atoms: C_23  and  C_24
REMARK                            x       y       z     vdW  Elec       q    Type
REMARK                         _______ _______ _______ _____ _____    ______ ____
ROOT
ATOM      1  C   UNL     1       1.435   8.142  20.340  0.00  0.00    +0.000 A 
ATOM      2  N   UNL     1       1.388   7.059  21.176  0.00  0.00    +0.000 N 
ATOM      3  C   UNL     1       2.010   5.991  20.585  0.00  0.00    +0.000 A 
ATOM      4  N   UNL     1       2.153   4.789  21.155  0.00  0.00    +0.000 NA
ATOM      5  C   UNL     1       2.833   3.933  20.372  0.00  0.00    +0.000 A 
ATOM      6  C   UNL     1       3.058   2.541  20.883  0.00  0.00    +0.000 C 
ATOM      7  N   UNL     1       3.343   4.207  19.156  0.00  0.00    +0.000 NA
ATOM      8  C   UNL     1       3.185   5.436  18.597  0.00  0.00    +0.000 A 
ATOM      9  N   UNL     1       3.719   5.685  17.325  0.00  0.00    +0.000 N 
ATOM     10  C   UNL     1       2.469   6.392  19.337  0.00  0.00    +0.000 A 
ATOM     11  C   UNL     1       2.097   7.762  19.192  0.00  0.00    +0.000 A 
ATOM     12  H   UNL     1       1.006   7.048  22.110  0.00  0.00    +0.000 HD
ATOM     13  H   UNL     1       3.493   6.580  16.911  0.00  0.00    +0.000 HD
ENDROOT
BRANCH   9  14
ATOM     14  C   UNL     1       4.909   5.153  16.791  0.00  0.00    +0.000 A 
ATOM     15  C   UNL     1       4.867   4.484  15.561  0.00  0.00    +0.000 A 
ATOM     16  C   UNL     1       6.027   3.937  15.007  0.00  0.00    +0.000 A 
ATOM     17  C   UNL     1       7.245   4.065  15.671  0.00  0.00    +0.000 A 
ATOM     18  C   UNL     1       7.304   4.736  16.888  0.00  0.00    +0.000 A 
ATOM     19  C   UNL     1       6.142   5.272  17.445  0.00  0.00    +0.000 A 
ENDBRANCH   9  14
BRANCH  11  20
ATOM     20  C   UNL     1       2.421   8.601  18.089  0.00  0.00    +0.000 C 
ATOM     21  N   UNL     1       2.640   9.251  17.151  0.00  0.00    +0.000 NA
ENDBRANCH  11  20
BRANCH   1  22
ATOM     22  S   UNL     1       0.848   9.652  20.948  0.00  0.00    +0.000 S 
BRANCH  22  23
ATOM     23  C   UNL     1      -0.615   9.201  21.938  0.00  0.00    +0.000 C 
BRANCH  23  24
ATOM     24  C   UNL     1      -0.574   9.895  23.293  0.00  0.00    +0.000 C 
ATOM     25  O   UNL     1       0.232   9.687  24.192  0.00  0.00    +0.000 OA
BRANCH  24  27
ATOM     26  C   UNL     1      -1.231  12.111  22.930  0.00  0.00    +0.000 C 
ATOM     27  O   UNL     1      -1.593  10.802  23.383  0.00  0.00    +0.000 OA
ENDBRANCH  24  27
ENDBRANCH  23  24
ENDBRANCH  22  23
ENDBRANCH   1  22
TORSDOF 6
ENDMDL
MODEL 7
REMARK VINA RESULT:      -6.8      4.445      7.770
REMARK  Name = 
REMARK  8 active torsions:
REMARK  status: ('A' for Active; 'I' for Inactive)
REMARK    1  A    between atoms: C_1  and  O_2
REMARK    2  A    between atoms: O_2  and  C_3
REMARK    3  A    between atoms: C_3  and  C_5
REMARK    4  A    between atoms: C_5  and  S_6
REMARK    5  A    between atoms: S_6  and  C_7
REMARK    6  A    between atoms: C_11  and  C_12
REMARK    7  A    between atoms: N_15  and  C_16
REMARK    8  A    between atoms: C_23  and  C_24
REMARK                            x       y       z     vdW  Elec       q    Type
REMARK                         _______ _______ _______ _____ _____    ______ ____
ROOT
ATOM      1  C   UNL     1       4.789   3.903  17.068  0.00  0.00    +0.000 A 
ATOM      2  N   UNL     1       4.208   2.923  17.827  0.00  0.00    +0.000 N 
ATOM      3  C   UNL     1       3.488   3.493  18.843  0.00  0.00    +0.000 A 
ATOM      4  N   UNL     1       2.783   2.803  19.748  0.00  0.00    +0.000 NA
ATOM      5  C   UNL     1       2.141   3.608  20.613  0.00  0.00    +0.000 A 
ATOM      6  C   UNL     1       1.319   2.967  21.691  0.00  0.00    +0.000 C 
ATOM      7  N   UNL     1       2.161   4.954  20.606  0.00  0.00    +0.000 NA
ATOM      8  C   UNL     1       2.885   5.634  19.677  0.00  0.00    +0.000 A 
ATOM      9  N   UNL     1       2.894   7.035  19.704  0.00  0.00    +0.000 N 
ATOM     10  C   UNL     1       3.606   4.872  18.741  0.00  0.00    +0.000 A 
ATOM     11  C   UNL     1       4.437   5.122  17.608  0.00  0.00    +0.000 A 
ATOM     12  H   UNL     1       4.250   1.932  17.647  0.00  0.00    +0.000 HD
ATOM     13  H   UNL     1       3.523   7.492  19.055  0.00  0.00    +0.000 HD
ENDROOT
BRANCH   9  14
ATOM     14  C   UNL     1       1.828   7.878  20.074  0.00  0.00    +0.000 A 
ATOM     15  C   UNL     1       1.429   8.897  19.200  0.00  0.00    +0.000 A 
ATOM     16  C   UNL     1       0.380   9.757  19.539  0.00  0.00    +0.000 A 
ATOM     17  C   UNL     1      -0.288   9.598  20.751  0.00  0.00    +0.000 A 
ATOM     18  C   UNL     1       0.090   8.583  21.624  0.00  0.00    +0.000 A 
ATOM     19  C   UNL     1       1.145   7.732  21.287  0.00  0.00    +0.000 A 
ENDBRANCH   9  14
BRANCH  11  20
ATOM     20  C   UNL     1       4.774   6.404  17.088  0.00  0.00    +0.000 C 
ATOM     21  N   UNL     1       5.025   7.429  16.603  0.00  0.00    +0.000 NA
ENDBRANCH  11  20
BRANCH   1  22
ATOM     22  S   UNL     1       5.620   3.419  15.629  0.00  0.00    +0.000 S 
BRANCH  22  23
ATOM     23  C   UNL     1       6.994   4.609  15.481  0.00  0.00    +0.000 C 
BRANCH  23  24
ATOM     24  C   UNL     1       7.302   4.885  14.015  0.00  0.00    +0.000 C 
ATOM     25  O   UNL     1       8.121   5.687  13.583  0.00  0.00    +0.000 OA
BRANCH  24  27
ATOM     26  C   UNL     1       7.061   3.885  11.914  0.00  0.00    +0.000 C 
ATOM     27  O   UNL     1       6.512   4.105  13.218  0.00  0.00    +0.000 OA
ENDBRANCH  24  27
ENDBRANCH  23  24
ENDBRANCH  22  23
ENDBRANCH   1  22
TORSDOF 6
ENDMDL
MODEL 8
REMARK VINA RESULT:      -6.8      1.015      1.248
REMARK  Name = 
REMARK  8 active torsions:
REMARK  status: ('A' for Active; 'I' for Inactive)
REMARK    1  A    between atoms: C_1  and  O_2
REMARK    2  A    between atoms: O_2  and  C_3
REMARK    3  A    between atoms: C_3  and  C_5
REMARK    4  A    between atoms: C_5  and  S_6
REMARK    5  A    between atoms: S_6  and  C_7
REMARK    6  A    between atoms: C_11  and  C_12
REMARK    7  A    between atoms: N_15  and  C_16
REMARK    8  A    between atoms: C_23  and  C_24
REMARK                            x       y       z     vdW  Elec       q    Type
REMARK                         _______ _______ _______ _____ _____    ______ ____
ROOT
ATOM      1  C   UNL     1       0.799  10.421  19.019  0.00  0.00    +0.000 A 
ATOM      2  N   UNL     1       1.643  10.238  17.957  0.00  0.00    +0.000 N 
ATOM      3  C   UNL     1       2.274   9.027  18.073  0.00  0.00    +0.000 A 
ATOM      4  N   UNL     1       3.147   8.542  17.181  0.00  0.00    +0.000 NA
ATOM      5  C   UNL     1       3.590   7.318  17.518  0.00  0.00    +0.000 A 
ATOM      6  C   UNL     1       4.585   6.657  16.612  0.00  0.00    +0.000 C 
ATOM      7  N   UNL     1       3.220   6.614  18.606  0.00  0.00    +0.000 NA
ATOM      8  C   UNL     1       2.332   7.128  19.497  0.00  0.00    +0.000 A 
ATOM      9  N   UNL     1       1.977   6.374  20.625  0.00  0.00    +0.000 N 
ATOM     10  C   UNL     1       1.829   8.414  19.236  0.00  0.00    +0.000 A 
ATOM     11  C   UNL     1       0.891   9.310  19.831  0.00  0.00    +0.000 A 
ATOM     12  H   UNL     1       1.755  10.864  17.174  0.00  0.00    +0.000 HD
ATOM     13  H   UNL     1       1.389   6.836  21.307  0.00  0.00    +0.000 HD
ENDROOT
BRANCH   9  14
ATOM     14  C   UNL     1       1.849   4.973  20.696  0.00  0.00    +0.000 A 
ATOM     15  C   UNL     1       0.970   4.322  19.822  0.00  0.00    +0.000 A 
ATOM     16  C   UNL     1       0.812   2.934  19.871  0.00  0.00    +0.000 A 
ATOM     17  C   UNL     1       1.543   2.181  20.788  0.00  0.00    +0.000 A 
ATOM     18  C   UNL     1       2.429   2.814  21.655  0.00  0.00    +0.000 A 
ATOM     19  C   UNL     1       2.576   4.201  21.611  0.00  0.00    +0.000 A 
ENDBRANCH   9  14
BRANCH  11  20
ATOM     20  C   UNL     1       0.133   9.062  21.010  0.00  0.00    +0.000 C 
ATOM     21  N   UNL     1      -0.521   8.812  21.937  0.00  0.00    +0.000 NA
ENDBRANCH  11  20
BRANCH   1  22
ATOM     22  S   UNL     1      -0.224  11.817  19.000  0.00  0.00    +0.000 S 
BRANCH  22  23
ATOM     23  C   UNL     1      -1.682  11.293  18.038  0.00  0.00    +0.000 C 
BRANCH  23  24
ATOM     24  C   UNL     1      -2.962  11.769  18.711  0.00  0.00    +0.000 C 
ATOM     25  O   UNL     1      -4.085  11.768  18.220  0.00  0.00    +0.000 OA
BRANCH  24  27
ATOM     26  C   UNL     1      -3.696  13.090  20.497  0.00  0.00    +0.000 C 
ATOM     27  O   UNL     1      -2.686  12.223  19.970  0.00  0.00    +0.000 OA
ENDBRANCH  24  27
ENDBRANCH  23  24
ENDBRANCH  22  23
ENDBRANCH   1  22
TORSDOF 6
ENDMDL
MODEL 9
REMARK VINA RESULT:      -6.8      2.090      4.563
REMARK  Name = 
REMARK  8 active torsions:
REMARK  status: ('A' for Active; 'I' for Inactive)
REMARK    1  A    between atoms: C_1  and  O_2
REMARK    2  A    between atoms: O_2  and  C_3
REMARK    3  A    between atoms: C_3  and  C_5
REMARK    4  A    between atoms: C_5  and  S_6
REMARK    5  A    between atoms: S_6  and  C_7
REMARK    6  A    between atoms: C_11  and  C_12
REMARK    7  A    between atoms: N_15  and  C_16
REMARK    8  A    between atoms: C_23  and  C_24
REMARK                            x       y       z     vdW  Elec       q    Type
REMARK                         _______ _______ _______ _____ _____    ______ ____
ROOT
ATOM      1  C   UNL     1       1.321   8.203  20.511  0.00  0.00    +0.000 A 
ATOM      2  N   UNL     1       1.332   7.081  21.295  0.00  0.00    +0.000 N 
ATOM      3  C   UNL     1       1.979   6.066  20.640  0.00  0.00    +0.000 A 
ATOM      4  N   UNL     1       2.179   4.845  21.149  0.00  0.00    +0.000 NA
ATOM      5  C   UNL     1       2.872   4.052  20.312  0.00  0.00    +0.000 A 
ATOM      6  C   UNL     1       3.159   2.648  20.750  0.00  0.00    +0.000 C 
ATOM      7  N   UNL     1       3.343   4.402  19.100  0.00  0.00    +0.000 NA
ATOM      8  C   UNL     1       3.128   5.649  18.603  0.00  0.00    +0.000 A 
ATOM      9  N   UNL     1       3.623   5.978  17.334  0.00  0.00    +0.000 N 
ATOM     10  C   UNL     1       2.394   6.542  19.403  0.00  0.00    +0.000 A 
ATOM     11  C   UNL     1       1.969   7.903  19.331  0.00  0.00    +0.000 A 
ATOM     12  H   UNL     1       0.972   7.011  22.235  0.00  0.00    +0.000 HD
ATOM     13  H   UNL     1       3.355   6.882  16.967  0.00  0.00    +0.000 HD
ENDROOT
BRANCH   9  14
ATOM     14  C   UNL     1       4.819   5.516  16.749  0.00  0.00    +0.000 A 
ATOM     15  C   UNL     1       4.772   4.440  15.856  0.00  0.00    +0.000 A 
ATOM     16  C   UNL     1       5.940   3.951  15.265  0.00  0.00    +0.000 A 
ATOM     17  C   UNL     1       7.168   4.545  15.552  0.00  0.00    +0.000 A 
ATOM     18  C   UNL     1       7.228   5.623  16.430  0.00  0.00    +0.000 A 
ATOM     19  C   UNL     1       6.061   6.101  17.027  0.00  0.00    +0.000 A 
ENDBRANCH   9  14
BRANCH  11  20
ATOM     20  C   UNL     1       2.237   8.804  18.263  0.00  0.00    +0.000 C 
ATOM     21  N   UNL     1       2.390   9.560  17.394  0.00  0.00    +0.000 NA
ENDBRANCH  11  20
BRANCH   1  22
ATOM     22  S   UNL     1       0.693   9.660  21.202  0.00  0.00    +0.000 S 
BRANCH  22  23
ATOM     23  C   UNL     1      -0.498  10.269  19.963  0.00  0.00    +0.000 C 
BRANCH  23  24
ATOM     24  C   UNL     1      -0.046  11.614  19.409  0.00  0.00    +0.000 C 
ATOM     25  O   UNL     1       1.100  12.049  19.399  0.00  0.00    +0.000 OA
BRANCH  24  27
ATOM     26  C   UNL     1      -1.812  11.606  17.874  0.00  0.00    +0.000 C 
ATOM     27  O   UNL     1      -1.121  12.301  18.918  0.00  0.00    +0.000 OA
ENDBRANCH  24  27
ENDBRANCH  23  24
ENDBRANCH  22  23
ENDBRANCH   1  22
TORSDOF 6
ENDMDL
