MODEL 1
REMARK VINA RESULT:      -7.8      0.000      0.000
REMARK  Name = 
REMARK  10 active torsions:
REMARK  status: ('A' for Active; 'I' for Inactive)
REMARK    1  A    between atoms: C_1  and  C_2
REMARK    2  A    between atoms: C_2  and  O_3
REMARK    3  A    between atoms: C_2  and  C_4
REMARK    4  A    between atoms: C_2  and  C_17
REMARK    5  A    between atoms: C_4  and  S_5
REMARK    6  A    between atoms: S_5  and  C_6
REMARK    7  A    between atoms: C_9  and  O_10
REMARK    8  A    between atoms: O_10  and  C_11
REMARK    9  A    between atoms: N_19  and  C_20
REMARK   10  A    between atoms: C_24  and  S_25
REMARK                            x       y       z     vdW  Elec       q    Type
REMARK                         _______ _______ _______ _____ _____    ______ ____
ROOT
ATOM      1  C   UNL     1       0.979   2.555  21.158  0.00  0.00    +0.000 C 
ATOM      2  C   UNL     1       2.235   3.445  21.067  0.00  0.00    +0.000 C 
ENDROOT
BRANCH   2   3
ATOM      3  C   UNL     1       1.907   4.675  20.248  0.00  0.00    +0.000 C 
ATOM      4  O   UNL     1       0.979   4.575  19.462  0.00  0.00    +0.000 OA
ATOM      5  N   UNL     1       2.577   5.864  20.399  0.00  0.00    +0.000 N 
ATOM      6  H   UNL     1       3.305   5.927  21.128  0.00  0.00    +0.000 HD
BRANCH   5   7
ATOM      7  C   UNL     1       2.326   7.048  19.626  0.00  0.00    +0.000 A 
ATOM      8  C   UNL     1       2.982   7.320  18.407  0.00  0.00    +0.000 A 
ATOM      9  C   UNL     1       2.710   8.471  17.687  0.00  0.00    +0.000 A 
ATOM     10  C   UNL     1       1.817   9.418  18.182  0.00  0.00    +0.000 A 
ATOM     11  C   UNL     1       1.179   9.213  19.422  0.00  0.00    +0.000 A 
ATOM     12  C   UNL     1       1.424   8.007  20.114  0.00  0.00    +0.000 A 
BRANCH  11  13
ATOM     13  S   UNL     1       0.117  10.480  20.205  0.00  0.00    +0.000 S 
ATOM     14  F   UNL     1      -0.537   9.288  21.254  0.00  0.00    +0.000 F 
ATOM     15  F   UNL     1       0.761  11.670  19.164  0.00  0.00    +0.000 F 
ATOM     16  F   UNL     1      -0.864  11.676  20.932  0.00  0.00    +0.000 F 
ATOM     17  F   UNL     1       1.341  10.833  21.345  0.00  0.00    +0.000 F 
ATOM     18  F   UNL     1      -1.165  10.166  19.109  0.00  0.00    +0.000 F 
ENDBRANCH  11  13
ENDBRANCH   5   7
ENDBRANCH   2   3
BRANCH   2  19
ATOM     19  O   UNL     1       2.592   3.890  22.361  0.00  0.00    +0.000 OA
ATOM     20  H   UNL     1       3.519   4.233  22.345  0.00  0.00    +0.000 HD
ENDBRANCH   2  19
BRANCH   2  21
ATOM     21  C   UNL     1       3.431   2.686  20.436  0.00  0.00    +0.000 C 
BRANCH  21  22
ATOM     22  S   UNL     1       3.246   2.660  18.605  0.00  0.00    +0.000 S 
BRANCH  22  23
ATOM     23  C   UNL     1       4.509   3.858  18.139  0.00  0.00    +0.000 A 
ATOM     24  C   UNL     1       5.406   4.299  19.119  0.00  0.00    +0.000 A 
ATOM     25  C   UNL     1       6.434   5.188  18.794  0.00  0.00    +0.000 A 
ATOM     26  C   UNL     1       6.591   5.638  17.478  0.00  0.00    +0.000 A 
ATOM     27  C   UNL     1       5.673   5.205  16.496  0.00  0.00    +0.000 A 
ATOM     28  C   UNL     1       4.650   4.314  16.821  0.00  0.00    +0.000 A 
BRANCH  26  29
ATOM     29  O   UNL     1       7.635   6.463  17.204  0.00  0.00    +0.000 OA
BRANCH  29  30
ATOM     30  C   UNL     1       7.814   7.775  17.622  0.00  0.00    +0.000 C 
ATOM     31  F   UNL     1       8.635   8.504  16.787  0.00  0.00    +0.000 F 
ATOM     32  F   UNL     1       6.590   8.407  17.724  0.00  0.00    +0.000 F 
ATOM     33  F   UNL     1       8.421   7.756  18.860  0.00  0.00    +0.000 F 
ENDBRANCH  29  30
ENDBRANCH  26  29
ENDBRANCH  22  23
ENDBRANCH  21  22
ENDBRANCH   2  21
TORSDOF 9
ENDMDL
MODEL 2
REMARK VINA RESULT:      -7.5      4.876      9.486
REMARK  Name = 
REMARK  10 active torsions:
REMARK  status: ('A' for Active; 'I' for Inactive)
REMARK    1  A    between atoms: C_1  and  C_2
REMARK    2  A    between atoms: C_2  and  O_3
REMARK    3  A    between atoms: C_2  and  C_4
REMARK    4  A    between atoms: C_2  and  C_17
REMARK    5  A    between atoms: C_4  and  S_5
REMARK    6  A    between atoms: S_5  and  C_6
REMARK    7  A    between atoms: C_9  and  O_10
REMARK    8  A    between atoms: O_10  and  C_11
REMARK    9  A    between atoms: N_19  and  C_20
REMARK   10  A    between atoms: C_24  and  S_25
REMARK                            x       y       z     vdW  Elec       q    Type
REMARK                         _______ _______ _______ _____ _____    ______ ____
ROOT
ATOM      1  C   UNL     1      -0.137   9.667  17.877  0.00  0.00    +0.000 C 
ATOM      2  C   UNL     1       1.283   9.878  18.444  0.00  0.00    +0.000 C 
ENDROOT
BRANCH   2   3
ATOM      3  C   UNL     1       1.869   8.532  18.812  0.00  0.00    +0.000 C 
ATOM      4  O   UNL     1       1.889   8.252  20.000  0.00  0.00    +0.000 OA
ATOM      5  N   UNL     1       2.319   7.640  17.871  0.00  0.00    +0.000 N 
ATOM      6  H   UNL     1       2.215   7.885  16.874  0.00  0.00    +0.000 HD
BRANCH   5   7
ATOM      7  C   UNL     1       2.913   6.366  18.170  0.00  0.00    +0.000 A 
ATOM      8  C   UNL     1       4.005   5.843  17.447  0.00  0.00    +0.000 A 
ATOM      9  C   UNL     1       4.554   4.613  17.766  0.00  0.00    +0.000 A 
ATOM     10  C   UNL     1       3.999   3.835  18.781  0.00  0.00    +0.000 A 
ATOM     11  C   UNL     1       2.873   4.295  19.493  0.00  0.00    +0.000 A 
ATOM     12  C   UNL     1       2.363   5.577  19.193  0.00  0.00    +0.000 A 
BRANCH  11  13
ATOM     13  S   UNL     1       2.000   3.265  20.727  0.00  0.00    +0.000 S 
ATOM     14  F   UNL     1       3.452   2.405  21.042  0.00  0.00    +0.000 F 
ATOM     15  F   UNL     1       0.552   4.114  20.418  0.00  0.00    +0.000 F 
ATOM     16  F   UNL     1       1.172   2.315  21.883  0.00  0.00    +0.000 F 
ATOM     17  F   UNL     1       2.378   4.386  21.962  0.00  0.00    +0.000 F 
ATOM     18  F   UNL     1       1.601   2.086  19.547  0.00  0.00    +0.000 F 
ENDBRANCH  11  13
ENDBRANCH   5   7
ENDBRANCH   2   3
BRANCH   2  19
ATOM     19  O   UNL     1       2.112  10.433  17.443  0.00  0.00    +0.000 OA
ATOM     20  H   UNL     1       2.476   9.706  16.881  0.00  0.00    +0.000 HD
ENDBRANCH   2  19
BRANCH   2  21
ATOM     21  C   UNL     1       1.272  10.814  19.681  0.00  0.00    +0.000 C 
BRANCH  21  22
ATOM     22  S   UNL     1       0.294  12.326  19.300  0.00  0.00    +0.000 S 
BRANCH  22  23
ATOM     23  C   UNL     1      -0.895  12.285  20.654  0.00  0.00    +0.000 A 
ATOM     24  C   UNL     1      -2.150  12.872  20.459  0.00  0.00    +0.000 A 
ATOM     25  C   UNL     1      -3.124  12.819  21.460  0.00  0.00    +0.000 A 
ATOM     26  C   UNL     1      -2.861  12.164  22.669  0.00  0.00    +0.000 A 
ATOM     27  C   UNL     1      -1.587  11.588  22.868  0.00  0.00    +0.000 A 
ATOM     28  C   UNL     1      -0.618  11.637  21.866  0.00  0.00    +0.000 A 
BRANCH  26  29
ATOM     29  O   UNL     1      -3.856  12.099  23.592  0.00  0.00    +0.000 OA
BRANCH  29  30
ATOM     30  C   UNL     1      -4.159  13.024  24.582  0.00  0.00    +0.000 C 
ATOM     31  F   UNL     1      -4.450  12.441  25.799  0.00  0.00    +0.000 F 
ATOM     32  F   UNL     1      -3.107  13.906  24.739  0.00  0.00    +0.000 F 
ATOM     33  F   UNL     1      -5.284  13.720  24.195  0.00  0.00    +0.000 F 
ENDBRANCH  29  30
ENDBRANCH  26  29
ENDBRANCH  22  23
ENDBRANCH  21  22
ENDBRANCH   2  21
TORSDOF 9
ENDMDL
MODEL 3
REMARK VINA RESULT:      -7.4      5.121      9.791
REMARK  Name = 
REMARK  10 active torsions:
REMARK  status: ('A' for Active; 'I' for Inactive)
REMARK    1  A    between atoms: C_1  and  C_2
REMARK    2  A    between atoms: C_2  and  O_3
REMARK    3  A    between atoms: C_2  and  C_4
REMARK    4  A    between atoms: C_2  and  C_17
REMARK    5  A    between atoms: C_4  and  S_5
REMARK    6  A    between atoms: S_5  and  C_6
REMARK    7  A    between atoms: C_9  and  O_10
REMARK    8  A    between atoms: O_10  and  C_11
REMARK    9  A    between atoms: N_19  and  C_20
REMARK   10  A    between atoms: C_24  and  S_25
REMARK                            x       y       z     vdW  Elec       q    Type
REMARK                         _______ _______ _______ _____ _____    ______ ____
ROOT
ATOM      1  C   UNL     1      -0.420  10.217  18.037  0.00  0.00    +0.000 C 
ATOM      2  C   UNL     1       1.008  10.299  18.615  0.00  0.00    +0.000 C 
ENDROOT
BRANCH   2   3
ATOM      3  C   UNL     1       1.714   8.983  18.364  0.00  0.00    +0.000 C 
ATOM      4  O   UNL     1       2.157   8.807  17.242  0.00  0.00    +0.000 OA
ATOM      5  N   UNL     1       1.895   8.043  19.348  0.00  0.00    +0.000 N 
ATOM      6  H   UNL     1       1.571   8.264  20.303  0.00  0.00    +0.000 HD
BRANCH   5   7
ATOM      7  C   UNL     1       2.528   6.768  19.155  0.00  0.00    +0.000 A 
ATOM      8  C   UNL     1       3.427   6.513  18.098  0.00  0.00    +0.000 A 
ATOM      9  C   UNL     1       4.021   5.272  17.946  0.00  0.00    +0.000 A 
ATOM     10  C   UNL     1       3.699   4.225  18.807  0.00  0.00    +0.000 A 
ATOM     11  C   UNL     1       2.765   4.420  19.844  0.00  0.00    +0.000 A 
ATOM     12  C   UNL     1       2.213   5.708  20.020  0.00  0.00    +0.000 A 
BRANCH  11  13
ATOM     13  S   UNL     1       2.179   3.056  20.912  0.00  0.00    +0.000 S 
ATOM     14  F   UNL     1       2.494   4.008  22.307  0.00  0.00    +0.000 F 
ATOM     15  F   UNL     1       1.866   2.103  19.532  0.00  0.00    +0.000 F 
ATOM     16  F   UNL     1       1.622   1.775  21.899  0.00  0.00    +0.000 F 
ATOM     17  F   UNL     1       0.580   3.659  20.843  0.00  0.00    +0.000 F 
ATOM     18  F   UNL     1       3.760   2.404  21.046  0.00  0.00    +0.000 F 
ENDBRANCH  11  13
ENDBRANCH   5   7
ENDBRANCH   2   3
BRANCH   2  19
ATOM     19  O   UNL     1       1.736  11.298  17.930  0.00  0.00    +0.000 OA
ATOM     20  H   UNL     1       2.604  10.927  17.635  0.00  0.00    +0.000 HD
ENDBRANCH   2  19
BRANCH   2  21
ATOM     21  C   UNL     1       0.995  10.619  20.132  0.00  0.00    +0.000 C 
BRANCH  21  22
ATOM     22  S   UNL     1       0.795  12.433  20.376  0.00  0.00    +0.000 S 
BRANCH  22  23
ATOM     23  C   UNL     1      -0.804  12.467  21.207  0.00  0.00    +0.000 A 
ATOM     24  C   UNL     1      -1.922  12.907  20.489  0.00  0.00    +0.000 A 
ATOM     25  C   UNL     1      -3.191  12.902  21.073  0.00  0.00    +0.000 A 
ATOM     26  C   UNL     1      -3.364  12.442  22.385  0.00  0.00    +0.000 A 
ATOM     27  C   UNL     1      -2.231  12.015  23.112  0.00  0.00    +0.000 A 
ATOM     28  C   UNL     1      -0.966  12.016  22.524  0.00  0.00    +0.000 A 
BRANCH  26  29
ATOM     29  O   UNL     1      -4.625  12.411  22.891  0.00  0.00    +0.000 OA
BRANCH  29  30
ATOM     30  C   UNL     1      -5.055  12.876  24.126  0.00  0.00    +0.000 C 
ATOM     31  F   UNL     1      -4.752  12.020  25.165  0.00  0.00    +0.000 F 
ATOM     32  F   UNL     1      -4.501  14.116  24.381  0.00  0.00    +0.000 F 
ATOM     33  F   UNL     1      -6.428  12.990  24.092  0.00  0.00    +0.000 F 
ENDBRANCH  29  30
ENDBRANCH  26  29
ENDBRANCH  22  23
ENDBRANCH  21  22
ENDBRANCH   2  21
TORSDOF 9
ENDMDL
MODEL 4
REMARK VINA RESULT:      -7.3      5.178      9.836
REMARK  Name = 
REMARK  10 active torsions:
REMARK  status: ('A' for Active; 'I' for Inactive)
REMARK    1  A    between atoms: C_1  and  C_2
REMARK    2  A    between atoms: C_2  and  O_3
REMARK    3  A    between atoms: C_2  and  C_4
REMARK    4  A    between atoms: C_2  and  C_17
REMARK    5  A    between atoms: C_4  and  S_5
REMARK    6  A    between atoms: S_5  and  C_6
REMARK    7  A    between atoms: C_9  and  O_10
REMARK    8  A    between atoms: O_10  and  C_11
REMARK    9  A    between atoms: N_19  and  C_20
REMARK   10  A    between atoms: C_24  and  S_25
REMARK                            x       y       z     vdW  Elec       q    Type
REMARK                         _______ _______ _______ _____ _____    ______ ____
ROOT
ATOM      1  C   UNL     1      -0.846  10.320  18.894  0.00  0.00    +0.000 C 
ATOM      2  C   UNL     1       0.676  10.565  18.954  0.00  0.00    +0.000 C 
ENDROOT
BRANCH   2   3
ATOM      3  C   UNL     1       1.394   9.290  18.566  0.00  0.00    +0.000 C 
ATOM      4  O   UNL     1       1.650   9.147  17.383  0.00  0.00    +0.000 OA
ATOM      5  N   UNL     1       1.782   8.351  19.490  0.00  0.00    +0.000 N 
ATOM      6  H   UNL     1       1.613   8.547  20.489  0.00  0.00    +0.000 HD
BRANCH   5   7
ATOM      7  C   UNL     1       2.436   7.112  19.171  0.00  0.00    +0.000 A 
ATOM      8  C   UNL     1       3.333   6.976  18.091  0.00  0.00    +0.000 A 
ATOM      9  C   UNL     1       3.947   5.766  17.817  0.00  0.00    +0.000 A 
ATOM     10  C   UNL     1       3.647   4.635  18.574  0.00  0.00    +0.000 A 
ATOM     11  C   UNL     1       2.715   4.713  19.628  0.00  0.00    +0.000 A 
ATOM     12  C   UNL     1       2.143   5.968  19.931  0.00  0.00    +0.000 A 
BRANCH  11  13
ATOM     13  S   UNL     1       2.158   3.242  20.562  0.00  0.00    +0.000 S 
ATOM     14  F   UNL     1       1.899   2.400  19.088  0.00  0.00    +0.000 F 
ATOM     15  F   UNL     1       2.411   4.073  22.031  0.00  0.00    +0.000 F 
ATOM     16  F   UNL     1       1.647   1.872  21.448  0.00  0.00    +0.000 F 
ATOM     17  F   UNL     1       3.762   2.653  20.634  0.00  0.00    +0.000 F 
ATOM     18  F   UNL     1       0.523   3.757  20.512  0.00  0.00    +0.000 F 
ENDBRANCH  11  13
ENDBRANCH   5   7
ENDBRANCH   2   3
BRANCH   2  19
ATOM     19  O   UNL     1       1.033  11.548  18.003  0.00  0.00    +0.000 OA
ATOM     20  H   UNL     1       0.625  12.412  18.257  0.00  0.00    +0.000 HD
ENDBRANCH   2  19
BRANCH   2  21
ATOM     21  C   UNL     1       1.127  11.026  20.365  0.00  0.00    +0.000 C 
BRANCH  21  22
ATOM     22  S   UNL     1       0.756  12.816  20.576  0.00  0.00    +0.000 S 
BRANCH  22  23
ATOM     23  C   UNL     1      -0.856  12.715  21.375  0.00  0.00    +0.000 A 
ATOM     24  C   UNL     1      -1.960  13.281  20.727  0.00  0.00    +0.000 A 
ATOM     25  C   UNL     1      -3.238  13.182  21.282  0.00  0.00    +0.000 A 
ATOM     26  C   UNL     1      -3.435  12.502  22.490  0.00  0.00    +0.000 A 
ATOM     27  C   UNL     1      -2.316  11.947  23.149  0.00  0.00    +0.000 A 
ATOM     28  C   UNL     1      -1.041  12.042  22.590  0.00  0.00    +0.000 A 
BRANCH  26  29
ATOM     29  O   UNL     1      -4.704  12.392  22.963  0.00  0.00    +0.000 OA
BRANCH  29  30
ATOM     30  C   UNL     1      -5.213  12.896  24.153  0.00  0.00    +0.000 C 
ATOM     31  F   UNL     1      -6.580  13.083  24.122  0.00  0.00    +0.000 F 
ATOM     32  F   UNL     1      -4.891  12.051  25.198  0.00  0.00    +0.000 F 
ATOM     33  F   UNL     1      -4.647  14.133  24.376  0.00  0.00    +0.000 F 
ENDBRANCH  29  30
ENDBRANCH  26  29
ENDBRANCH  22  23
ENDBRANCH  21  22
ENDBRANCH   2  21
TORSDOF 9
ENDMDL
MODEL 5
REMARK VINA RESULT:      -7.3      4.873      9.452
REMARK  Name = 
REMARK  10 active torsions:
REMARK  status: ('A' for Active; 'I' for Inactive)
REMARK    1  A    between atoms: C_1  and  C_2
REMARK    2  A    between atoms: C_2  and  O_3
REMARK    3  A    between atoms: C_2  and  C_4
REMARK    4  A    between atoms: C_2  and  C_17
REMARK    5  A    between atoms: C_4  and  S_5
REMARK    6  A    between atoms: S_5  and  C_6
REMARK    7  A    between atoms: C_9  and  O_10
REMARK    8  A    between atoms: O_10  and  C_11
REMARK    9  A    between atoms: N_19  and  C_20
REMARK   10  A    between atoms: C_24  and  S_25
REMARK                            x       y       z     vdW  Elec       q    Type
REMARK                         _______ _______ _______ _____ _____    ______ ____
ROOT
ATOM      1  C   UNL     1      -0.176   9.724  17.870  0.00  0.00    +0.000 C 
ATOM      2  C   UNL     1       1.246   9.950  18.424  0.00  0.00    +0.000 C 
ENDROOT
BRANCH   2   3
ATOM      3  C   UNL     1       1.850   8.609  18.784  0.00  0.00    +0.000 C 
ATOM      4  O   UNL     1       1.936   8.351  19.973  0.00  0.00    +0.000 OA
ATOM      5  N   UNL     1       2.246   7.699  17.836  0.00  0.00    +0.000 N 
ATOM      6  H   UNL     1       2.086   7.925  16.842  0.00  0.00    +0.000 HD
BRANCH   5   7
ATOM      7  C   UNL     1       2.853   6.429  18.125  0.00  0.00    +0.000 A 
ATOM      8  C   UNL     1       3.957   5.927  17.404  0.00  0.00    +0.000 A 
ATOM      9  C   UNL     1       4.518   4.700  17.713  0.00  0.00    +0.000 A 
ATOM     10  C   UNL     1       3.966   3.905  18.716  0.00  0.00    +0.000 A 
ATOM     11  C   UNL     1       2.830   4.343  19.425  0.00  0.00    +0.000 A 
ATOM     12  C   UNL     1       2.307   5.622  19.136  0.00  0.00    +0.000 A 
BRANCH  11  13
ATOM     13  S   UNL     1       1.962   3.290  20.643  0.00  0.00    +0.000 S 
ATOM     14  F   UNL     1       1.575   2.168  19.402  0.00  0.00    +0.000 F 
ATOM     15  F   UNL     1       2.341   4.402  21.882  0.00  0.00    +0.000 F 
ATOM     16  F   UNL     1       1.160   2.312  21.793  0.00  0.00    +0.000 F 
ATOM     17  F   UNL     1       3.410   2.444  20.977  0.00  0.00    +0.000 F 
ATOM     18  F   UNL     1       0.468   4.078  20.346  0.00  0.00    +0.000 F 
ENDBRANCH  11  13
ENDBRANCH   5   7
ENDBRANCH   2   3
BRANCH   2  19
ATOM     19  O   UNL     1       2.060  10.515  17.415  0.00  0.00    +0.000 OA
ATOM     20  H   UNL     1       2.543  11.294  17.784  0.00  0.00    +0.000 HD
ENDBRANCH   2  19
BRANCH   2  21
ATOM     21  C   UNL     1       1.238  10.883  19.662  0.00  0.00    +0.000 C 
BRANCH  21  22
ATOM     22  S   UNL     1       0.358  12.446  19.249  0.00  0.00    +0.000 S 
BRANCH  22  23
ATOM     23  C   UNL     1      -1.022  12.349  20.404  0.00  0.00    +0.000 A 
ATOM     24  C   UNL     1      -0.809  11.755  21.653  0.00  0.00    +0.000 A 
ATOM     25  C   UNL     1      -1.833  11.704  22.602  0.00  0.00    +0.000 A 
ATOM     26  C   UNL     1      -3.086  12.262  22.320  0.00  0.00    +0.000 A 
ATOM     27  C   UNL     1      -3.303  12.845  21.053  0.00  0.00    +0.000 A 
ATOM     28  C   UNL     1      -2.277  12.899  20.109  0.00  0.00    +0.000 A 
BRANCH  26  29
ATOM     29  O   UNL     1      -4.035  12.229  23.293  0.00  0.00    +0.000 OA
BRANCH  29  30
ATOM     30  C   UNL     1      -4.208  13.125  24.340  0.00  0.00    +0.000 C 
ATOM     31  F   UNL     1      -5.316  13.934  24.185  0.00  0.00    +0.000 F 
ATOM     32  F   UNL     1      -4.308  12.439  25.535  0.00  0.00    +0.000 F 
ATOM     33  F   UNL     1      -3.110  13.958  24.383  0.00  0.00    +0.000 F 
ENDBRANCH  29  30
ENDBRANCH  26  29
ENDBRANCH  22  23
ENDBRANCH  21  22
ENDBRANCH   2  21
TORSDOF 9
ENDMDL
MODEL 6
REMARK VINA RESULT:      -7.3      5.192      9.926
REMARK  Name = 
REMARK  10 active torsions:
REMARK  status: ('A' for Active; 'I' for Inactive)
REMARK    1  A    between atoms: C_1  and  C_2
REMARK    2  A    between atoms: C_2  and  O_3
REMARK    3  A    between atoms: C_2  and  C_4
REMARK    4  A    between atoms: C_2  and  C_17
REMARK    5  A    between atoms: C_4  and  S_5
REMARK    6  A    between atoms: S_5  and  C_6
REMARK    7  A    between atoms: C_9  and  O_10
REMARK    8  A    between atoms: O_10  and  C_11
REMARK    9  A    between atoms: N_19  and  C_20
REMARK   10  A    between atoms: C_24  and  S_25
REMARK                            x       y       z     vdW  Elec       q    Type
REMARK                         _______ _______ _______ _____ _____    ______ ____
ROOT
ATOM      1  C   UNL     1      -0.465  10.130  18.157  0.00  0.00    +0.000 C 
ATOM      2  C   UNL     1       0.929  10.349  18.780  0.00  0.00    +0.000 C 
ENDROOT
BRANCH   2   3
ATOM      3  C   UNL     1       1.648   9.018  18.850  0.00  0.00    +0.000 C 
ATOM      4  O   UNL     1       1.676   8.470  19.939  0.00  0.00    +0.000 OA
ATOM      5  N   UNL     1       2.209   8.423  17.747  0.00  0.00    +0.000 N 
ATOM      6  H   UNL     1       2.097   8.883  16.831  0.00  0.00    +0.000 HD
BRANCH   5   7
ATOM      7  C   UNL     1       2.929   7.179  17.767  0.00  0.00    +0.000 A 
ATOM      8  C   UNL     1       4.273   7.067  17.357  0.00  0.00    +0.000 A 
ATOM      9  C   UNL     1       4.936   5.852  17.393  0.00  0.00    +0.000 A 
ATOM     10  C   UNL     1       4.266   4.695  17.788  0.00  0.00    +0.000 A 
ATOM     11  C   UNL     1       2.907   4.752  18.154  0.00  0.00    +0.000 A 
ATOM     12  C   UNL     1       2.264   6.008  18.167  0.00  0.00    +0.000 A 
BRANCH  11  13
ATOM     13  S   UNL     1       1.926   3.255  18.532  0.00  0.00    +0.000 S 
ATOM     14  F   UNL     1       0.603   3.892  17.642  0.00  0.00    +0.000 F 
ATOM     15  F   UNL     1       3.235   2.616  19.422  0.00  0.00    +0.000 F 
ATOM     16  F   UNL     1       1.023   1.847  18.888  0.00  0.00    +0.000 F 
ATOM     17  F   UNL     1       2.520   2.483  17.127  0.00  0.00    +0.000 F 
ATOM     18  F   UNL     1       1.270   3.971  19.947  0.00  0.00    +0.000 F 
ENDBRANCH  11  13
ENDBRANCH   5   7
ENDBRANCH   2   3
BRANCH   2  19
ATOM     19  O   UNL     1       1.693  11.190  17.940  0.00  0.00    +0.000 OA
ATOM     20  H   UNL     1       2.620  11.239  18.281  0.00  0.00    +0.000 HD
ENDBRANCH   2  19
BRANCH   2  21
ATOM     21  C   UNL     1       0.833  10.980  20.192  0.00  0.00    +0.000 C 
BRANCH  21  22
ATOM     22  S   UNL     1       0.327  12.744  20.045  0.00  0.00    +0.000 S 
BRANCH  22  23
ATOM     23  C   UNL     1      -1.228  12.705  20.956  0.00  0.00    +0.000 A 
ATOM     24  C   UNL     1      -2.425  12.832  20.242  0.00  0.00    +0.000 A 
ATOM     25  C   UNL     1      -3.656  12.756  20.897  0.00  0.00    +0.000 A 
ATOM     26  C   UNL     1      -3.710  12.536  22.279  0.00  0.00    +0.000 A 
ATOM     27  C   UNL     1      -2.500  12.426  22.999  0.00  0.00    +0.000 A 
ATOM     28  C   UNL     1      -1.272  12.497  22.341  0.00  0.00    +0.000 A 
BRANCH  26  29
ATOM     29  O   UNL     1      -4.932  12.422  22.862  0.00  0.00    +0.000 OA
BRANCH  29  30
ATOM     30  C   UNL     1      -5.333  12.914  24.097  0.00  0.00    +0.000 C 
ATOM     31  F   UNL     1      -6.705  12.990  24.232  0.00  0.00    +0.000 F 
ATOM     32  F   UNL     1      -4.819  12.125  25.108  0.00  0.00    +0.000 F 
ATOM     33  F   UNL     1      -4.849  14.198  24.230  0.00  0.00    +0.000 F 
ENDBRANCH  29  30
ENDBRANCH  26  29
ENDBRANCH  22  23
ENDBRANCH  21  22
ENDBRANCH   2  21
TORSDOF 9
ENDMDL
MODEL 7
REMARK VINA RESULT:      -7.3      2.888      3.454
REMARK  Name = 
REMARK  10 active torsions:
REMARK  status: ('A' for Active; 'I' for Inactive)
REMARK    1  A    between atoms: C_1  and  C_2
REMARK    2  A    between atoms: C_2  and  O_3
REMARK    3  A    between atoms: C_2  and  C_4
REMARK    4  A    between atoms: C_2  and  C_17
REMARK    5  A    between atoms: C_4  and  S_5
REMARK    6  A    between atoms: S_5  and  C_6
REMARK    7  A    between atoms: C_9  and  O_10
REMARK    8  A    between atoms: O_10  and  C_11
REMARK    9  A    between atoms: N_19  and  C_20
REMARK   10  A    between atoms: C_24  and  S_25
REMARK                            x       y       z     vdW  Elec       q    Type
REMARK                         _______ _______ _______ _____ _____    ______ ____
ROOT
ATOM      1  C   UNL     1       2.416   2.125  18.834  0.00  0.00    +0.000 C 
ATOM      2  C   UNL     1       3.086   3.216  19.695  0.00  0.00    +0.000 C 
ENDROOT
BRANCH   2   3
ATOM      3  C   UNL     1       2.510   4.563  19.314  0.00  0.00    +0.000 C 
ATOM      4  O   UNL     1       1.847   4.603  18.291  0.00  0.00    +0.000 OA
ATOM      5  N   UNL     1       2.679   5.684  20.088  0.00  0.00    +0.000 N 
ATOM      6  H   UNL     1       3.183   5.590  20.983  0.00  0.00    +0.000 HD
BRANCH   5   7
ATOM      7  C   UNL     1       2.182   6.990  19.755  0.00  0.00    +0.000 A 
ATOM      8  C   UNL     1       2.444   7.616  18.519  0.00  0.00    +0.000 A 
ATOM      9  C   UNL     1       1.944   8.875  18.231  0.00  0.00    +0.000 A 
ATOM     10  C   UNL     1       1.212   9.577  19.186  0.00  0.00    +0.000 A 
ATOM     11  C   UNL     1       0.972   9.012  20.455  0.00  0.00    +0.000 A 
ATOM     12  C   UNL     1       1.439   7.704  20.709  0.00  0.00    +0.000 A 
BRANCH  11  13
ATOM     13  S   UNL     1       0.155   9.935  21.806  0.00  0.00    +0.000 S 
ATOM     14  F   UNL     1      -1.006  10.542  20.695  0.00  0.00    +0.000 F 
ATOM     15  F   UNL     1       1.306   9.339  22.916  0.00  0.00    +0.000 F 
ATOM     16  F   UNL     1      -0.603  10.787  23.080  0.00  0.00    +0.000 F 
ATOM     17  F   UNL     1      -0.849   8.593  22.145  0.00  0.00    +0.000 F 
ATOM     18  F   UNL     1       1.110  11.329  21.511  0.00  0.00    +0.000 F 
ENDBRANCH  11  13
ENDBRANCH   5   7
ENDBRANCH   2   3
BRANCH   2  19
ATOM     19  O   UNL     1       2.772   3.000  21.056  0.00  0.00    +0.000 OA
ATOM     20  H   UNL     1       1.864   2.616  21.125  0.00  0.00    +0.000 HD
ENDBRANCH   2  19
BRANCH   2  21
ATOM     21  C   UNL     1       4.626   3.222  19.516  0.00  0.00    +0.000 C 
BRANCH  21  22
ATOM     22  S   UNL     1       5.196   4.932  19.146  0.00  0.00    +0.000 S 
BRANCH  22  23
ATOM     23  C   UNL     1       5.686   4.739  17.423  0.00  0.00    +0.000 A 
ATOM     24  C   UNL     1       7.045   4.827  17.099  0.00  0.00    +0.000 A 
ATOM     25  C   UNL     1       7.478   4.632  15.786  0.00  0.00    +0.000 A 
ATOM     26  C   UNL     1       6.558   4.331  14.774  0.00  0.00    +0.000 A 
ATOM     27  C   UNL     1       5.186   4.261  15.101  0.00  0.00    +0.000 A 
ATOM     28  C   UNL     1       4.756   4.450  16.415  0.00  0.00    +0.000 A 
BRANCH  26  29
ATOM     29  O   UNL     1       7.034   4.103  13.522  0.00  0.00    +0.000 OA
BRANCH  29  30
ATOM     30  C   UNL     1       6.332   3.638  12.418  0.00  0.00    +0.000 C 
ATOM     31  F   UNL     1       6.386   4.497  11.339  0.00  0.00    +0.000 F 
ATOM     32  F   UNL     1       6.815   2.400  12.041  0.00  0.00    +0.000 F 
ATOM     33  F   UNL     1       5.004   3.522  12.767  0.00  0.00    +0.000 F 
ENDBRANCH  29  30
ENDBRANCH  26  29
ENDBRANCH  22  23
ENDBRANCH  21  22
ENDBRANCH   2  21
TORSDOF 9
ENDMDL
MODEL 8
REMARK VINA RESULT:      -7.2      3.203      3.715
REMARK  Name = 
REMARK  10 active torsions:
REMARK  status: ('A' for Active; 'I' for Inactive)
REMARK    1  A    between atoms: C_1  and  C_2
REMARK    2  A    between atoms: C_2  and  O_3
REMARK    3  A    between atoms: C_2  and  C_4
REMARK    4  A    between atoms: C_2  and  C_17
REMARK    5  A    between atoms: C_4  and  S_5
REMARK    6  A    between atoms: S_5  and  C_6
REMARK    7  A    between atoms: C_9  and  O_10
REMARK    8  A    between atoms: O_10  and  C_11
REMARK    9  A    between atoms: N_19  and  C_20
REMARK   10  A    between atoms: C_24  and  S_25
REMARK                            x       y       z     vdW  Elec       q    Type
REMARK                         _______ _______ _______ _____ _____    ______ ____
ROOT
ATOM      1  C   UNL     1       2.909   2.497  18.288  0.00  0.00    +0.000 C 
ATOM      2  C   UNL     1       3.412   3.552  19.295  0.00  0.00    +0.000 C 
ENDROOT
BRANCH   2   3
ATOM      3  C   UNL     1       2.746   4.877  18.991  0.00  0.00    +0.000 C 
ATOM      4  O   UNL     1       2.110   4.942  17.952  0.00  0.00    +0.000 OA
ATOM      5  N   UNL     1       2.808   5.948  19.847  0.00  0.00    +0.000 N 
ATOM      6  H   UNL     1       3.293   5.828  20.750  0.00  0.00    +0.000 HD
BRANCH   5   7
ATOM      7  C   UNL     1       2.222   7.235  19.590  0.00  0.00    +0.000 A 
ATOM      8  C   UNL     1       2.396   7.925  18.373  0.00  0.00    +0.000 A 
ATOM      9  C   UNL     1       1.813   9.163  18.160  0.00  0.00    +0.000 A 
ATOM     10  C   UNL     1       1.081   9.781  19.172  0.00  0.00    +0.000 A 
ATOM     11  C   UNL     1       0.927   9.151  20.423  0.00  0.00    +0.000 A 
ATOM     12  C   UNL     1       1.479   7.864  20.603  0.00  0.00    +0.000 A 
BRANCH  11  13
ATOM     13  S   UNL     1       0.114   9.967  21.844  0.00  0.00    +0.000 S 
ATOM     14  F   UNL     1      -0.848   8.568  22.102  0.00  0.00    +0.000 F 
ATOM     15  F   UNL     1       1.065  11.362  21.592  0.00  0.00    +0.000 F 
ATOM     16  F   UNL     1      -0.632  10.740  23.174  0.00  0.00    +0.000 F 
ATOM     17  F   UNL     1       1.309   9.360  22.905  0.00  0.00    +0.000 F 
ATOM     18  F   UNL     1      -1.132  10.594  20.846  0.00  0.00    +0.000 F 
ENDBRANCH  11  13
ENDBRANCH   5   7
ENDBRANCH   2   3
BRANCH   2  19
ATOM     19  O   UNL     1       3.019   3.180  20.601  0.00  0.00    +0.000 OA
ATOM     20  H   UNL     1       3.375   3.836  21.249  0.00  0.00    +0.000 HD
ENDBRANCH   2  19
BRANCH   2  21
ATOM     21  C   UNL     1       4.954   3.703  19.245  0.00  0.00    +0.000 C 
BRANCH  21  22
ATOM     22  S   UNL     1       5.388   5.395  18.664  0.00  0.00    +0.000 S 
BRANCH  22  23
ATOM     23  C   UNL     1       5.645   5.074  16.909  0.00  0.00    +0.000 A 
ATOM     24  C   UNL     1       6.093   3.807  16.520  0.00  0.00    +0.000 A 
ATOM     25  C   UNL     1       6.256   3.494  15.168  0.00  0.00    +0.000 A 
ATOM     26  C   UNL     1       5.959   4.442  14.182  0.00  0.00    +0.000 A 
ATOM     27  C   UNL     1       5.523   5.724  14.579  0.00  0.00    +0.000 A 
ATOM     28  C   UNL     1       5.356   6.033  15.929  0.00  0.00    +0.000 A 
BRANCH  26  29
ATOM     29  O   UNL     1       6.088   4.073  12.880  0.00  0.00    +0.000 OA
BRANCH  29  30
ATOM     30  C   UNL     1       5.214   3.304  12.124  0.00  0.00    +0.000 C 
ATOM     31  F   UNL     1       5.701   2.043  11.846  0.00  0.00    +0.000 F 
ATOM     32  F   UNL     1       4.002   3.191  12.778  0.00  0.00    +0.000 F 
ATOM     33  F   UNL     1       5.020   3.932  10.913  0.00  0.00    +0.000 F 
ENDBRANCH  29  30
ENDBRANCH  26  29
ENDBRANCH  22  23
ENDBRANCH  21  22
ENDBRANCH   2  21
TORSDOF 9
ENDMDL
MODEL 9
REMARK VINA RESULT:      -7.1      2.697      5.019
REMARK  Name = 
REMARK  10 active torsions:
REMARK  status: ('A' for Active; 'I' for Inactive)
REMARK    1  A    between atoms: C_1  and  C_2
REMARK    2  A    between atoms: C_2  and  O_3
REMARK    3  A    between atoms: C_2  and  C_4
REMARK    4  A    between atoms: C_2  and  C_17
REMARK    5  A    between atoms: C_4  and  S_5
REMARK    6  A    between atoms: S_5  and  C_6
REMARK    7  A    between atoms: C_9  and  O_10
REMARK    8  A    between atoms: O_10  and  C_11
REMARK    9  A    between atoms: N_19  and  C_20
REMARK   10  A    between atoms: C_24  and  S_25
REMARK                            x       y       z     vdW  Elec       q    Type
REMARK                         _______ _______ _______ _____ _____    ______ ____
ROOT
ATOM      1  C   UNL     1       7.029   4.828  17.425  0.00  0.00    +0.000 C 
ATOM      2  C   UNL     1       6.022   5.829  16.822  0.00  0.00    +0.000 C 
ENDROOT
BRANCH   2   3
ATOM      3  C   UNL     1       5.064   6.275  17.907  0.00  0.00    +0.000 C 
ATOM      4  O   UNL     1       5.402   6.051  19.058  0.00  0.00    +0.000 OA
ATOM      5  N   UNL     1       3.893   6.935  17.632  0.00  0.00    +0.000 N 
ATOM      6  H   UNL     1       3.681   7.171  16.650  0.00  0.00    +0.000 HD
BRANCH   5   7
ATOM      7  C   UNL     1       2.936   7.350  18.621  0.00  0.00    +0.000 A 
ATOM      8  C   UNL     1       2.583   6.548  19.727  0.00  0.00    +0.000 A 
ATOM      9  C   UNL     1       1.660   6.983  20.663  0.00  0.00    +0.000 A 
ATOM     10  C   UNL     1       1.015   8.207  20.500  0.00  0.00    +0.000 A 
ATOM     11  C   UNL     1       1.297   9.016  19.382  0.00  0.00    +0.000 A 
ATOM     12  C   UNL     1       2.284   8.584  18.469  0.00  0.00    +0.000 A 
BRANCH  11  13
ATOM     13  S   UNL     1       0.379  10.557  19.023  0.00  0.00    +0.000 S 
ATOM     14  F   UNL     1       0.982  11.257  20.471  0.00  0.00    +0.000 F 
ATOM     15  F   UNL     1      -0.227   9.868  17.584  0.00  0.00    +0.000 F 
ATOM     16  F   UNL     1      -0.478  11.994  18.672  0.00  0.00    +0.000 F 
ATOM     17  F   UNL     1       1.714  11.175  18.151  0.00  0.00    +0.000 F 
ATOM     18  F   UNL     1      -0.991  10.014  19.901  0.00  0.00    +0.000 F 
ENDBRANCH  11  13
ENDBRANCH   5   7
ENDBRANCH   2   3
BRANCH   2  19
ATOM     19  O   UNL     1       6.711   6.980  16.377  0.00  0.00    +0.000 OA
ATOM     20  H   UNL     1       7.083   7.460  17.157  0.00  0.00    +0.000 HD
ENDBRANCH   2  19
BRANCH   2  21
ATOM     21  C   UNL     1       5.237   5.209  15.637  0.00  0.00    +0.000 C 
BRANCH  21  22
ATOM     22  S   UNL     1       5.297   3.373  15.753  0.00  0.00    +0.000 S 
BRANCH  22  23
ATOM     23  C   UNL     1       4.087   3.096  17.060  0.00  0.00    +0.000 A 
ATOM     24  C   UNL     1       4.488   2.405  18.208  0.00  0.00    +0.000 A 
ATOM     25  C   UNL     1       3.601   2.212  19.270  0.00  0.00    +0.000 A 
ATOM     26  C   UNL     1       2.298   2.722  19.205  0.00  0.00    +0.000 A 
ATOM     27  C   UNL     1       1.891   3.404  18.037  0.00  0.00    +0.000 A 
ATOM     28  C   UNL     1       2.781   3.600  16.980  0.00  0.00    +0.000 A 
BRANCH  26  29
ATOM     29  O   UNL     1       1.488   2.550  20.283  0.00  0.00    +0.000 OA
BRANCH  29  30
ATOM     30  C   UNL     1       1.781   2.810  21.615  0.00  0.00    +0.000 C 
ATOM     31  F   UNL     1       2.139   4.122  21.846  0.00  0.00    +0.000 F 
ATOM     32  F   UNL     1       0.696   2.487  22.406  0.00  0.00    +0.000 F 
ATOM     33  F   UNL     1       2.859   2.033  21.981  0.00  0.00    +0.000 F 
ENDBRANCH  29  30
ENDBRANCH  26  29
ENDBRANCH  22  23
ENDBRANCH  21  22
ENDBRANCH   2  21
TORSDOF 9
ENDMDL
