MODEL 1
REMARK VINA RESULT:      -8.1      0.000      0.000
REMARK  Name = 
REMARK  3 active torsions:
REMARK  status: ('A' for Active; 'I' for Inactive)
REMARK    1  A    between atoms: C_2  and  C_3
REMARK    2  A    between atoms: C_5  and  C_6
REMARK    3  A    between atoms: N_12  and  C_20
REMARK                            x       y       z     vdW  Elec       q    Type
REMARK                         _______ _______ _______ _____ _____    ______ ____
ROOT
ATOM      1  O   UNL     1       3.404   8.178  17.508  0.00  0.00    +0.000 OA
ATOM      2  C   UNL     1       2.664   7.446  18.160  0.00  0.00    +0.000 C 
ATOM      3  N   UNL     1       2.935   6.089  18.404  0.00  0.00    +0.000 N 
ATOM      4  C   UNL     1       4.135   5.582  17.833  0.00  0.00    +0.000 A 
ATOM      5  C   UNL     1       5.365   6.099  18.246  0.00  0.00    +0.000 A 
ATOM      6  C   UNL     1       6.539   5.578  17.703  0.00  0.00    +0.000 A 
ATOM      7  C   UNL     1       6.447   4.579  16.748  0.00  0.00    +0.000 A 
ATOM      8  F   UNL     1       7.551   4.065  16.195  0.00  0.00    +0.000 F 
ATOM      9  C   UNL     1       5.195   4.120  16.387  0.00  0.00    +0.000 A 
ATOM     10  N   UNL     1       4.039   4.583  16.923  0.00  0.00    +0.000 NA
ENDROOT
BRANCH   3  11
ATOM     11  C   UNL     1       2.076   5.149  19.195  0.00  0.00    +0.000 C 
ATOM     12  C   UNL     1       2.829   4.660  20.454  0.00  0.00    +0.000 C 
ATOM     13  C   UNL     1       2.013   3.642  21.238  0.00  0.00    +0.000 C 
ATOM     14  O   UNL     1       1.690   2.530  20.415  0.00  0.00    +0.000 OA
ATOM     15  C   UNL     1       0.842   2.908  19.337  0.00  0.00    +0.000 C 
ATOM     16  C   UNL     1       1.533   3.917  18.432  0.00  0.00    +0.000 C 
ENDBRANCH   3  11
BRANCH   2  17
ATOM     17  C   UNL     1       1.420   8.049  18.734  0.00  0.00    +0.000 C 
ATOM     18  C   UNL     1       1.504   8.683  20.104  0.00  0.00    +0.000 C 
ATOM     19  C   UNL     1       1.257   9.555  18.893  0.00  0.00    +0.000 C 
BRANCH  19  20
ATOM     20  C   UNL     1      -0.124  10.150  18.694  0.00  0.00    +0.000 A 
ATOM     21  C   UNL     1      -0.897   9.854  17.560  0.00  0.00    +0.000 A 
ATOM     22  C   UNL     1      -2.136  10.465  17.343  0.00  0.00    +0.000 A 
ATOM     23  C   UNL     1      -2.631  11.381  18.267  0.00  0.00    +0.000 A 
ATOM     24  C   UNL     1      -1.898  11.669  19.414  0.00  0.00    +0.000 A 
ATOM     25  C   UNL     1      -0.664  11.052  19.627  0.00  0.00    +0.000 A 
ENDBRANCH  19  20
ENDBRANCH   2  17
TORSDOF 3
ENDMDL
MODEL 2
REMARK VINA RESULT:      -7.7      1.532      1.982
REMARK  Name = 
REMARK  3 active torsions:
REMARK  status: ('A' for Active; 'I' for Inactive)
REMARK    1  A    between atoms: C_2  and  C_3
REMARK    2  A    between atoms: C_5  and  C_6
REMARK    3  A    between atoms: N_12  and  C_20
REMARK                            x       y       z     vdW  Elec       q    Type
REMARK                         _______ _______ _______ _____ _____    ______ ____
ROOT
ATOM      1  O   UNL     1       3.458   8.045  17.898  0.00  0.00    +0.000 OA
ATOM      2  C   UNL     1       2.866   7.139  18.478  0.00  0.00    +0.000 C 
ATOM      3  N   UNL     1       3.237   5.786  18.384  0.00  0.00    +0.000 N 
ATOM      4  C   UNL     1       4.354   5.504  17.551  0.00  0.00    +0.000 A 
ATOM      5  C   UNL     1       5.608   6.023  17.884  0.00  0.00    +0.000 A 
ATOM      6  C   UNL     1       6.706   5.720  17.078  0.00  0.00    +0.000 A 
ATOM      7  C   UNL     1       6.512   4.934  15.955  0.00  0.00    +0.000 A 
ATOM      8  F   UNL     1       7.538   4.633  15.151  0.00  0.00    +0.000 F 
ATOM      9  C   UNL     1       5.242   4.460  15.687  0.00  0.00    +0.000 A 
ATOM     10  N   UNL     1       4.164   4.709  16.471  0.00  0.00    +0.000 NA
ENDROOT
BRANCH   3  11
ATOM     11  C   UNL     1       2.559   4.639  19.069  0.00  0.00    +0.000 C 
ATOM     12  C   UNL     1       3.606   3.624  19.587  0.00  0.00    +0.000 C 
ATOM     13  C   UNL     1       2.946   2.408  20.219  0.00  0.00    +0.000 C 
ATOM     14  O   UNL     1       2.088   1.770  19.283  0.00  0.00    +0.000 OA
ATOM     15  C   UNL     1       1.000   2.610  18.916  0.00  0.00    +0.000 C 
ATOM     16  C   UNL     1       1.500   3.878  18.237  0.00  0.00    +0.000 C 
ENDBRANCH   3  11
BRANCH   2  17
ATOM     17  C   UNL     1       1.701   7.510  19.341  0.00  0.00    +0.000 C 
ATOM     18  C   UNL     1       1.502   6.750  20.633  0.00  0.00    +0.000 C 
ATOM     19  C   UNL     1       1.884   8.214  20.679  0.00  0.00    +0.000 C 
BRANCH  19  20
ATOM     20  C   UNL     1       0.837   9.225  21.105  0.00  0.00    +0.000 A 
ATOM     21  C   UNL     1       0.419  10.256  20.248  0.00  0.00    +0.000 A 
ATOM     22  C   UNL     1      -0.487  11.233  20.672  0.00  0.00    +0.000 A 
ATOM     23  C   UNL     1      -1.003  11.189  21.964  0.00  0.00    +0.000 A 
ATOM     24  C   UNL     1      -0.627  10.162  22.823  0.00  0.00    +0.000 A 
ATOM     25  C   UNL     1       0.275   9.187  22.392  0.00  0.00    +0.000 A 
ENDBRANCH  19  20
ENDBRANCH   2  17
TORSDOF 3
ENDMDL
MODEL 3
REMARK VINA RESULT:      -7.5      1.602      2.201
REMARK  Name = 
REMARK  3 active torsions:
REMARK  status: ('A' for Active; 'I' for Inactive)
REMARK    1  A    between atoms: C_2  and  C_3
REMARK    2  A    between atoms: C_5  and  C_6
REMARK    3  A    between atoms: N_12  and  C_20
REMARK                            x       y       z     vdW  Elec       q    Type
REMARK                         _______ _______ _______ _____ _____    ______ ____
ROOT
ATOM      1  O   UNL     1       3.564   7.974  17.606  0.00  0.00    +0.000 OA
ATOM      2  C   UNL     1       3.031   7.048  18.212  0.00  0.00    +0.000 C 
ATOM      3  N   UNL     1       3.451   5.711  18.109  0.00  0.00    +0.000 N 
ATOM      4  C   UNL     1       4.545   5.468  17.234  0.00  0.00    +0.000 A 
ATOM      5  C   UNL     1       5.789   6.038  17.515  0.00  0.00    +0.000 A 
ATOM      6  C   UNL     1       6.866   5.772  16.669  0.00  0.00    +0.000 A 
ATOM      7  C   UNL     1       6.659   4.972  15.558  0.00  0.00    +0.000 A 
ATOM      8  F   UNL     1       7.664   4.708  14.715  0.00  0.00    +0.000 F 
ATOM      9  C   UNL     1       5.399   4.448  15.342  0.00  0.00    +0.000 A 
ATOM     10  N   UNL     1       4.344   4.659  16.167  0.00  0.00    +0.000 NA
ENDROOT
BRANCH   3  11
ATOM     11  C   UNL     1       2.846   4.542  18.827  0.00  0.00    +0.000 C 
ATOM     12  C   UNL     1       3.950   3.564  19.293  0.00  0.00    +0.000 C 
ATOM     13  C   UNL     1       3.364   2.327  19.956  0.00  0.00    +0.000 C 
ATOM     14  O   UNL     1       2.484   1.659  19.062  0.00  0.00    +0.000 OA
ATOM     15  C   UNL     1       1.352   2.462  18.748  0.00  0.00    +0.000 C 
ATOM     16  C   UNL     1       1.775   3.744  18.046  0.00  0.00    +0.000 C 
ENDBRANCH   3  11
BRANCH   2  17
ATOM     17  C   UNL     1       1.887   7.379  19.119  0.00  0.00    +0.000 C 
ATOM     18  C   UNL     1       1.736   6.581  20.394  0.00  0.00    +0.000 C 
ATOM     19  C   UNL     1       2.100   8.048  20.470  0.00  0.00    +0.000 C 
BRANCH  19  20
ATOM     20  C   UNL     1       1.053   9.032  20.954  0.00  0.00    +0.000 A 
ATOM     21  C   UNL     1       0.553   8.990  22.266  0.00  0.00    +0.000 A 
ATOM     22  C   UNL     1      -0.468   9.849  22.684  0.00  0.00    +0.000 A 
ATOM     23  C   UNL     1      -1.003  10.778  21.796  0.00  0.00    +0.000 A 
ATOM     24  C   UNL     1      -0.505  10.860  20.500  0.00  0.00    +0.000 A 
ATOM     25  C   UNL     1       0.518  10.003  20.090  0.00  0.00    +0.000 A 
ENDBRANCH  19  20
ENDBRANCH   2  17
TORSDOF 3
ENDMDL
MODEL 4
REMARK VINA RESULT:      -7.4      3.250      7.429
REMARK  Name = 
REMARK  3 active torsions:
REMARK  status: ('A' for Active; 'I' for Inactive)
REMARK    1  A    between atoms: C_2  and  C_3
REMARK    2  A    between atoms: C_5  and  C_6
REMARK    3  A    between atoms: N_12  and  C_20
REMARK                            x       y       z     vdW  Elec       q    Type
REMARK                         _______ _______ _______ _____ _____    ______ ____
ROOT
ATOM      1  O   UNL     1       4.082   2.762  17.659  0.00  0.00    +0.000 OA
ATOM      2  C   UNL     1       4.014   3.987  17.624  0.00  0.00    +0.000 C 
ATOM      3  N   UNL     1       3.318   4.752  18.575  0.00  0.00    +0.000 N 
ATOM      4  C   UNL     1       2.663   4.020  19.603  0.00  0.00    +0.000 A 
ATOM      5  C   UNL     1       3.422   3.256  20.492  0.00  0.00    +0.000 A 
ATOM      6  C   UNL     1       2.777   2.563  21.517  0.00  0.00    +0.000 A 
ATOM      7  C   UNL     1       1.396   2.633  21.603  0.00  0.00    +0.000 A 
ATOM      8  F   UNL     1       0.742   1.970  22.563  0.00  0.00    +0.000 F 
ATOM      9  C   UNL     1       0.712   3.406  20.685  0.00  0.00    +0.000 A 
ATOM     10  N   UNL     1       1.316   4.118  19.702  0.00  0.00    +0.000 NA
ENDROOT
BRANCH   3  11
ATOM     11  C   UNL     1       3.204   6.247  18.588  0.00  0.00    +0.000 C 
ATOM     12  C   UNL     1       2.461   6.720  19.860  0.00  0.00    +0.000 C 
ATOM     13  C   UNL     1       2.259   8.228  19.865  0.00  0.00    +0.000 C 
ATOM     14  O   UNL     1       1.534   8.633  18.712  0.00  0.00    +0.000 OA
ATOM     15  C   UNL     1       2.267   8.379  17.520  0.00  0.00    +0.000 C 
ATOM     16  C   UNL     1       2.531   6.890  17.352  0.00  0.00    +0.000 C 
ENDBRANCH   3  11
BRANCH   2  17
ATOM     17  C   UNL     1       4.731   4.691  16.515  0.00  0.00    +0.000 C 
ATOM     18  C   UNL     1       5.922   5.552  16.871  0.00  0.00    +0.000 C 
ATOM     19  C   UNL     1       6.131   4.283  16.075  0.00  0.00    +0.000 C 
BRANCH  19  20
ATOM     20  C   UNL     1       6.480   4.395  14.604  0.00  0.00    +0.000 A 
ATOM     21  C   UNL     1       5.854   3.595  13.635  0.00  0.00    +0.000 A 
ATOM     22  C   UNL     1       6.235   3.647  12.290  0.00  0.00    +0.000 A 
ATOM     23  C   UNL     1       7.247   4.513  11.887  0.00  0.00    +0.000 A 
ATOM     24  C   UNL     1       7.864   5.337  12.822  0.00  0.00    +0.000 A 
ATOM     25  C   UNL     1       7.476   5.284  14.162  0.00  0.00    +0.000 A 
ENDBRANCH  19  20
ENDBRANCH   2  17
TORSDOF 3
ENDMDL
MODEL 5
REMARK VINA RESULT:      -7.3      4.542      7.721
REMARK  Name = 
REMARK  3 active torsions:
REMARK  status: ('A' for Active; 'I' for Inactive)
REMARK    1  A    between atoms: C_2  and  C_3
REMARK    2  A    between atoms: C_5  and  C_6
REMARK    3  A    between atoms: N_12  and  C_20
REMARK                            x       y       z     vdW  Elec       q    Type
REMARK                         _______ _______ _______ _____ _____    ______ ____
ROOT
ATOM      1  O   UNL     1       2.442  11.185  17.861  0.00  0.00    +0.000 OA
ATOM      2  C   UNL     1       1.750  10.611  18.698  0.00  0.00    +0.000 C 
ATOM      3  N   UNL     1       1.208  11.250  19.826  0.00  0.00    +0.000 N 
ATOM      4  C   UNL     1       1.518  12.631  19.967  0.00  0.00    +0.000 A 
ATOM      5  C   UNL     1       1.071  13.537  19.001  0.00  0.00    +0.000 A 
ATOM      6  C   UNL     1       1.354  14.894  19.160  0.00  0.00    +0.000 A 
ATOM      7  C   UNL     1       2.093  15.298  20.259  0.00  0.00    +0.000 A 
ATOM      8  F   UNL     1       2.395  16.589  20.436  0.00  0.00    +0.000 F 
ATOM      9  C   UNL     1       2.503  14.343  21.170  0.00  0.00    +0.000 A 
ATOM     10  N   UNL     1       2.214  13.024  21.060  0.00  0.00    +0.000 NA
ENDROOT
BRANCH   3  11
ATOM     11  C   UNL     1       0.355  10.606  20.876  0.00  0.00    +0.000 C 
ATOM     12  C   UNL     1      -0.465  11.675  21.636  0.00  0.00    +0.000 C 
ATOM     13  C   UNL     1      -1.283  11.062  22.763  0.00  0.00    +0.000 C 
ATOM     14  O   UNL     1      -0.433  10.379  23.673  0.00  0.00    +0.000 OA
ATOM     15  C   UNL     1       0.207   9.268  23.057  0.00  0.00    +0.000 C 
ATOM     16  C   UNL     1       1.096   9.724  21.909  0.00  0.00    +0.000 C 
ENDBRANCH   3  11
BRANCH   2  17
ATOM     17  C   UNL     1       1.463   9.158  18.483  0.00  0.00    +0.000 C 
ATOM     18  C   UNL     1       1.904   8.530  17.181  0.00  0.00    +0.000 C 
ATOM     19  C   UNL     1       2.570   8.112  18.473  0.00  0.00    +0.000 C 
BRANCH  19  20
ATOM     20  C   UNL     1       2.263   6.739  19.039  0.00  0.00    +0.000 A 
ATOM     21  C   UNL     1       2.177   5.606  18.214  0.00  0.00    +0.000 A 
ATOM     22  C   UNL     1       1.816   4.356  18.728  0.00  0.00    +0.000 A 
ATOM     23  C   UNL     1       1.544   4.215  20.086  0.00  0.00    +0.000 A 
ATOM     24  C   UNL     1       1.650   5.316  20.930  0.00  0.00    +0.000 A 
ATOM     25  C   UNL     1       2.015   6.560  20.410  0.00  0.00    +0.000 A 
ENDBRANCH  19  20
ENDBRANCH   2  17
TORSDOF 3
ENDMDL
MODEL 6
REMARK VINA RESULT:      -7.2      2.321      4.184
REMARK  Name = 
REMARK  3 active torsions:
REMARK  status: ('A' for Active; 'I' for Inactive)
REMARK    1  A    between atoms: C_2  and  C_3
REMARK    2  A    between atoms: C_5  and  C_6
REMARK    3  A    between atoms: N_12  and  C_20
REMARK                            x       y       z     vdW  Elec       q    Type
REMARK                         _______ _______ _______ _____ _____    ______ ____
ROOT
ATOM      1  O   UNL     1       1.711   5.889  19.539  0.00  0.00    +0.000 OA
ATOM      2  C   UNL     1       2.616   6.424  18.904  0.00  0.00    +0.000 C 
ATOM      3  N   UNL     1       3.649   5.709  18.274  0.00  0.00    +0.000 N 
ATOM      4  C   UNL     1       3.606   4.296  18.422  0.00  0.00    +0.000 A 
ATOM      5  C   UNL     1       2.529   3.581  17.892  0.00  0.00    +0.000 A 
ATOM      6  C   UNL     1       2.507   2.192  18.016  0.00  0.00    +0.000 A 
ATOM      7  C   UNL     1       3.544   1.565  18.687  0.00  0.00    +0.000 A 
ATOM      8  F   UNL     1       3.550   0.236  18.837  0.00  0.00    +0.000 F 
ATOM      9  C   UNL     1       4.574   2.339  19.188  0.00  0.00    +0.000 A 
ATOM     10  N   UNL     1       4.639   3.686  19.052  0.00  0.00    +0.000 NA
ENDROOT
BRANCH   3  11
ATOM     11  C   UNL     1       4.774   6.304  17.483  0.00  0.00    +0.000 C 
ATOM     12  C   UNL     1       4.987   5.513  16.170  0.00  0.00    +0.000 C 
ATOM     13  C   UNL     1       6.174   6.043  15.380  0.00  0.00    +0.000 C 
ATOM     14  O   UNL     1       7.355   5.985  16.167  0.00  0.00    +0.000 OA
ATOM     15  C   UNL     1       7.272   6.845  17.297  0.00  0.00    +0.000 C 
ATOM     16  C   UNL     1       6.132   6.425  18.214  0.00  0.00    +0.000 C 
ENDBRANCH   3  11
BRANCH   2  17
ATOM     17  C   UNL     1       2.594   7.916  18.787  0.00  0.00    +0.000 C 
ATOM     18  C   UNL     1       2.742   8.524  17.410  0.00  0.00    +0.000 C 
ATOM     19  C   UNL     1       1.427   8.656  18.146  0.00  0.00    +0.000 C 
BRANCH  19  20
ATOM     20  C   UNL     1       1.041  10.009  18.710  0.00  0.00    +0.000 A 
ATOM     21  C   UNL     1      -0.070  10.166  19.555  0.00  0.00    +0.000 A 
ATOM     22  C   UNL     1      -0.468  11.427  20.009  0.00  0.00    +0.000 A 
ATOM     23  C   UNL     1       0.249  12.560  19.633  0.00  0.00    +0.000 A 
ATOM     24  C   UNL     1       1.370  12.429  18.821  0.00  0.00    +0.000 A 
ATOM     25  C   UNL     1       1.765  11.166  18.374  0.00  0.00    +0.000 A 
ENDBRANCH  19  20
ENDBRANCH   2  17
TORSDOF 3
ENDMDL
MODEL 7
REMARK VINA RESULT:      -7.2      4.495      7.663
REMARK  Name = 
REMARK  3 active torsions:
REMARK  status: ('A' for Active; 'I' for Inactive)
REMARK    1  A    between atoms: C_2  and  C_3
REMARK    2  A    between atoms: C_5  and  C_6
REMARK    3  A    between atoms: N_12  and  C_20
REMARK                            x       y       z     vdW  Elec       q    Type
REMARK                         _______ _______ _______ _____ _____    ______ ____
ROOT
ATOM      1  O   UNL     1       2.393  11.070  17.593  0.00  0.00    +0.000 OA
ATOM      2  C   UNL     1       1.787  10.456  18.467  0.00  0.00    +0.000 C 
ATOM      3  N   UNL     1       1.279  11.061  19.629  0.00  0.00    +0.000 N 
ATOM      4  C   UNL     1       1.519  12.457  19.759  0.00  0.00    +0.000 A 
ATOM      5  C   UNL     1       0.966  13.339  18.828  0.00  0.00    +0.000 A 
ATOM      6  C   UNL     1       1.181  14.709  18.977  0.00  0.00    +0.000 A 
ATOM      7  C   UNL     1       1.962  15.150  20.032  0.00  0.00    +0.000 A 
ATOM      8  F   UNL     1       2.202  16.456  20.199  0.00  0.00    +0.000 F 
ATOM      9  C   UNL     1       2.479  14.218  20.911  0.00  0.00    +0.000 A 
ATOM     10  N   UNL     1       2.257  12.885  20.811  0.00  0.00    +0.000 NA
ENDROOT
BRANCH   3  11
ATOM     11  C   UNL     1       0.528  10.368  20.725  0.00  0.00    +0.000 C 
ATOM     12  C   UNL     1      -0.409  11.362  21.450  0.00  0.00    +0.000 C 
ATOM     13  C   UNL     1      -1.128  10.707  22.620  0.00  0.00    +0.000 C 
ATOM     14  O   UNL     1      -0.186  10.180  23.545  0.00  0.00    +0.000 OA
ATOM     15  C   UNL     1       0.579   9.129  22.968  0.00  0.00    +0.000 C 
ATOM     16  C   UNL     1       1.388   9.635  21.782  0.00  0.00    +0.000 C 
ENDBRANCH   3  11
BRANCH   2  17
ATOM     17  C   UNL     1       1.568   8.990  18.261  0.00  0.00    +0.000 C 
ATOM     18  C   UNL     1       2.338   8.303  17.156  0.00  0.00    +0.000 C 
ATOM     19  C   UNL     1       2.639   7.961  18.599  0.00  0.00    +0.000 C 
BRANCH  19  20
ATOM     20  C   UNL     1       2.195   6.615  19.135  0.00  0.00    +0.000 A 
ATOM     21  C   UNL     1       1.957   6.409  20.503  0.00  0.00    +0.000 A 
ATOM     22  C   UNL     1       1.624   5.147  21.004  0.00  0.00    +0.000 A 
ATOM     23  C   UNL     1       1.512   4.063  20.137  0.00  0.00    +0.000 A 
ATOM     24  C   UNL     1       1.715   4.245  18.773  0.00  0.00    +0.000 A 
ATOM     25  C   UNL     1       2.043   5.510  18.280  0.00  0.00    +0.000 A 
ENDBRANCH  19  20
ENDBRANCH   2  17
TORSDOF 3
ENDMDL
MODEL 8
REMARK VINA RESULT:      -7.0      5.783      9.793
REMARK  Name = 
REMARK  3 active torsions:
REMARK  status: ('A' for Active; 'I' for Inactive)
REMARK    1  A    between atoms: C_2  and  C_3
REMARK    2  A    between atoms: C_5  and  C_6
REMARK    3  A    between atoms: N_12  and  C_20
REMARK                            x       y       z     vdW  Elec       q    Type
REMARK                         _______ _______ _______ _____ _____    ______ ____
ROOT
ATOM      1  O   UNL     1      -1.507  10.656  23.396  0.00  0.00    +0.000 OA
ATOM      2  C   UNL     1      -0.958  11.183  22.432  0.00  0.00    +0.000 C 
ATOM      3  N   UNL     1      -1.395  12.388  21.856  0.00  0.00    +0.000 N 
ATOM      4  C   UNL     1      -2.545  12.980  22.448  0.00  0.00    +0.000 A 
ATOM      5  C   UNL     1      -2.488  13.413  23.775  0.00  0.00    +0.000 A 
ATOM      6  C   UNL     1      -3.611  14.018  24.341  0.00  0.00    +0.000 A 
ATOM      7  C   UNL     1      -4.757  14.147  23.575  0.00  0.00    +0.000 A 
ATOM      8  F   UNL     1      -5.857  14.709  24.089  0.00  0.00    +0.000 F 
ATOM      9  C   UNL     1      -4.739  13.691  22.271  0.00  0.00    +0.000 A 
ATOM     10  N   UNL     1      -3.653  13.131  21.684  0.00  0.00    +0.000 NA
ENDROOT
BRANCH   3  11
ATOM     11  C   UNL     1      -0.766  13.082  20.686  0.00  0.00    +0.000 C 
ATOM     12  C   UNL     1      -1.174  12.390  19.364  0.00  0.00    +0.000 C 
ATOM     13  C   UNL     1      -0.488  13.022  18.162  0.00  0.00    +0.000 C 
ATOM     14  O   UNL     1       0.923  12.963  18.313  0.00  0.00    +0.000 OA
ATOM     15  C   UNL     1       1.363  13.742  19.420  0.00  0.00    +0.000 C 
ATOM     16  C   UNL     1       0.776  13.213  20.721  0.00  0.00    +0.000 C 
ENDBRANCH   3  11
BRANCH   2  17
ATOM     17  C   UNL     1       0.249  10.506  21.863  0.00  0.00    +0.000 C 
ATOM     18  C   UNL     1       0.812   9.315  22.604  0.00  0.00    +0.000 C 
ATOM     19  C   UNL     1       0.175   9.115  21.247  0.00  0.00    +0.000 C 
BRANCH  19  20
ATOM     20  C   UNL     1       1.070   8.809  20.061  0.00  0.00    +0.000 A 
ATOM     21  C   UNL     1       1.085   9.627  18.920  0.00  0.00    +0.000 A 
ATOM     22  C   UNL     1       1.852   9.298  17.798  0.00  0.00    +0.000 A 
ATOM     23  C   UNL     1       2.631   8.144  17.802  0.00  0.00    +0.000 A 
ATOM     24  C   UNL     1       2.656   7.332  18.931  0.00  0.00    +0.000 A 
ATOM     25  C   UNL     1       1.891   7.669  20.050  0.00  0.00    +0.000 A 
ENDBRANCH  19  20
ENDBRANCH   2  17
TORSDOF 3
ENDMDL
MODEL 9
REMARK VINA RESULT:      -6.9      3.990      6.804
REMARK  Name = 
REMARK  3 active torsions:
REMARK  status: ('A' for Active; 'I' for Inactive)
REMARK    1  A    between atoms: C_2  and  C_3
REMARK    2  A    between atoms: C_5  and  C_6
REMARK    3  A    between atoms: N_12  and  C_20
REMARK                            x       y       z     vdW  Elec       q    Type
REMARK                         _______ _______ _______ _____ _____    ______ ____
ROOT
ATOM      1  O   UNL     1      -1.635   9.368  17.118  0.00  0.00    +0.000 OA
ATOM      2  C   UNL     1      -1.611  10.406  17.775  0.00  0.00    +0.000 C 
ATOM      3  N   UNL     1      -0.620  10.697  18.728  0.00  0.00    +0.000 N 
ATOM      4  C   UNL     1       0.377   9.699  18.914  0.00  0.00    +0.000 A 
ATOM      5  C   UNL     1       1.224   9.369  17.853  0.00  0.00    +0.000 A 
ATOM      6  C   UNL     1       2.218   8.410  18.050  0.00  0.00    +0.000 A 
ATOM      7  C   UNL     1       2.316   7.795  19.286  0.00  0.00    +0.000 A 
ATOM      8  F   UNL     1       3.248   6.860  19.507  0.00  0.00    +0.000 F 
ATOM      9  C   UNL     1       1.440   8.171  20.286  0.00  0.00    +0.000 A 
ATOM     10  N   UNL     1       0.488   9.124  20.134  0.00  0.00    +0.000 NA
ENDROOT
BRANCH   3  11
ATOM     11  C   UNL     1      -0.534  11.944  19.555  0.00  0.00    +0.000 C 
ATOM     12  C   UNL     1       0.941  12.377  19.728  0.00  0.00    +0.000 C 
ATOM     13  C   UNL     1       1.068  13.596  20.629  0.00  0.00    +0.000 C 
ATOM     14  O   UNL     1       0.498  13.329  21.903  0.00  0.00    +0.000 OA
ATOM     15  C   UNL     1      -0.904  13.103  21.810  0.00  0.00    +0.000 C 
ATOM     16  C   UNL     1      -1.200  11.883  20.951  0.00  0.00    +0.000 C 
ENDBRANCH   3  11
BRANCH   2  17
ATOM     17  C   UNL     1      -2.690  11.412  17.524  0.00  0.00    +0.000 C 
ATOM     18  C   UNL     1      -3.564  11.229  16.305  0.00  0.00    +0.000 C 
ATOM     19  C   UNL     1      -4.164  11.067  17.684  0.00  0.00    +0.000 C 
BRANCH  19  20
ATOM     20  C   UNL     1      -5.099  12.142  18.202  0.00  0.00    +0.000 A 
ATOM     21  C   UNL     1      -5.139  12.491  19.561  0.00  0.00    +0.000 A 
ATOM     22  C   UNL     1      -6.058  13.428  20.046  0.00  0.00    +0.000 A 
ATOM     23  C   UNL     1      -6.951  14.043  19.173  0.00  0.00    +0.000 A 
ATOM     24  C   UNL     1      -6.912  13.736  17.817  0.00  0.00    +0.000 A 
ATOM     25  C   UNL     1      -5.990  12.804  17.338  0.00  0.00    +0.000 A 
ENDBRANCH  19  20
ENDBRANCH   2  17
TORSDOF 3
ENDMDL
