MODEL 1
REMARK VINA RESULT:      -8.4      0.000      0.000
REMARK  Name = 
REMARK  4 active torsions:
REMARK  status: ('A' for Active; 'I' for Inactive)
REMARK    1  A    between atoms: C_1  and  C_2
REMARK    2  A    between atoms: N_10  and  C_11
REMARK    3  A    between atoms: C_11  and  C_12
REMARK    4  A    between atoms: C_14  and  C_15
REMARK                            x       y       z     vdW  Elec       q    Type
REMARK                         _______ _______ _______ _____ _____    ______ ____
ROOT
ATOM      1  C   UNL     1       7.702   7.030  18.155  0.00  0.00    +0.000 A 
ATOM      2  N   UNL     1       8.616   7.750  18.766  0.00  0.00    +0.000 NA
ATOM      3  C   UNL     1       8.408   9.009  18.244  0.00  0.00    +0.000 A 
ATOM      4  N   UNL     1       7.448   9.056  17.305  0.00  0.00    +0.000 NA
ATOM      5  O   UNL     1       6.975   7.743  17.249  0.00  0.00    +0.000 OA
ENDROOT
BRANCH   3   6
ATOM      6  C   UNL     1       9.114  10.176  18.767  0.00  0.00    +0.000 A 
ATOM      7  C   UNL     1       9.756  11.058  17.879  0.00  0.00    +0.000 A 
ATOM      8  C   UNL     1      10.493  12.142  18.358  0.00  0.00    +0.000 A 
ATOM      9  C   UNL     1      10.590  12.351  19.728  0.00  0.00    +0.000 A 
ATOM     10  F   UNL     1      11.309  13.382  20.188  0.00  0.00    +0.000 F 
ATOM     11  C   UNL     1       9.956  11.500  20.626  0.00  0.00    +0.000 A 
ATOM     12  C   UNL     1       9.216  10.414  20.147  0.00  0.00    +0.000 A 
ENDBRANCH   3   6
BRANCH   1  13
ATOM     13  C   UNL     1       7.230   5.652  18.472  0.00  0.00    +0.000 C 
BRANCH  13  23
ATOM     14  C   UNL     1       7.109   4.378  15.624  0.00  0.00    +0.000 C 
ATOM     15  C   UNL     1       5.931   5.044  16.315  0.00  0.00    +0.000 C 
ATOM     16  C   UNL     1       4.613   4.258  16.077  0.00  0.00    +0.000 C 
ATOM     17  C   UNL     1       3.874   4.591  17.334  0.00  0.00    +0.000 A 
ATOM     18  C   UNL     1       2.533   4.401  17.617  0.00  0.00    +0.000 A 
ATOM     19  C   UNL     1       2.075   4.772  18.881  0.00  0.00    +0.000 A 
ATOM     20  C   UNL     1       2.960   5.313  19.825  0.00  0.00    +0.000 A 
ATOM     21  C   UNL     1       4.322   5.467  19.527  0.00  0.00    +0.000 A 
ATOM     22  C   UNL     1       4.778   5.097  18.278  0.00  0.00    +0.000 A 
ATOM     23  N   UNL     1       6.077   5.104  17.778  0.00  0.00    +0.000 N 
ENDBRANCH  13  23
ENDBRANCH   1  13
TORSDOF 3
ENDMDL
MODEL 2
REMARK VINA RESULT:      -8.2      0.340      1.015
REMARK  Name = 
REMARK  4 active torsions:
REMARK  status: ('A' for Active; 'I' for Inactive)
REMARK    1  A    between atoms: C_1  and  C_2
REMARK    2  A    between atoms: N_10  and  C_11
REMARK    3  A    between atoms: C_11  and  C_12
REMARK    4  A    between atoms: C_14  and  C_15
REMARK                            x       y       z     vdW  Elec       q    Type
REMARK                         _______ _______ _______ _____ _____    ______ ____
ROOT
ATOM      1  C   UNL     1       7.666   7.055  18.098  0.00  0.00    +0.000 A 
ATOM      2  N   UNL     1       8.543   7.818  18.710  0.00  0.00    +0.000 NA
ATOM      3  C   UNL     1       8.310   9.056  18.148  0.00  0.00    +0.000 A 
ATOM      4  N   UNL     1       7.372   9.048  17.186  0.00  0.00    +0.000 NA
ATOM      5  O   UNL     1       6.940   7.720  17.155  0.00  0.00    +0.000 OA
ENDROOT
BRANCH   3   6
ATOM      6  C   UNL     1       8.967  10.258  18.654  0.00  0.00    +0.000 A 
ATOM      7  C   UNL     1       9.471  10.276  19.967  0.00  0.00    +0.000 A 
ATOM      8  C   UNL     1      10.042  11.435  20.496  0.00  0.00    +0.000 A 
ATOM      9  C   UNL     1      10.115  12.580  19.714  0.00  0.00    +0.000 A 
ATOM     10  F   UNL     1      10.650  13.696  20.225  0.00  0.00    +0.000 F 
ATOM     11  C   UNL     1       9.634  12.585  18.409  0.00  0.00    +0.000 A 
ATOM     12  C   UNL     1       9.062  11.424  17.877  0.00  0.00    +0.000 A 
ENDBRANCH   3   6
BRANCH   1  13
ATOM     13  C   UNL     1       7.228   5.672  18.442  0.00  0.00    +0.000 C 
BRANCH  13  23
ATOM     14  C   UNL     1       7.110   4.322  15.629  0.00  0.00    +0.000 C 
ATOM     15  C   UNL     1       5.926   4.987  16.310  0.00  0.00    +0.000 C 
ATOM     16  C   UNL     1       4.619   4.174  16.101  0.00  0.00    +0.000 C 
ATOM     17  C   UNL     1       3.883   4.528  17.354  0.00  0.00    +0.000 A 
ATOM     18  C   UNL     1       2.546   4.324  17.651  0.00  0.00    +0.000 A 
ATOM     19  C   UNL     1       2.091   4.721  18.908  0.00  0.00    +0.000 A 
ATOM     20  C   UNL     1       2.973   5.300  19.831  0.00  0.00    +0.000 A 
ATOM     21  C   UNL     1       4.330   5.468  19.520  0.00  0.00    +0.000 A 
ATOM     22  C   UNL     1       4.785   5.073  18.279  0.00  0.00    +0.000 A 
ATOM     23  N   UNL     1       6.079   5.087  17.770  0.00  0.00    +0.000 N 
ENDBRANCH  13  23
ENDBRANCH   1  13
TORSDOF 3
ENDMDL
MODEL 3
REMARK VINA RESULT:      -8.1      5.128      6.850
REMARK  Name = 
REMARK  4 active torsions:
REMARK  status: ('A' for Active; 'I' for Inactive)
REMARK    1  A    between atoms: C_1  and  C_2
REMARK    2  A    between atoms: N_10  and  C_11
REMARK    3  A    between atoms: C_11  and  C_12
REMARK    4  A    between atoms: C_14  and  C_15
REMARK                            x       y       z     vdW  Elec       q    Type
REMARK                         _______ _______ _______ _____ _____    ______ ____
ROOT
ATOM      1  C   UNL     1       2.888   7.686  18.075  0.00  0.00    +0.000 A 
ATOM      2  N   UNL     1       2.471   7.850  19.310  0.00  0.00    +0.000 NA
ATOM      3  C   UNL     1       1.605   8.916  19.198  0.00  0.00    +0.000 A 
ATOM      4  N   UNL     1       1.534   9.431  17.959  0.00  0.00    +0.000 NA
ATOM      5  O   UNL     1       2.382   8.612  17.211  0.00  0.00    +0.000 OA
ENDROOT
BRANCH   3   6
ATOM      6  C   UNL     1       0.779   9.348  20.324  0.00  0.00    +0.000 A 
ATOM      7  C   UNL     1       0.054  10.550  20.235  0.00  0.00    +0.000 A 
ATOM      8  C   UNL     1      -0.688  11.017  21.321  0.00  0.00    +0.000 A 
ATOM      9  C   UNL     1      -0.710  10.284  22.500  0.00  0.00    +0.000 A 
ATOM     10  F   UNL     1      -1.410  10.739  23.548  0.00  0.00    +0.000 F 
ATOM     11  C   UNL     1      -0.010   9.087  22.610  0.00  0.00    +0.000 A 
ATOM     12  C   UNL     1       0.733   8.617  21.522  0.00  0.00    +0.000 A 
ENDBRANCH   3   6
BRANCH   1  13
ATOM     13  C   UNL     1       3.631   6.538  17.482  0.00  0.00    +0.000 C 
BRANCH  13  23
ATOM     14  C   UNL     1       6.207   5.612  18.983  0.00  0.00    +0.000 C 
ATOM     15  C   UNL     1       5.136   4.671  18.458  0.00  0.00    +0.000 C 
ATOM     16  C   UNL     1       4.853   3.518  19.460  0.00  0.00    +0.000 C 
ATOM     17  C   UNL     1       3.416   3.242  19.148  0.00  0.00    +0.000 A 
ATOM     18  C   UNL     1       2.649   2.153  19.525  0.00  0.00    +0.000 A 
ATOM     19  C   UNL     1       1.313   2.131  19.131  0.00  0.00    +0.000 A 
ATOM     20  C   UNL     1       0.776   3.189  18.383  0.00  0.00    +0.000 A 
ATOM     21  C   UNL     1       1.563   4.298  18.040  0.00  0.00    +0.000 A 
ATOM     22  C   UNL     1       2.886   4.324  18.431  0.00  0.00    +0.000 A 
ATOM     23  N   UNL     1       3.835   5.327  18.259  0.00  0.00    +0.000 N 
ENDBRANCH  13  23
ENDBRANCH   1  13
TORSDOF 3
ENDMDL
MODEL 4
REMARK VINA RESULT:      -8.1      5.189      7.083
REMARK  Name = 
REMARK  4 active torsions:
REMARK  status: ('A' for Active; 'I' for Inactive)
REMARK    1  A    between atoms: C_1  and  C_2
REMARK    2  A    between atoms: N_10  and  C_11
REMARK    3  A    between atoms: C_11  and  C_12
REMARK    4  A    between atoms: C_14  and  C_15
REMARK                            x       y       z     vdW  Elec       q    Type
REMARK                         _______ _______ _______ _____ _____    ______ ____
ROOT
ATOM      1  C   UNL     1       2.358   7.833  18.306  0.00  0.00    +0.000 A 
ATOM      2  N   UNL     1       1.888   8.011  19.520  0.00  0.00    +0.000 NA
ATOM      3  C   UNL     1       1.365   9.285  19.458  0.00  0.00    +0.000 A 
ATOM      4  N   UNL     1       1.558   9.895  18.276  0.00  0.00    +0.000 NA
ATOM      5  O   UNL     1       2.213   8.930  17.508  0.00  0.00    +0.000 OA
ENDROOT
BRANCH   3   6
ATOM      6  C   UNL     1       0.588   9.844  20.562  0.00  0.00    +0.000 A 
ATOM      7  C   UNL     1       0.548   9.172  21.796  0.00  0.00    +0.000 A 
ATOM      8  C   UNL     1      -0.241   9.650  22.844  0.00  0.00    +0.000 A 
ATOM      9  C   UNL     1      -0.993  10.804  22.662  0.00  0.00    +0.000 A 
ATOM     10  F   UNL     1      -1.761  11.255  23.662  0.00  0.00    +0.000 F 
ATOM     11  C   UNL     1      -0.962  11.493  21.455  0.00  0.00    +0.000 A 
ATOM     12  C   UNL     1      -0.171  11.016  20.405  0.00  0.00    +0.000 A 
ENDBRANCH   3   6
BRANCH   1  13
ATOM     13  C   UNL     1       2.807   6.572  17.651  0.00  0.00    +0.000 C 
BRANCH  13  23
ATOM     14  C   UNL     1       5.847   5.929  17.963  0.00  0.00    +0.000 C 
ATOM     15  C   UNL     1       4.733   4.911  18.143  0.00  0.00    +0.000 C 
ATOM     16  C   UNL     1       5.015   3.965  19.343  0.00  0.00    +0.000 C 
ATOM     17  C   UNL     1       3.616   3.644  19.763  0.00  0.00    +0.000 A 
ATOM     18  C   UNL     1       3.185   2.647  20.621  0.00  0.00    +0.000 A 
ATOM     19  C   UNL     1       1.818   2.558  20.881  0.00  0.00    +0.000 A 
ATOM     20  C   UNL     1       0.923   3.462  20.289  0.00  0.00    +0.000 A 
ATOM     21  C   UNL     1       1.386   4.484  19.448  0.00  0.00    +0.000 A 
ATOM     22  C   UNL     1       2.738   4.576  19.191  0.00  0.00    +0.000 A 
ATOM     23  N   UNL     1       3.430   5.526  18.445  0.00  0.00    +0.000 N 
ENDBRANCH  13  23
ENDBRANCH   1  13
TORSDOF 3
ENDMDL
MODEL 5
REMARK VINA RESULT:      -8.1      5.102      6.451
REMARK  Name = 
REMARK  4 active torsions:
REMARK  status: ('A' for Active; 'I' for Inactive)
REMARK    1  A    between atoms: C_1  and  C_2
REMARK    2  A    between atoms: N_10  and  C_11
REMARK    3  A    between atoms: C_11  and  C_12
REMARK    4  A    between atoms: C_14  and  C_15
REMARK                            x       y       z     vdW  Elec       q    Type
REMARK                         _______ _______ _______ _____ _____    ______ ____
ROOT
ATOM      1  C   UNL     1       6.280   5.239  18.217  0.00  0.00    +0.000 A 
ATOM      2  N   UNL     1       5.994   5.474  16.956  0.00  0.00    +0.000 NA
ATOM      3  C   UNL     1       7.012   4.824  16.290  0.00  0.00    +0.000 A 
ATOM      4  N   UNL     1       7.923   4.265  17.103  0.00  0.00    +0.000 NA
ATOM      5  O   UNL     1       7.436   4.536  18.384  0.00  0.00    +0.000 OA
ENDROOT
BRANCH   3   6
ATOM      6  C   UNL     1       7.005   4.690  14.835  0.00  0.00    +0.000 A 
ATOM      7  C   UNL     1       6.158   3.747  14.226  0.00  0.00    +0.000 A 
ATOM      8  C   UNL     1       6.183   3.553  12.844  0.00  0.00    +0.000 A 
ATOM      9  C   UNL     1       7.054   4.302  12.064  0.00  0.00    +0.000 A 
ATOM     10  F   UNL     1       7.089   4.106  10.740  0.00  0.00    +0.000 F 
ATOM     11  C   UNL     1       7.894   5.249  12.641  0.00  0.00    +0.000 A 
ATOM     12  C   UNL     1       7.869   5.445  14.025  0.00  0.00    +0.000 A 
ENDBRANCH   3   6
BRANCH   1  13
ATOM     13  C   UNL     1       5.428   5.442  19.423  0.00  0.00    +0.000 C 
BRANCH  13  23
ATOM     14  C   UNL     1       3.510   7.296  17.801  0.00  0.00    +0.000 C 
ATOM     15  C   UNL     1       3.101   6.510  19.036  0.00  0.00    +0.000 C 
ATOM     16  C   UNL     1       1.683   5.895  18.875  0.00  0.00    +0.000 C 
ATOM     17  C   UNL     1       1.822   4.680  19.735  0.00  0.00    +0.000 A 
ATOM     18  C   UNL     1       0.824   3.845  20.210  0.00  0.00    +0.000 A 
ATOM     19  C   UNL     1       1.205   2.749  20.982  0.00  0.00    +0.000 A 
ATOM     20  C   UNL     1       2.560   2.510  21.255  0.00  0.00    +0.000 A 
ATOM     21  C   UNL     1       3.556   3.351  20.737  0.00  0.00    +0.000 A 
ATOM     22  C   UNL     1       3.182   4.434  19.970  0.00  0.00    +0.000 A 
ATOM     23  N   UNL     1       3.981   5.363  19.310  0.00  0.00    +0.000 N 
ENDBRANCH  13  23
ENDBRANCH   1  13
TORSDOF 3
ENDMDL
MODEL 6
REMARK VINA RESULT:      -8.1      5.256      7.502
REMARK  Name = 
REMARK  4 active torsions:
REMARK  status: ('A' for Active; 'I' for Inactive)
REMARK    1  A    between atoms: C_1  and  C_2
REMARK    2  A    between atoms: N_10  and  C_11
REMARK    3  A    between atoms: C_11  and  C_12
REMARK    4  A    between atoms: C_14  and  C_15
REMARK                            x       y       z     vdW  Elec       q    Type
REMARK                         _______ _______ _______ _____ _____    ______ ____
ROOT
ATOM      1  C   UNL     1       2.549   7.669  18.861  0.00  0.00    +0.000 A 
ATOM      2  N   UNL     1       1.588   8.337  19.458  0.00  0.00    +0.000 NA
ATOM      3  C   UNL     1       1.233   9.270  18.508  0.00  0.00    +0.000 A 
ATOM      4  N   UNL     1       1.982   9.223  17.394  0.00  0.00    +0.000 NA
ATOM      5  O   UNL     1       2.854   8.157  17.625  0.00  0.00    +0.000 OA
ENDROOT
BRANCH   3   6
ATOM      6  C   UNL     1       0.074  10.141  18.691  0.00  0.00    +0.000 A 
ATOM      7  C   UNL     1       0.035  11.028  19.782  0.00  0.00    +0.000 A 
ATOM      8  C   UNL     1      -1.090  11.821  20.016  0.00  0.00    +0.000 A 
ATOM      9  C   UNL     1      -2.180  11.732  19.160  0.00  0.00    +0.000 A 
ATOM     10  F   UNL     1      -3.265  12.483  19.392  0.00  0.00    +0.000 F 
ATOM     11  C   UNL     1      -2.161  10.872  18.068  0.00  0.00    +0.000 A 
ATOM     12  C   UNL     1      -1.035  10.077  17.832  0.00  0.00    +0.000 A 
ENDBRANCH   3   6
BRANCH   1  13
ATOM     13  C   UNL     1       3.167   6.369  19.250  0.00  0.00    +0.000 C 
BRANCH  13  23
ATOM     14  C   UNL     1       1.440   4.008  18.159  0.00  0.00    +0.000 C 
ATOM     15  C   UNL     1       2.959   4.036  18.144  0.00  0.00    +0.000 C 
ATOM     16  C   UNL     1       3.526   3.453  16.821  0.00  0.00    +0.000 C 
ATOM     17  C   UNL     1       4.801   4.227  16.715  0.00  0.00    +0.000 A 
ATOM     18  C   UNL     1       5.884   3.989  15.886  0.00  0.00    +0.000 A 
ATOM     19  C   UNL     1       6.960   4.873  15.951  0.00  0.00    +0.000 A 
ATOM     20  C   UNL     1       6.929   5.966  16.829  0.00  0.00    +0.000 A 
ATOM     21  C   UNL     1       5.808   6.206  17.637  0.00  0.00    +0.000 A 
ATOM     22  C   UNL     1       4.740   5.335  17.573  0.00  0.00    +0.000 A 
ATOM     23  N   UNL     1       3.513   5.397  18.227  0.00  0.00    +0.000 N 
ENDBRANCH  13  23
ENDBRANCH   1  13
TORSDOF 3
ENDMDL
MODEL 7
REMARK VINA RESULT:      -8.1      5.241      7.464
REMARK  Name = 
REMARK  4 active torsions:
REMARK  status: ('A' for Active; 'I' for Inactive)
REMARK    1  A    between atoms: C_1  and  C_2
REMARK    2  A    between atoms: N_10  and  C_11
REMARK    3  A    between atoms: C_11  and  C_12
REMARK    4  A    between atoms: C_14  and  C_15
REMARK                            x       y       z     vdW  Elec       q    Type
REMARK                         _______ _______ _______ _____ _____    ______ ____
ROOT
ATOM      1  C   UNL     1       2.577   7.654  18.893  0.00  0.00    +0.000 A 
ATOM      2  N   UNL     1       1.625   8.298  19.531  0.00  0.00    +0.000 NA
ATOM      3  C   UNL     1       1.208   9.223  18.597  0.00  0.00    +0.000 A 
ATOM      4  N   UNL     1       1.913   9.195  17.453  0.00  0.00    +0.000 NA
ATOM      5  O   UNL     1       2.819   8.151  17.647  0.00  0.00    +0.000 OA
ENDROOT
BRANCH   3   6
ATOM      6  C   UNL     1       0.036  10.064  18.829  0.00  0.00    +0.000 A 
ATOM      7  C   UNL     1      -1.003  10.087  17.882  0.00  0.00    +0.000 A 
ATOM      8  C   UNL     1      -2.101  10.933  18.048  0.00  0.00    +0.000 A 
ATOM      9  C   UNL     1      -2.165  11.759  19.163  0.00  0.00    +0.000 A 
ATOM     10  F   UNL     1      -3.211  12.581  19.315  0.00  0.00    +0.000 F 
ATOM     11  C   UNL     1      -1.156  11.746  20.119  0.00  0.00    +0.000 A 
ATOM     12  C   UNL     1      -0.056  10.898  19.955  0.00  0.00    +0.000 A 
ENDBRANCH   3   6
BRANCH   1  13
ATOM     13  C   UNL     1       3.243   6.370  19.255  0.00  0.00    +0.000 C 
BRANCH  13  23
ATOM     14  C   UNL     1       1.462   4.040  18.184  0.00  0.00    +0.000 C 
ATOM     15  C   UNL     1       2.981   4.048  18.140  0.00  0.00    +0.000 C 
ATOM     16  C   UNL     1       3.513   3.466  16.802  0.00  0.00    +0.000 C 
ATOM     17  C   UNL     1       4.797   4.223  16.675  0.00  0.00    +0.000 A 
ATOM     18  C   UNL     1       5.860   3.975  15.823  0.00  0.00    +0.000 A 
ATOM     19  C   UNL     1       6.949   4.843  15.872  0.00  0.00    +0.000 A 
ATOM     20  C   UNL     1       6.951   5.931  16.758  0.00  0.00    +0.000 A 
ATOM     21  C   UNL     1       5.849   6.181  17.589  0.00  0.00    +0.000 A 
ATOM     22  C   UNL     1       4.768   5.326  17.541  0.00  0.00    +0.000 A 
ATOM     23  N   UNL     1       3.556   5.400  18.219  0.00  0.00    +0.000 N 
ENDBRANCH  13  23
ENDBRANCH   1  13
TORSDOF 3
ENDMDL
MODEL 8
REMARK VINA RESULT:      -8.0      5.524      7.623
REMARK  Name = 
REMARK  4 active torsions:
REMARK  status: ('A' for Active; 'I' for Inactive)
REMARK    1  A    between atoms: C_1  and  C_2
REMARK    2  A    between atoms: N_10  and  C_11
REMARK    3  A    between atoms: C_11  and  C_12
REMARK    4  A    between atoms: C_14  and  C_15
REMARK                            x       y       z     vdW  Elec       q    Type
REMARK                         _______ _______ _______ _____ _____    ______ ____
ROOT
ATOM      1  C   UNL     1       5.976   5.647  16.064  0.00  0.00    +0.000 A 
ATOM      2  N   UNL     1       5.469   4.890  15.118  0.00  0.00    +0.000 NA
ATOM      3  C   UNL     1       6.525   4.753  14.242  0.00  0.00    +0.000 A 
ATOM      4  N   UNL     1       7.619   5.447  14.598  0.00  0.00    +0.000 NA
ATOM      5  O   UNL     1       7.258   6.038  15.810  0.00  0.00    +0.000 OA
ENDROOT
BRANCH   3   6
ATOM      6  C   UNL     1       6.454   3.844  13.100  0.00  0.00    +0.000 A 
ATOM      7  C   UNL     1       5.213   3.314  12.707  0.00  0.00    +0.000 A 
ATOM      8  C   UNL     1       5.129   2.391  11.663  0.00  0.00    +0.000 A 
ATOM      9  C   UNL     1       6.286   1.997  11.005  0.00  0.00    +0.000 A 
ATOM     10  F   UNL     1       6.208   1.101  10.012  0.00  0.00    +0.000 F 
ATOM     11  C   UNL     1       7.525   2.515  11.367  0.00  0.00    +0.000 A 
ATOM     12  C   UNL     1       7.610   3.440  12.412  0.00  0.00    +0.000 A 
ENDBRANCH   3   6
BRANCH   1  13
ATOM     13  C   UNL     1       5.434   5.939  17.422  0.00  0.00    +0.000 C 
BRANCH  13  23
ATOM     14  C   UNL     1       3.103   7.996  17.717  0.00  0.00    +0.000 C 
ATOM     15  C   UNL     1       3.129   6.629  18.380  0.00  0.00    +0.000 C 
ATOM     16  C   UNL     1       1.733   5.949  18.334  0.00  0.00    +0.000 C 
ATOM     17  C   UNL     1       2.140   4.510  18.309  0.00  0.00    +0.000 A 
ATOM     18  C   UNL     1       1.352   3.391  18.521  0.00  0.00    +0.000 A 
ATOM     19  C   UNL     1       1.958   2.140  18.420  0.00  0.00    +0.000 A 
ATOM     20  C   UNL     1       3.321   2.035  18.108  0.00  0.00    +0.000 A 
ATOM     21  C   UNL     1       4.093   3.181  17.865  0.00  0.00    +0.000 A 
ATOM     22  C   UNL     1       3.495   4.421  17.961  0.00  0.00    +0.000 A 
ATOM     23  N   UNL     1       4.034   5.679  17.714  0.00  0.00    +0.000 N 
ENDBRANCH  13  23
ENDBRANCH   1  13
TORSDOF 3
ENDMDL
MODEL 9
REMARK VINA RESULT:      -7.9      5.073      6.557
REMARK  Name = 
REMARK  4 active torsions:
REMARK  status: ('A' for Active; 'I' for Inactive)
REMARK    1  A    between atoms: C_1  and  C_2
REMARK    2  A    between atoms: N_10  and  C_11
REMARK    3  A    between atoms: C_11  and  C_12
REMARK    4  A    between atoms: C_14  and  C_15
REMARK                            x       y       z     vdW  Elec       q    Type
REMARK                         _______ _______ _______ _____ _____    ______ ____
ROOT
ATOM      1  C   UNL     1       5.934   5.419  18.244  0.00  0.00    +0.000 A 
ATOM      2  N   UNL     1       5.697   5.573  16.961  0.00  0.00    +0.000 NA
ATOM      3  C   UNL     1       6.786   4.963  16.377  0.00  0.00    +0.000 A 
ATOM      4  N   UNL     1       7.690   4.505  17.259  0.00  0.00    +0.000 NA
ATOM      5  O   UNL     1       7.124   4.803  18.500  0.00  0.00    +0.000 OA
ENDROOT
BRANCH   3   6
ATOM      6  C   UNL     1       6.861   4.759  14.932  0.00  0.00    +0.000 A 
ATOM      7  C   UNL     1       6.017   3.818  14.316  0.00  0.00    +0.000 A 
ATOM      8  C   UNL     1       6.117   3.557  12.949  0.00  0.00    +0.000 A 
ATOM      9  C   UNL     1       7.059   4.239  12.190  0.00  0.00    +0.000 A 
ATOM     10  F   UNL     1       7.164   3.979  10.880  0.00  0.00    +0.000 F 
ATOM     11  C   UNL     1       7.897   5.183  12.772  0.00  0.00    +0.000 A 
ATOM     12  C   UNL     1       7.798   5.446  14.142  0.00  0.00    +0.000 A 
ENDBRANCH   3   6
BRANCH   1  13
ATOM     13  C   UNL     1       5.012   5.621  19.398  0.00  0.00    +0.000 C 
BRANCH  13  23
ATOM     14  C   UNL     1       2.397   7.284  19.771  0.00  0.00    +0.000 C 
ATOM     15  C   UNL     1       2.503   5.789  20.017  0.00  0.00    +0.000 C 
ATOM     16  C   UNL     1       1.247   5.036  19.499  0.00  0.00    +0.000 C 
ATOM     17  C   UNL     1       1.853   3.712  19.157  0.00  0.00    +0.000 A 
ATOM     18  C   UNL     1       1.208   2.518  18.883  0.00  0.00    +0.000 A 
ATOM     19  C   UNL     1       1.994   1.412  18.564  0.00  0.00    +0.000 A 
ATOM     20  C   UNL     1       3.392   1.524  18.521  0.00  0.00    +0.000 A 
ATOM     21  C   UNL     1       4.022   2.752  18.771  0.00  0.00    +0.000 A 
ATOM     22  C   UNL     1       3.246   3.849  19.084  0.00  0.00    +0.000 A 
ATOM     23  N   UNL     1       3.635   5.165  19.313  0.00  0.00    +0.000 N 
ENDBRANCH  13  23
ENDBRANCH   1  13
TORSDOF 3
ENDMDL
