MODEL 1
REMARK VINA RESULT:      -7.6      0.000      0.000
REMARK  Name = 
REMARK  13 active torsions:
REMARK  status: ('A' for Active; 'I' for Inactive)
REMARK    1  A    between atoms: C_1  and  C_2
REMARK    2  A    between atoms: N_4  and  C_5
REMARK    3  A    between atoms: C_5  and  C_6
REMARK    4  A    between atoms: C_6  and  C_7
REMARK    5  A    between atoms: C_15  and  N_16
REMARK    6  A    between atoms: C_17  and  C_19
REMARK    7  A    between atoms: C_19  and  C_20
REMARK    8  A    between atoms: C_20  and  C_21
REMARK    9  A    between atoms: C_21  and  N_22
REMARK   10  A    between atoms: N_22  and  C_23
REMARK   11  A    between atoms: N_22  and  C_24
REMARK   12  A    between atoms: C_26  and  C_27
REMARK   13  A    between atoms: C_31  and  O_32
REMARK                            x       y       z     vdW  Elec       q    Type
REMARK                         _______ _______ _______ _____ _____    ______ ____
ROOT
ATOM      1  C   UNL     1       0.543   9.582  23.272  0.00  0.00    +0.000 C 
ATOM      2  C   UNL     1       0.102   9.455  21.798  0.00  0.00    +0.000 C 
ATOM      3  C   UNL     1       1.239   8.728  21.037  0.00  0.00    +0.000 C 
ATOM      4  N   UNL     1       1.473   9.111  19.658  0.00  0.00    +0.000 NA
ATOM      5  C   UNL     1       1.249  10.472  19.226  0.00  0.00    +0.000 C 
ATOM      6  C   UNL     1       0.170  10.594  18.151  0.00  0.00    +0.000 C 
ATOM      7  C   UNL     1      -1.233  10.255  18.635  0.00  0.00    +0.000 C 
ATOM      8  C   UNL     1      -1.488  10.562  20.112  0.00  0.00    +0.000 C 
ATOM      9  C   UNL     1      -0.339  10.802  21.141  0.00  0.00    +0.000 C 
ATOM     10  C   UNL     1       0.852  11.399  20.378  0.00  0.00    +0.000 C 
ENDROOT
BRANCH   9  11
ATOM     11  C   UNL     1      -0.963  11.791  22.172  0.00  0.00    +0.000 A 
ATOM     12  C   UNL     1      -0.456  13.082  22.395  0.00  0.00    +0.000 A 
ATOM     13  C   UNL     1      -1.126  13.987  23.223  0.00  0.00    +0.000 A 
ATOM     14  C   UNL     1      -2.322  13.629  23.839  0.00  0.00    +0.000 A 
ATOM     15  C   UNL     1      -2.840  12.359  23.625  0.00  0.00    +0.000 A 
ATOM     16  C   UNL     1      -2.170  11.446  22.822  0.00  0.00    +0.000 A 
BRANCH  15  17
ATOM     17  O   UNL     1      -4.030  11.976  24.171  0.00  0.00    +0.000 OA
ATOM     18  H   UNL     1      -3.955  11.043  24.429  0.00  0.00    +0.000 HD
ENDBRANCH  15  17
ENDBRANCH   9  11
BRANCH   7  19
ATOM     19  N   UNL     1      -2.187  10.901  17.698  0.00  0.00    +0.000 N 
ATOM     20  C   UNL     1      -3.422  10.436  17.292  0.00  0.00    +0.000 C 
ATOM     21  O   UNL     1      -3.886   9.318  17.471  0.00  0.00    +0.000 OA
ATOM     22  H   UNL     1      -1.977  11.866  17.464  0.00  0.00    +0.000 HD
BRANCH  20  23
ATOM     23  C   UNL     1      -4.285  11.453  16.593  0.00  0.00    +0.000 C 
BRANCH  23  24
ATOM     24  C   UNL     1      -5.142  12.179  17.634  0.00  0.00    +0.000 C 
BRANCH  24  25
ATOM     25  C   UNL     1      -6.542  11.571  17.797  0.00  0.00    +0.000 C 
BRANCH  25  26
ATOM     26  N   UNL     1      -6.909  11.296  19.194  0.00  0.00    +0.000 NA
ATOM     27  C   UNL     1      -6.992   9.851  19.451  0.00  0.00    +0.000 C 
ATOM     28  C   UNL     1      -5.942  11.900  20.105  0.00  0.00    +0.000 C 
ENDBRANCH  25  26
ENDBRANCH  24  25
ENDBRANCH  23  24
ENDBRANCH  20  23
ENDBRANCH   7  19
BRANCH   4  29
ATOM     29  C   UNL     1       1.757   8.022  18.731  0.00  0.00    +0.000 C 
BRANCH  29  30
ATOM     30  C   UNL     1       2.718   6.873  19.130  0.00  0.00    +0.000 C 
BRANCH  30  31
ATOM     31  C   UNL     1       2.065   5.516  19.211  0.00  0.00    +0.000 A 
ATOM     32  C   UNL     1       1.615   5.042  20.445  0.00  0.00    +0.000 A 
ATOM     33  C   UNL     1       1.083   3.762  20.556  0.00  0.00    +0.000 A 
ATOM     34  C   UNL     1       0.997   2.945  19.427  0.00  0.00    +0.000 A 
ATOM     35  C   UNL     1       1.415   3.411  18.184  0.00  0.00    +0.000 A 
ATOM     36  C   UNL     1       1.943   4.711  18.077  0.00  0.00    +0.000 A 
ENDBRANCH  30  31
ENDBRANCH  29  30
ENDBRANCH   4  29
TORSDOF 10
ENDMDL
MODEL 2
REMARK VINA RESULT:      -7.5      6.665     10.696
REMARK  Name = 
REMARK  13 active torsions:
REMARK  status: ('A' for Active; 'I' for Inactive)
REMARK    1  A    between atoms: C_1  and  C_2
REMARK    2  A    between atoms: N_4  and  C_5
REMARK    3  A    between atoms: C_5  and  C_6
REMARK    4  A    between atoms: C_6  and  C_7
REMARK    5  A    between atoms: C_15  and  N_16
REMARK    6  A    between atoms: C_17  and  C_19
REMARK    7  A    between atoms: C_19  and  C_20
REMARK    8  A    between atoms: C_20  and  C_21
REMARK    9  A    between atoms: C_21  and  N_22
REMARK   10  A    between atoms: N_22  and  C_23
REMARK   11  A    between atoms: N_22  and  C_24
REMARK   12  A    between atoms: C_26  and  C_27
REMARK   13  A    between atoms: C_31  and  O_32
REMARK                            x       y       z     vdW  Elec       q    Type
REMARK                         _______ _______ _______ _____ _____    ______ ____
ROOT
ATOM      1  C   UNL     1       2.912   3.633  17.128  0.00  0.00    +0.000 C 
ATOM      2  C   UNL     1       4.045   4.603  16.730  0.00  0.00    +0.000 C 
ATOM      3  C   UNL     1       5.082   3.790  15.915  0.00  0.00    +0.000 C 
ATOM      4  N   UNL     1       6.479   4.154  16.055  0.00  0.00    +0.000 NA
ATOM      5  C   UNL     1       6.983   4.662  17.312  0.00  0.00    +0.000 C 
ATOM      6  C   UNL     1       7.536   6.083  17.210  0.00  0.00    +0.000 C 
ATOM      7  C   UNL     1       6.483   7.143  16.919  0.00  0.00    +0.000 C 
ATOM      8  C   UNL     1       5.092   6.827  17.474  0.00  0.00    +0.000 C 
ATOM      9  C   UNL     1       4.663   5.396  17.926  0.00  0.00    +0.000 C 
ATOM     10  C   UNL     1       5.921   4.664  18.415  0.00  0.00    +0.000 C 
ENDROOT
BRANCH   9  11
ATOM     11  C   UNL     1       3.628   5.660  19.062  0.00  0.00    +0.000 A 
ATOM     12  C   UNL     1       2.854   6.830  19.133  0.00  0.00    +0.000 A 
ATOM     13  C   UNL     1       1.840   6.968  20.085  0.00  0.00    +0.000 A 
ATOM     14  C   UNL     1       1.568   5.938  20.981  0.00  0.00    +0.000 A 
ATOM     15  C   UNL     1       2.320   4.773  20.923  0.00  0.00    +0.000 A 
ATOM     16  C   UNL     1       3.345   4.636  19.995  0.00  0.00    +0.000 A 
BRANCH  15  17
ATOM     17  O   UNL     1       2.064   3.719  21.750  0.00  0.00    +0.000 OA
ATOM     18  H   UNL     1       2.796   3.087  21.667  0.00  0.00    +0.000 HD
ENDBRANCH  15  17
ENDBRANCH   9  11
BRANCH   7  19
ATOM     19  N   UNL     1       7.041   8.446  17.361  0.00  0.00    +0.000 N 
ATOM     20  C   UNL     1       8.118   8.667  18.195  0.00  0.00    +0.000 C 
ATOM     21  O   UNL     1       8.701   7.840  18.885  0.00  0.00    +0.000 OA
ATOM     22  H   UNL     1       6.693   9.257  16.861  0.00  0.00    +0.000 HD
BRANCH  20  23
ATOM     23  C   UNL     1       8.636  10.081  18.203  0.00  0.00    +0.000 C 
BRANCH  23  24
ATOM     24  C   UNL     1       9.466  10.300  19.471  0.00  0.00    +0.000 C 
BRANCH  24  25
ATOM     25  C   UNL     1       9.545  11.773  19.897  0.00  0.00    +0.000 C 
BRANCH  25  26
ATOM     26  N   UNL     1      10.903  12.214  20.250  0.00  0.00    +0.000 NA
ATOM     27  C   UNL     1      11.895  11.721  19.284  0.00  0.00    +0.000 C 
ATOM     28  C   UNL     1      10.966  13.672  20.315  0.00  0.00    +0.000 C 
ENDBRANCH  25  26
ENDBRANCH  24  25
ENDBRANCH  23  24
ENDBRANCH  20  23
ENDBRANCH   7  19
BRANCH   4  29
ATOM     29  C   UNL     1       7.268   4.150  14.829  0.00  0.00    +0.000 C 
BRANCH  29  30
ATOM     30  C   UNL     1       6.675   4.692  13.503  0.00  0.00    +0.000 C 
BRANCH  30  31
ATOM     31  C   UNL     1       6.321   3.625  12.498  0.00  0.00    +0.000 A 
ATOM     32  C   UNL     1       4.987   3.446  12.125  0.00  0.00    +0.000 A 
ATOM     33  C   UNL     1       4.630   2.416  11.261  0.00  0.00    +0.000 A 
ATOM     34  C   UNL     1       5.611   1.557  10.762  0.00  0.00    +0.000 A 
ATOM     35  C   UNL     1       6.949   1.737  11.101  0.00  0.00    +0.000 A 
ATOM     36  C   UNL     1       7.305   2.787  11.967  0.00  0.00    +0.000 A 
ENDBRANCH  30  31
ENDBRANCH  29  30
ENDBRANCH   4  29
TORSDOF 10
ENDMDL
MODEL 3
REMARK VINA RESULT:      -7.4      1.099      1.745
REMARK  Name = 
REMARK  13 active torsions:
REMARK  status: ('A' for Active; 'I' for Inactive)
REMARK    1  A    between atoms: C_1  and  C_2
REMARK    2  A    between atoms: N_4  and  C_5
REMARK    3  A    between atoms: C_5  and  C_6
REMARK    4  A    between atoms: C_6  and  C_7
REMARK    5  A    between atoms: C_15  and  N_16
REMARK    6  A    between atoms: C_17  and  C_19
REMARK    7  A    between atoms: C_19  and  C_20
REMARK    8  A    between atoms: C_20  and  C_21
REMARK    9  A    between atoms: C_21  and  N_22
REMARK   10  A    between atoms: N_22  and  C_23
REMARK   11  A    between atoms: N_22  and  C_24
REMARK   12  A    between atoms: C_26  and  C_27
REMARK   13  A    between atoms: C_31  and  O_32
REMARK                            x       y       z     vdW  Elec       q    Type
REMARK                         _______ _______ _______ _____ _____    ______ ____
ROOT
ATOM      1  C   UNL     1       0.036   9.679  23.358  0.00  0.00    +0.000 C 
ATOM      2  C   UNL     1      -0.178   9.506  21.839  0.00  0.00    +0.000 C 
ATOM      3  C   UNL     1       0.996   8.648  21.303  0.00  0.00    +0.000 C 
ATOM      4  N   UNL     1       1.476   8.932  19.965  0.00  0.00    +0.000 NA
ATOM      5  C   UNL     1       1.445  10.281  19.445  0.00  0.00    +0.000 C 
ATOM      6  C   UNL     1       0.563  10.429  18.206  0.00  0.00    +0.000 C 
ATOM      7  C   UNL     1      -0.923  10.232  18.470  0.00  0.00    +0.000 C 
ATOM      8  C   UNL     1      -1.378  10.641  19.873  0.00  0.00    +0.000 C 
ATOM      9  C   UNL     1      -0.388  10.845  21.063  0.00  0.00    +0.000 C 
ATOM     10  C   UNL     1       0.956  11.300  20.477  0.00  0.00    +0.000 C 
ENDROOT
BRANCH   9  11
ATOM     11  C   UNL     1      -1.077  11.938  21.936  0.00  0.00    +0.000 A 
ATOM     12  C   UNL     1      -2.326  11.748  22.550  0.00  0.00    +0.000 A 
ATOM     13  C   UNL     1      -2.844  12.696  23.438  0.00  0.00    +0.000 A 
ATOM     14  C   UNL     1      -2.124  13.849  23.740  0.00  0.00    +0.000 A 
ATOM     15  C   UNL     1      -0.887  14.049  23.146  0.00  0.00    +0.000 A 
ATOM     16  C   UNL     1      -0.374  13.124  22.246  0.00  0.00    +0.000 A 
BRANCH  15  17
ATOM     17  O   UNL     1      -0.124  15.141  23.442  0.00  0.00    +0.000 OA
ATOM     18  H   UNL     1       0.585  14.858  24.042  0.00  0.00    +0.000 HD
ENDBRANCH  15  17
ENDBRANCH   9  11
BRANCH   7  19
ATOM     19  N   UNL     1      -1.656  10.899  17.366  0.00  0.00    +0.000 N 
ATOM     20  C   UNL     1      -2.482  10.318  16.425  0.00  0.00    +0.000 C 
ATOM     21  O   UNL     1      -2.617   9.122  16.198  0.00  0.00    +0.000 OA
ATOM     22  H   UNL     1      -1.682  11.912  17.414  0.00  0.00    +0.000 HD
BRANCH  20  23
ATOM     23  C   UNL     1      -3.326  11.284  15.637  0.00  0.00    +0.000 C 
BRANCH  23  24
ATOM     24  C   UNL     1      -4.706  11.388  16.292  0.00  0.00    +0.000 C 
BRANCH  24  25
ATOM     25  C   UNL     1      -4.678  12.091  17.657  0.00  0.00    +0.000 C 
BRANCH  25  26
ATOM     26  N   UNL     1      -5.379  11.351  18.717  0.00  0.00    +0.000 NA
ATOM     27  C   UNL     1      -5.448  12.133  19.960  0.00  0.00    +0.000 C 
ATOM     28  C   UNL     1      -6.728  10.996  18.286  0.00  0.00    +0.000 C 
ENDBRANCH  25  26
ENDBRANCH  24  25
ENDBRANCH  23  24
ENDBRANCH  20  23
ENDBRANCH   7  19
BRANCH   4  29
ATOM     29  C   UNL     1       1.805   7.774  19.144  0.00  0.00    +0.000 C 
BRANCH  29  30
ATOM     30  C   UNL     1       2.708   6.641  19.696  0.00  0.00    +0.000 C 
BRANCH  30  31
ATOM     31  C   UNL     1       2.129   5.257  19.551  0.00  0.00    +0.000 A 
ATOM     32  C   UNL     1       2.014   4.687  18.281  0.00  0.00    +0.000 A 
ATOM     33  C   UNL     1       1.410   3.445  18.118  0.00  0.00    +0.000 A 
ATOM     34  C   UNL     1       0.915   2.763  19.231  0.00  0.00    +0.000 A 
ATOM     35  C   UNL     1       1.045   3.301  20.507  0.00  0.00    +0.000 A 
ATOM     36  C   UNL     1       1.667   4.554  20.666  0.00  0.00    +0.000 A 
ENDBRANCH  30  31
ENDBRANCH  29  30
ENDBRANCH   4  29
TORSDOF 10
ENDMDL
MODEL 4
REMARK VINA RESULT:      -7.3      6.650     10.535
REMARK  Name = 
REMARK  13 active torsions:
REMARK  status: ('A' for Active; 'I' for Inactive)
REMARK    1  A    between atoms: C_1  and  C_2
REMARK    2  A    between atoms: N_4  and  C_5
REMARK    3  A    between atoms: C_5  and  C_6
REMARK    4  A    between atoms: C_6  and  C_7
REMARK    5  A    between atoms: C_15  and  N_16
REMARK    6  A    between atoms: C_17  and  C_19
REMARK    7  A    between atoms: C_19  and  C_20
REMARK    8  A    between atoms: C_20  and  C_21
REMARK    9  A    between atoms: C_21  and  N_22
REMARK   10  A    between atoms: N_22  and  C_23
REMARK   11  A    between atoms: N_22  and  C_24
REMARK   12  A    between atoms: C_26  and  C_27
REMARK   13  A    between atoms: C_31  and  O_32
REMARK                            x       y       z     vdW  Elec       q    Type
REMARK                         _______ _______ _______ _____ _____    ______ ____
ROOT
ATOM      1  C   UNL     1       2.864   3.562  17.199  0.00  0.00    +0.000 C 
ATOM      2  C   UNL     1       3.993   4.523  16.770  0.00  0.00    +0.000 C 
ATOM      3  C   UNL     1       5.025   3.692  15.966  0.00  0.00    +0.000 C 
ATOM      4  N   UNL     1       6.422   4.062  16.086  0.00  0.00    +0.000 NA
ATOM      5  C   UNL     1       6.935   4.601  17.326  0.00  0.00    +0.000 C 
ATOM      6  C   UNL     1       7.485   6.020  17.186  0.00  0.00    +0.000 C 
ATOM      7  C   UNL     1       6.428   7.071  16.879  0.00  0.00    +0.000 C 
ATOM      8  C   UNL     1       5.042   6.766  17.452  0.00  0.00    +0.000 C 
ATOM      9  C   UNL     1       4.618   5.345  17.942  0.00  0.00    +0.000 C 
ATOM     10  C   UNL     1       5.882   4.628  18.438  0.00  0.00    +0.000 C 
ENDROOT
BRANCH   9  11
ATOM     11  C   UNL     1       3.592   5.635  19.079  0.00  0.00    +0.000 A 
ATOM     12  C   UNL     1       2.813   6.803  19.125  0.00  0.00    +0.000 A 
ATOM     13  C   UNL     1       1.807   6.961  20.082  0.00  0.00    +0.000 A 
ATOM     14  C   UNL     1       1.547   5.955  21.008  0.00  0.00    +0.000 A 
ATOM     15  C   UNL     1       2.304   4.792  20.974  0.00  0.00    +0.000 A 
ATOM     16  C   UNL     1       3.322   4.635  20.041  0.00  0.00    +0.000 A 
BRANCH  15  17
ATOM     17  O   UNL     1       2.061   3.760  21.831  0.00  0.00    +0.000 OA
ATOM     18  H   UNL     1       1.795   4.135  22.686  0.00  0.00    +0.000 HD
ENDBRANCH  15  17
ENDBRANCH   9  11
BRANCH   7  19
ATOM     19  N   UNL     1       6.986   8.385  17.285  0.00  0.00    +0.000 N 
ATOM     20  C   UNL     1       8.063   8.628  18.114  0.00  0.00    +0.000 C 
ATOM     21  O   UNL     1       8.643   7.820  18.828  0.00  0.00    +0.000 OA
ATOM     22  H   UNL     1       6.641   9.182  16.761  0.00  0.00    +0.000 HD
BRANCH  20  23
ATOM     23  C   UNL     1       8.582  10.041  18.083  0.00  0.00    +0.000 C 
BRANCH  23  24
ATOM     24  C   UNL     1       9.389  10.303  19.358  0.00  0.00    +0.000 C 
BRANCH  24  25
ATOM     25  C   UNL     1       9.411  11.782  19.768  0.00  0.00    +0.000 C 
BRANCH  25  26
ATOM     26  N   UNL     1      10.413  12.581  19.047  0.00  0.00    +0.000 NA
ATOM     27  C   UNL     1       9.779  13.616  18.219  0.00  0.00    +0.000 C 
ATOM     28  C   UNL     1      11.341  13.206  19.986  0.00  0.00    +0.000 C 
ENDBRANCH  25  26
ENDBRANCH  24  25
ENDBRANCH  23  24
ENDBRANCH  20  23
ENDBRANCH   7  19
BRANCH   4  29
ATOM     29  C   UNL     1       7.201   4.030  14.855  0.00  0.00    +0.000 C 
BRANCH  29  30
ATOM     30  C   UNL     1       6.646   4.654  13.549  0.00  0.00    +0.000 C 
BRANCH  30  31
ATOM     31  C   UNL     1       6.003   3.664  12.611  0.00  0.00    +0.000 A 
ATOM     32  C   UNL     1       6.759   2.607  12.102  0.00  0.00    +0.000 A 
ATOM     33  C   UNL     1       6.208   1.729  11.174  0.00  0.00    +0.000 A 
ATOM     34  C   UNL     1       4.890   1.907  10.748  0.00  0.00    +0.000 A 
ATOM     35  C   UNL     1       4.112   2.939  11.265  0.00  0.00    +0.000 A 
ATOM     36  C   UNL     1       4.672   3.816  12.212  0.00  0.00    +0.000 A 
ENDBRANCH  30  31
ENDBRANCH  29  30
ENDBRANCH   4  29
TORSDOF 10
ENDMDL
MODEL 5
REMARK VINA RESULT:      -7.2      6.272     10.413
REMARK  Name = 
REMARK  13 active torsions:
REMARK  status: ('A' for Active; 'I' for Inactive)
REMARK    1  A    between atoms: C_1  and  C_2
REMARK    2  A    between atoms: N_4  and  C_5
REMARK    3  A    between atoms: C_5  and  C_6
REMARK    4  A    between atoms: C_6  and  C_7
REMARK    5  A    between atoms: C_15  and  N_16
REMARK    6  A    between atoms: C_17  and  C_19
REMARK    7  A    between atoms: C_19  and  C_20
REMARK    8  A    between atoms: C_20  and  C_21
REMARK    9  A    between atoms: C_21  and  N_22
REMARK   10  A    between atoms: N_22  and  C_23
REMARK   11  A    between atoms: N_22  and  C_24
REMARK   12  A    between atoms: C_26  and  C_27
REMARK   13  A    between atoms: C_31  and  O_32
REMARK                            x       y       z     vdW  Elec       q    Type
REMARK                         _______ _______ _______ _____ _____    ______ ____
ROOT
ATOM      1  C   UNL     1       2.637   3.723  17.164  0.00  0.00    +0.000 C 
ATOM      2  C   UNL     1       3.831   4.615  16.765  0.00  0.00    +0.000 C 
ATOM      3  C   UNL     1       4.884   3.701  16.088  0.00  0.00    +0.000 C 
ATOM      4  N   UNL     1       6.283   4.027  16.289  0.00  0.00    +0.000 NA
ATOM      5  C   UNL     1       6.726   4.620  17.531  0.00  0.00    +0.000 C 
ATOM      6  C   UNL     1       7.342   6.007  17.351  0.00  0.00    +0.000 C 
ATOM      7  C   UNL     1       6.353   7.075  16.907  0.00  0.00    +0.000 C 
ATOM      8  C   UNL     1       4.918   6.856  17.393  0.00  0.00    +0.000 C 
ATOM      9  C   UNL     1       4.404   5.483  17.931  0.00  0.00    +0.000 C 
ATOM     10  C   UNL     1       5.599   4.751  18.559  0.00  0.00    +0.000 C 
ENDROOT
BRANCH   9  11
ATOM     11  C   UNL     1       3.312   5.877  18.971  0.00  0.00    +0.000 A 
ATOM     12  C   UNL     1       2.977   5.068  20.069  0.00  0.00    +0.000 A 
ATOM     13  C   UNL     1       2.094   5.519  21.054  0.00  0.00    +0.000 A 
ATOM     14  C   UNL     1       1.534   6.791  20.973  0.00  0.00    +0.000 A 
ATOM     15  C   UNL     1       1.858   7.606  19.897  0.00  0.00    +0.000 A 
ATOM     16  C   UNL     1       2.716   7.157  18.901  0.00  0.00    +0.000 A 
BRANCH  15  17
ATOM     17  O   UNL     1       1.370   8.875  19.794  0.00  0.00    +0.000 OA
ATOM     18  H   UNL     1       0.942   9.102  20.635  0.00  0.00    +0.000 HD
ENDBRANCH  15  17
ENDBRANCH   9  11
BRANCH   7  19
ATOM     19  N   UNL     1       6.934   8.390  17.277  0.00  0.00    +0.000 N 
ATOM     20  C   UNL     1       8.026   8.637  18.083  0.00  0.00    +0.000 C 
ATOM     21  O   UNL     1       8.609   7.836  18.804  0.00  0.00    +0.000 OA
ATOM     22  H   UNL     1       6.588   9.181  16.743  0.00  0.00    +0.000 HD
BRANCH  20  23
ATOM     23  C   UNL     1       8.562  10.042  18.016  0.00  0.00    +0.000 C 
BRANCH  23  24
ATOM     24  C   UNL     1       9.305  10.355  19.317  0.00  0.00    +0.000 C 
BRANCH  24  25
ATOM     25  C   UNL     1      10.539  11.245  19.112  0.00  0.00    +0.000 C 
BRANCH  25  26
ATOM     26  N   UNL     1      10.244  12.685  19.155  0.00  0.00    +0.000 NA
ATOM     27  C   UNL     1      11.180  13.398  20.037  0.00  0.00    +0.000 C 
ATOM     28  C   UNL     1      10.301  13.259  17.814  0.00  0.00    +0.000 C 
ENDBRANCH  25  26
ENDBRANCH  24  25
ENDBRANCH  23  24
ENDBRANCH  20  23
ENDBRANCH   7  19
BRANCH   4  29
ATOM     29  C   UNL     1       7.145   3.893  15.123  0.00  0.00    +0.000 C 
BRANCH  29  30
ATOM     30  C   UNL     1       6.778   4.579  13.782  0.00  0.00    +0.000 C 
BRANCH  30  31
ATOM     31  C   UNL     1       6.090   3.677  12.789  0.00  0.00    +0.000 A 
ATOM     32  C   UNL     1       6.809   2.645  12.183  0.00  0.00    +0.000 A 
ATOM     33  C   UNL     1       6.216   1.852  11.206  0.00  0.00    +0.000 A 
ATOM     34  C   UNL     1       4.893   2.089  10.829  0.00  0.00    +0.000 A 
ATOM     35  C   UNL     1       4.151   3.095  11.442  0.00  0.00    +0.000 A 
ATOM     36  C   UNL     1       4.754   3.886  12.437  0.00  0.00    +0.000 A 
ENDBRANCH  30  31
ENDBRANCH  29  30
ENDBRANCH   4  29
TORSDOF 10
ENDMDL
MODEL 6
REMARK VINA RESULT:      -7.2      6.318     10.417
REMARK  Name = 
REMARK  13 active torsions:
REMARK  status: ('A' for Active; 'I' for Inactive)
REMARK    1  A    between atoms: C_1  and  C_2
REMARK    2  A    between atoms: N_4  and  C_5
REMARK    3  A    between atoms: C_5  and  C_6
REMARK    4  A    between atoms: C_6  and  C_7
REMARK    5  A    between atoms: C_15  and  N_16
REMARK    6  A    between atoms: C_17  and  C_19
REMARK    7  A    between atoms: C_19  and  C_20
REMARK    8  A    between atoms: C_20  and  C_21
REMARK    9  A    between atoms: C_21  and  N_22
REMARK   10  A    between atoms: N_22  and  C_23
REMARK   11  A    between atoms: N_22  and  C_24
REMARK   12  A    between atoms: C_26  and  C_27
REMARK   13  A    between atoms: C_31  and  O_32
REMARK                            x       y       z     vdW  Elec       q    Type
REMARK                         _______ _______ _______ _____ _____    ______ ____
ROOT
ATOM      1  C   UNL     1       2.702   3.658  17.134  0.00  0.00    +0.000 C 
ATOM      2  C   UNL     1       3.873   4.579  16.727  0.00  0.00    +0.000 C 
ATOM      3  C   UNL     1       4.941   3.690  16.040  0.00  0.00    +0.000 C 
ATOM      4  N   UNL     1       6.333   4.048  16.231  0.00  0.00    +0.000 NA
ATOM      5  C   UNL     1       6.773   4.648  17.471  0.00  0.00    +0.000 C 
ATOM      6  C   UNL     1       7.355   6.049  17.290  0.00  0.00    +0.000 C 
ATOM      7  C   UNL     1       6.338   7.096  16.856  0.00  0.00    +0.000 C 
ATOM      8  C   UNL     1       4.913   6.842  17.353  0.00  0.00    +0.000 C 
ATOM      9  C   UNL     1       4.435   5.457  17.891  0.00  0.00    +0.000 C 
ATOM     10  C   UNL     1       5.651   4.751  18.508  0.00  0.00    +0.000 C 
ENDROOT
BRANCH   9  11
ATOM     11  C   UNL     1       3.342   5.823  18.941  0.00  0.00    +0.000 A 
ATOM     12  C   UNL     1       3.016   4.991  20.025  0.00  0.00    +0.000 A 
ATOM     13  C   UNL     1       2.132   5.418  21.020  0.00  0.00    +0.000 A 
ATOM     14  C   UNL     1       1.562   6.686  20.963  0.00  0.00    +0.000 A 
ATOM     15  C   UNL     1       1.877   7.523  19.902  0.00  0.00    +0.000 A 
ATOM     16  C   UNL     1       2.736   7.100  18.896  0.00  0.00    +0.000 A 
BRANCH  15  17
ATOM     17  O   UNL     1       1.379   8.790  19.823  0.00  0.00    +0.000 OA
ATOM     18  H   UNL     1       0.522   8.749  19.368  0.00  0.00    +0.000 HD
ENDBRANCH  15  17
ENDBRANCH   9  11
BRANCH   7  19
ATOM     19  N   UNL     1       6.892   8.423  17.225  0.00  0.00    +0.000 N 
ATOM     20  C   UNL     1       7.976   8.693  18.035  0.00  0.00    +0.000 C 
ATOM     21  O   UNL     1       8.572   7.906  18.760  0.00  0.00    +0.000 OA
ATOM     22  H   UNL     1       6.533   9.206  16.688  0.00  0.00    +0.000 HD
BRANCH  20  23
ATOM     23  C   UNL     1       8.484  10.109  17.966  0.00  0.00    +0.000 C 
BRANCH  23  24
ATOM     24  C   UNL     1       9.350  10.388  19.197  0.00  0.00    +0.000 C 
BRANCH  24  25
ATOM     25  C   UNL     1      10.539  11.314  18.905  0.00  0.00    +0.000 C 
BRANCH  25  26
ATOM     26  N   UNL     1      10.330  12.702  19.345  0.00  0.00    +0.000 NA
ATOM     27  C   UNL     1       9.197  12.803  20.277  0.00  0.00    +0.000 C 
ATOM     28  C   UNL     1      11.536  13.224  19.981  0.00  0.00    +0.000 C 
ENDBRANCH  25  26
ENDBRANCH  24  25
ENDBRANCH  23  24
ENDBRANCH  20  23
ENDBRANCH   7  19
BRANCH   4  29
ATOM     29  C   UNL     1       7.189   3.937  15.058  0.00  0.00    +0.000 C 
BRANCH  29  30
ATOM     30  C   UNL     1       6.797   4.620  13.723  0.00  0.00    +0.000 C 
BRANCH  30  31
ATOM     31  C   UNL     1       6.339   3.668  12.647  0.00  0.00    +0.000 A 
ATOM     32  C   UNL     1       4.982   3.596  12.324  0.00  0.00    +0.000 A 
ATOM     33  C   UNL     1       4.529   2.668  11.392  0.00  0.00    +0.000 A 
ATOM     34  C   UNL     1       5.435   1.804  10.775  0.00  0.00    +0.000 A 
ATOM     35  C   UNL     1       6.794   1.880  11.064  0.00  0.00    +0.000 A 
ATOM     36  C   UNL     1       7.248   2.828  12.000  0.00  0.00    +0.000 A 
ENDBRANCH  30  31
ENDBRANCH  29  30
ENDBRANCH   4  29
TORSDOF 10
ENDMDL
MODEL 7
REMARK VINA RESULT:      -7.1      1.126      1.490
REMARK  Name = 
REMARK  13 active torsions:
REMARK  status: ('A' for Active; 'I' for Inactive)
REMARK    1  A    between atoms: C_1  and  C_2
REMARK    2  A    between atoms: N_4  and  C_5
REMARK    3  A    between atoms: C_5  and  C_6
REMARK    4  A    between atoms: C_6  and  C_7
REMARK    5  A    between atoms: C_15  and  N_16
REMARK    6  A    between atoms: C_17  and  C_19
REMARK    7  A    between atoms: C_19  and  C_20
REMARK    8  A    between atoms: C_20  and  C_21
REMARK    9  A    between atoms: C_21  and  N_22
REMARK   10  A    between atoms: N_22  and  C_23
REMARK   11  A    between atoms: N_22  and  C_24
REMARK   12  A    between atoms: C_26  and  C_27
REMARK   13  A    between atoms: C_31  and  O_32
REMARK                            x       y       z     vdW  Elec       q    Type
REMARK                         _______ _______ _______ _____ _____    ______ ____
ROOT
ATOM      1  C   UNL     1       0.679   9.380  22.919  0.00  0.00    +0.000 C 
ATOM      2  C   UNL     1       0.231   9.309  21.443  0.00  0.00    +0.000 C 
ATOM      3  C   UNL     1       1.327   8.537  20.666  0.00  0.00    +0.000 C 
ATOM      4  N   UNL     1       1.582   8.934  19.295  0.00  0.00    +0.000 NA
ATOM      5  C   UNL     1       1.434  10.315  18.892  0.00  0.00    +0.000 C 
ATOM      6  C   UNL     1       0.364  10.519  17.821  0.00  0.00    +0.000 C 
ATOM      7  C   UNL     1      -1.056  10.248  18.298  0.00  0.00    +0.000 C 
ATOM      8  C   UNL     1      -1.294  10.538  19.782  0.00  0.00    +0.000 C 
ATOM      9  C   UNL     1      -0.133  10.692  20.815  0.00  0.00    +0.000 C 
ATOM     10  C   UNL     1       1.089  11.238  20.063  0.00  0.00    +0.000 C 
ENDROOT
BRANCH   9  11
ATOM     11  C   UNL     1      -0.702  11.692  21.867  0.00  0.00    +0.000 A 
ATOM     12  C   UNL     1      -0.168  12.976  22.066  0.00  0.00    +0.000 A 
ATOM     13  C   UNL     1      -0.792  13.892  22.917  0.00  0.00    +0.000 A 
ATOM     14  C   UNL     1      -1.968  13.553  23.581  0.00  0.00    +0.000 A 
ATOM     15  C   UNL     1      -2.512  12.291  23.392  0.00  0.00    +0.000 A 
ATOM     16  C   UNL     1      -1.887  11.366  22.565  0.00  0.00    +0.000 A 
BRANCH  15  17
ATOM     17  O   UNL     1      -3.684  11.925  23.985  0.00  0.00    +0.000 OA
ATOM     18  H   UNL     1      -3.937  11.054  23.640  0.00  0.00    +0.000 HD
ENDBRANCH  15  17
ENDBRANCH   9  11
BRANCH   7  19
ATOM     19  N   UNL     1      -1.972  10.965  17.376  0.00  0.00    +0.000 N 
ATOM     20  C   UNL     1      -2.687  10.444  16.317  0.00  0.00    +0.000 C 
ATOM     21  O   UNL     1      -2.558   9.335  15.812  0.00  0.00    +0.000 OA
ATOM     22  H   UNL     1      -2.225  11.905  17.662  0.00  0.00    +0.000 HD
BRANCH  20  23
ATOM     23  C   UNL     1      -3.764  11.344  15.773  0.00  0.00    +0.000 C 
BRANCH  23  24
ATOM     24  C   UNL     1      -4.625  11.849  16.934  0.00  0.00    +0.000 C 
BRANCH  24  25
ATOM     25  C   UNL     1      -5.243  10.717  17.768  0.00  0.00    +0.000 C 
BRANCH  25  26
ATOM     26  N   UNL     1      -6.292  11.169  18.693  0.00  0.00    +0.000 NA
ATOM     27  C   UNL     1      -7.186  12.146  18.053  0.00  0.00    +0.000 C 
ATOM     28  C   UNL     1      -7.073  10.034  19.175  0.00  0.00    +0.000 C 
ENDBRANCH  25  26
ENDBRANCH  24  25
ENDBRANCH  23  24
ENDBRANCH  20  23
ENDBRANCH   7  19
BRANCH   4  29
ATOM     29  C   UNL     1       1.806   7.851  18.346  0.00  0.00    +0.000 C 
BRANCH  29  30
ATOM     30  C   UNL     1       3.237   7.325  18.067  0.00  0.00    +0.000 C 
BRANCH  30  31
ATOM     31  C   UNL     1       3.322   5.834  17.858  0.00  0.00    +0.000 A 
ATOM     32  C   UNL     1       2.156   5.067  17.883  0.00  0.00    +0.000 A 
ATOM     33  C   UNL     1       2.220   3.683  17.771  0.00  0.00    +0.000 A 
ATOM     34  C   UNL     1       3.460   3.054  17.634  0.00  0.00    +0.000 A 
ATOM     35  C   UNL     1       4.631   3.804  17.579  0.00  0.00    +0.000 A 
ATOM     36  C   UNL     1       4.557   5.205  17.681  0.00  0.00    +0.000 A 
ENDBRANCH  30  31
ENDBRANCH  29  30
ENDBRANCH   4  29
TORSDOF 10
ENDMDL
MODEL 8
REMARK VINA RESULT:      -7.1      4.582      8.227
REMARK  Name = 
REMARK  13 active torsions:
REMARK  status: ('A' for Active; 'I' for Inactive)
REMARK    1  A    between atoms: C_1  and  C_2
REMARK    2  A    between atoms: N_4  and  C_5
REMARK    3  A    between atoms: C_5  and  C_6
REMARK    4  A    between atoms: C_6  and  C_7
REMARK    5  A    between atoms: C_15  and  N_16
REMARK    6  A    between atoms: C_17  and  C_19
REMARK    7  A    between atoms: C_19  and  C_20
REMARK    8  A    between atoms: C_20  and  C_21
REMARK    9  A    between atoms: C_21  and  N_22
REMARK   10  A    between atoms: N_22  and  C_23
REMARK   11  A    between atoms: N_22  and  C_24
REMARK   12  A    between atoms: C_26  and  C_27
REMARK   13  A    between atoms: C_31  and  O_32
REMARK                            x       y       z     vdW  Elec       q    Type
REMARK                         _______ _______ _______ _____ _____    ______ ____
ROOT
ATOM      1  C   UNL     1       3.563   2.077  17.478  0.00  0.00    +0.000 C 
ATOM      2  C   UNL     1       3.663   3.557  17.051  0.00  0.00    +0.000 C 
ATOM      3  C   UNL     1       4.898   3.687  16.125  0.00  0.00    +0.000 C 
ATOM      4  N   UNL     1       5.653   4.924  16.184  0.00  0.00    +0.000 NA
ATOM      5  C   UNL     1       5.766   5.655  17.426  0.00  0.00    +0.000 C 
ATOM      6  C   UNL     1       5.164   7.058  17.357  0.00  0.00    +0.000 C 
ATOM      7  C   UNL     1       3.651   7.079  17.196  0.00  0.00    +0.000 C 
ATOM      8  C   UNL     1       2.926   5.890  17.831  0.00  0.00    +0.000 C 
ATOM      9  C   UNL     1       3.654   4.571  18.239  0.00  0.00    +0.000 C 
ATOM     10  C   UNL     1       5.103   4.931  18.601  0.00  0.00    +0.000 C 
ENDROOT
BRANCH   9  11
ATOM     11  C   UNL     1       2.830   4.054  19.458  0.00  0.00    +0.000 A 
ATOM     12  C   UNL     1       1.453   4.292  19.604  0.00  0.00    +0.000 A 
ATOM     13  C   UNL     1       0.724   3.694  20.636  0.00  0.00    +0.000 A 
ATOM     14  C   UNL     1       1.348   2.838  21.538  0.00  0.00    +0.000 A 
ATOM     15  C   UNL     1       2.706   2.588  21.405  0.00  0.00    +0.000 A 
ATOM     16  C   UNL     1       3.444   3.195  20.397  0.00  0.00    +0.000 A 
BRANCH  15  17
ATOM     17  O   UNL     1       3.355   1.723  22.237  0.00  0.00    +0.000 OA
ATOM     18  H   UNL     1       3.836   2.246  22.899  0.00  0.00    +0.000 HD
ENDBRANCH  15  17
ENDBRANCH   9  11
BRANCH   7  19
ATOM     19  N   UNL     1       3.180   8.408  17.662  0.00  0.00    +0.000 N 
ATOM     20  C   UNL     1       1.878   8.846  17.796  0.00  0.00    +0.000 C 
ATOM     21  O   UNL     1       0.867   8.298  17.376  0.00  0.00    +0.000 OA
ATOM     22  H   UNL     1       3.892   8.995  18.084  0.00  0.00    +0.000 HD
BRANCH  20  23
ATOM     23  C   UNL     1       1.714  10.117  18.587  0.00  0.00    +0.000 C 
BRANCH  23  24
ATOM     24  C   UNL     1       0.227  10.481  18.641  0.00  0.00    +0.000 C 
BRANCH  24  25
ATOM     25  C   UNL     1      -0.424  10.169  19.996  0.00  0.00    +0.000 C 
BRANCH  25  26
ATOM     26  N   UNL     1       0.346  10.658  21.149  0.00  0.00    +0.000 NA
ATOM     27  C   UNL     1      -0.165  11.951  21.626  0.00  0.00    +0.000 C 
ATOM     28  C   UNL     1       0.310   9.686  22.238  0.00  0.00    +0.000 C 
ENDBRANCH  25  26
ENDBRANCH  24  25
ENDBRANCH  23  24
ENDBRANCH  20  23
ENDBRANCH   7  19
BRANCH   4  29
ATOM     29  C   UNL     1       6.113   5.455  14.907  0.00  0.00    +0.000 C 
BRANCH  29  30
ATOM     30  C   UNL     1       7.064   4.631  14.003  0.00  0.00    +0.000 C 
BRANCH  30  31
ATOM     31  C   UNL     1       6.369   3.839  12.925  0.00  0.00    +0.000 A 
ATOM     32  C   UNL     1       5.003   4.025  12.707  0.00  0.00    +0.000 A 
ATOM     33  C   UNL     1       4.326   3.248  11.773  0.00  0.00    +0.000 A 
ATOM     34  C   UNL     1       5.018   2.275  11.048  0.00  0.00    +0.000 A 
ATOM     35  C   UNL     1       6.385   2.094  11.232  0.00  0.00    +0.000 A 
ATOM     36  C   UNL     1       7.065   2.891  12.171  0.00  0.00    +0.000 A 
ENDBRANCH  30  31
ENDBRANCH  29  30
ENDBRANCH   4  29
TORSDOF 10
ENDMDL
MODEL 9
REMARK VINA RESULT:      -7.1      1.299      1.800
REMARK  Name = 
REMARK  13 active torsions:
REMARK  status: ('A' for Active; 'I' for Inactive)
REMARK    1  A    between atoms: C_1  and  C_2
REMARK    2  A    between atoms: N_4  and  C_5
REMARK    3  A    between atoms: C_5  and  C_6
REMARK    4  A    between atoms: C_6  and  C_7
REMARK    5  A    between atoms: C_15  and  N_16
REMARK    6  A    between atoms: C_17  and  C_19
REMARK    7  A    between atoms: C_19  and  C_20
REMARK    8  A    between atoms: C_20  and  C_21
REMARK    9  A    between atoms: C_21  and  N_22
REMARK   10  A    between atoms: N_22  and  C_23
REMARK   11  A    between atoms: N_22  and  C_24
REMARK   12  A    between atoms: C_26  and  C_27
REMARK   13  A    between atoms: C_31  and  O_32
REMARK                            x       y       z     vdW  Elec       q    Type
REMARK                         _______ _______ _______ _____ _____    ______ ____
ROOT
ATOM      1  C   UNL     1       0.211   9.496  23.463  0.00  0.00    +0.000 C 
ATOM      2  C   UNL     1      -0.067   9.415  21.947  0.00  0.00    +0.000 C 
ATOM      3  C   UNL     1       1.086   8.601  21.309  0.00  0.00    +0.000 C 
ATOM      4  N   UNL     1       1.507   8.971  19.971  0.00  0.00    +0.000 NA
ATOM      5  C   UNL     1       1.446  10.349  19.537  0.00  0.00    +0.000 C 
ATOM      6  C   UNL     1       0.511  10.567  18.349  0.00  0.00    +0.000 C 
ATOM      7  C   UNL     1      -0.961  10.342  18.665  0.00  0.00    +0.000 C 
ATOM      8  C   UNL     1      -1.358  10.661  20.108  0.00  0.00    +0.000 C 
ATOM      9  C   UNL     1      -0.318  10.798  21.265  0.00  0.00    +0.000 C 
ATOM     10  C   UNL     1       0.997  11.299  20.651  0.00  0.00    +0.000 C 
ENDROOT
BRANCH   9  11
ATOM     11  C   UNL     1      -0.974  11.830  22.233  0.00  0.00    +0.000 A 
ATOM     12  C   UNL     1      -0.463  13.123  22.429  0.00  0.00    +0.000 A 
ATOM     13  C   UNL     1      -1.157  14.063  23.197  0.00  0.00    +0.000 A 
ATOM     14  C   UNL     1      -2.380  13.738  23.776  0.00  0.00    +0.000 A 
ATOM     15  C   UNL     1      -2.901  12.466  23.589  0.00  0.00    +0.000 A 
ATOM     16  C   UNL     1      -2.208  11.518  22.847  0.00  0.00    +0.000 A 
BRANCH  15  17
ATOM     17  O   UNL     1      -4.116  12.113  24.099  0.00  0.00    +0.000 OA
ATOM     18  H   UNL     1      -4.302  11.200  23.827  0.00  0.00    +0.000 HD
ENDBRANCH  15  17
ENDBRANCH   9  11
BRANCH   7  19
ATOM     19  N   UNL     1      -1.745  11.070  17.636  0.00  0.00    +0.000 N 
ATOM     20  C   UNL     1      -2.402  10.544  16.542  0.00  0.00    +0.000 C 
ATOM     21  O   UNL     1      -2.305   9.407  16.098  0.00  0.00    +0.000 OA
ATOM     22  H   UNL     1      -1.958  12.037  17.859  0.00  0.00    +0.000 HD
BRANCH  20  23
ATOM     23  C   UNL     1      -3.365  11.484  15.867  0.00  0.00    +0.000 C 
BRANCH  23  24
ATOM     24  C   UNL     1      -4.791  11.134  16.303  0.00  0.00    +0.000 C 
BRANCH  24  25
ATOM     25  C   UNL     1      -5.286  11.974  17.489  0.00  0.00    +0.000 C 
BRANCH  25  26
ATOM     26  N   UNL     1      -6.713  11.791  17.789  0.00  0.00    +0.000 NA
ATOM     27  C   UNL     1      -6.908  11.123  19.084  0.00  0.00    +0.000 C 
ATOM     28  C   UNL     1      -7.404  13.078  17.794  0.00  0.00    +0.000 C 
ENDBRANCH  25  26
ENDBRANCH  24  25
ENDBRANCH  23  24
ENDBRANCH  20  23
ENDBRANCH   7  19
BRANCH   4  29
ATOM     29  C   UNL     1       1.806   7.869  19.067  0.00  0.00    +0.000 C 
BRANCH  29  30
ATOM     30  C   UNL     1       2.990   7.959  18.070  0.00  0.00    +0.000 C 
BRANCH  30  31
ATOM     31  C   UNL     1       3.490   6.627  17.574  0.00  0.00    +0.000 A 
ATOM     32  C   UNL     1       2.821   5.458  17.946  0.00  0.00    +0.000 A 
ATOM     33  C   UNL     1       3.312   4.214  17.565  0.00  0.00    +0.000 A 
ATOM     34  C   UNL     1       4.480   4.132  16.804  0.00  0.00    +0.000 A 
ATOM     35  C   UNL     1       5.144   5.286  16.400  0.00  0.00    +0.000 A 
ATOM     36  C   UNL     1       4.636   6.542  16.780  0.00  0.00    +0.000 A 
ENDBRANCH  30  31
ENDBRANCH  29  30
ENDBRANCH   4  29
TORSDOF 10
ENDMDL
