MODEL 1
REMARK VINA RESULT:      -8.6      0.000      0.000
REMARK  Name = 
REMARK  3 active torsions:
REMARK  status: ('A' for Active; 'I' for Inactive)
REMARK    1  A    between atoms: C_2  and  C_3
REMARK    2  A    between atoms: C_2  and  C_17
REMARK    3  A    between atoms: C_5  and  C_6
REMARK                            x       y       z     vdW  Elec       q    Type
REMARK                         _______ _______ _______ _____ _____    ______ ____
ROOT
ATOM      1  C   UNL     1       3.055   7.211  17.647  0.00  0.00    +0.000 C 
ATOM      2  N   UNL     1       2.531   6.015  17.563  0.00  0.00    +0.000 NA
ATOM      3  C   UNL     1       3.686   5.114  17.266  0.00  0.00    +0.000 C 
ATOM      4  C   UNL     1       4.900   6.030  16.987  0.00  0.00    +0.000 C 
ATOM      5  N   UNL     1       4.378   7.347  17.284  0.00  0.00    +0.000 N 
ATOM      6  H   UNL     1       4.920   7.963  17.884  0.00  0.00    +0.000 HD
ENDROOT
BRANCH   3   7
ATOM      7  C   UNL     1       3.909   4.216  18.453  0.00  0.00    +0.000 A 
ATOM      8  C   UNL     1       5.097   3.602  18.815  0.00  0.00    +0.000 A 
ATOM      9  N   UNL     1       4.878   2.857  19.937  0.00  0.00    +0.000 N 
ATOM     10  C   UNL     1       3.560   2.943  20.313  0.00  0.00    +0.000 A 
ATOM     11  C   UNL     1       2.889   2.326  21.374  0.00  0.00    +0.000 A 
ATOM     12  C   UNL     1       1.529   2.603  21.527  0.00  0.00    +0.000 A 
ATOM     13  C   UNL     1       0.873   3.474  20.662  0.00  0.00    +0.000 A 
ATOM     14  C   UNL     1       1.560   4.085  19.605  0.00  0.00    +0.000 A 
ATOM     15  C   UNL     1       2.930   3.807  19.416  0.00  0.00    +0.000 A 
ATOM     16  H   UNL     1       5.580   2.315  20.421  0.00  0.00    +0.000 HD
ENDBRANCH   3   7
BRANCH   1  18
ATOM     17  O   UNL     1       2.060   9.299  17.378  0.00  0.00    +0.000 OA
ATOM     18  C   UNL     1       2.250   8.390  18.187  0.00  0.00    +0.000 C 
BRANCH  18  19
ATOM     19  C   UNL     1       1.745   8.429  19.560  0.00  0.00    +0.000 A 
ATOM     20  C   UNL     1       1.989   7.500  20.555  0.00  0.00    +0.000 A 
ATOM     21  N   UNL     1       1.351   7.898  21.697  0.00  0.00    +0.000 N 
ATOM     22  C   UNL     1       0.659   9.062  21.469  0.00  0.00    +0.000 A 
ATOM     23  C   UNL     1      -0.150   9.808  22.333  0.00  0.00    +0.000 A 
ATOM     24  C   UNL     1      -0.744  10.963  21.817  0.00  0.00    +0.000 A 
ATOM     25 BR   UNL     1      -1.874  11.994  22.934  0.00  0.00    +0.000 Br
ATOM     26  C   UNL     1      -0.526  11.368  20.504  0.00  0.00    +0.000 A 
ATOM     27  C   UNL     1       0.293  10.611  19.660  0.00  0.00    +0.000 A 
ATOM     28  C   UNL     1       0.894   9.428  20.142  0.00  0.00    +0.000 A 
ATOM     29  H   UNL     1       1.376   7.404  22.579  0.00  0.00    +0.000 HD
ENDBRANCH  18  19
ENDBRANCH   1  18
TORSDOF 3
ENDMDL
MODEL 2
REMARK VINA RESULT:      -8.4      4.039      7.809
REMARK  Name = 
REMARK  3 active torsions:
REMARK  status: ('A' for Active; 'I' for Inactive)
REMARK    1  A    between atoms: C_2  and  C_3
REMARK    2  A    between atoms: C_2  and  C_17
REMARK    3  A    between atoms: C_5  and  C_6
REMARK                            x       y       z     vdW  Elec       q    Type
REMARK                         _______ _______ _______ _____ _____    ______ ____
ROOT
ATOM      1  C   UNL     1       4.155   5.564  19.127  0.00  0.00    +0.000 C 
ATOM      2  N   UNL     1       3.438   6.038  18.141  0.00  0.00    +0.000 NA
ATOM      3  C   UNL     1       2.103   6.330  18.748  0.00  0.00    +0.000 C 
ATOM      4  C   UNL     1       2.131   5.743  20.178  0.00  0.00    +0.000 C 
ATOM      5  N   UNL     1       3.502   5.300  20.312  0.00  0.00    +0.000 N 
ATOM      6  H   UNL     1       4.020   5.561  21.147  0.00  0.00    +0.000 HD
ENDROOT
BRANCH   3   7
ATOM      7  C   UNL     1       1.893   7.820  18.747  0.00  0.00    +0.000 A 
ATOM      8  C   UNL     1       2.224   8.703  17.732  0.00  0.00    +0.000 A 
ATOM      9  N   UNL     1       1.892   9.965  18.126  0.00  0.00    +0.000 N 
ATOM     10  C   UNL     1       1.370   9.943  19.397  0.00  0.00    +0.000 A 
ATOM     11  C   UNL     1       0.929  10.998  20.202  0.00  0.00    +0.000 A 
ATOM     12  C   UNL     1       0.431  10.681  21.468  0.00  0.00    +0.000 A 
ATOM     13  C   UNL     1       0.365   9.359  21.901  0.00  0.00    +0.000 A 
ATOM     14  C   UNL     1       0.810   8.314  21.081  0.00  0.00    +0.000 A 
ATOM     15  C   UNL     1       1.335   8.609  19.806  0.00  0.00    +0.000 A 
ATOM     16  H   UNL     1       2.015  10.800  17.569  0.00  0.00    +0.000 HD
ENDBRANCH   3   7
BRANCH   1  18
ATOM     17  O   UNL     1       6.236   5.019  20.017  0.00  0.00    +0.000 OA
ATOM     18  C   UNL     1       5.663   5.375  18.987  0.00  0.00    +0.000 C 
BRANCH  18  19
ATOM     19  C   UNL     1       6.365   5.598  17.723  0.00  0.00    +0.000 A 
ATOM     20  C   UNL     1       7.341   6.548  17.477  0.00  0.00    +0.000 A 
ATOM     21  N   UNL     1       7.757   6.430  16.180  0.00  0.00    +0.000 N 
ATOM     22  C   UNL     1       7.051   5.436  15.548  0.00  0.00    +0.000 A 
ATOM     23  C   UNL     1       7.122   4.990  14.223  0.00  0.00    +0.000 A 
ATOM     24  C   UNL     1       6.263   3.952  13.851  0.00  0.00    +0.000 A 
ATOM     25 BR   UNL     1       6.295   3.330  12.062  0.00  0.00    +0.000 Br
ATOM     26  C   UNL     1       5.387   3.370  14.761  0.00  0.00    +0.000 A 
ATOM     27  C   UNL     1       5.339   3.828  16.083  0.00  0.00    +0.000 A 
ATOM     28  C   UNL     1       6.178   4.887  16.490  0.00  0.00    +0.000 A 
ATOM     29  H   UNL     1       8.473   6.996  15.746  0.00  0.00    +0.000 HD
ENDBRANCH  18  19
ENDBRANCH   1  18
TORSDOF 3
ENDMDL
MODEL 3
REMARK VINA RESULT:      -8.4      3.964      7.803
REMARK  Name = 
REMARK  3 active torsions:
REMARK  status: ('A' for Active; 'I' for Inactive)
REMARK    1  A    between atoms: C_2  and  C_3
REMARK    2  A    between atoms: C_2  and  C_17
REMARK    3  A    between atoms: C_5  and  C_6
REMARK                            x       y       z     vdW  Elec       q    Type
REMARK                         _______ _______ _______ _____ _____    ______ ____
ROOT
ATOM      1  C   UNL     1       4.418   5.114  19.261  0.00  0.00    +0.000 C 
ATOM      2  N   UNL     1       3.580   5.853  18.580  0.00  0.00    +0.000 NA
ATOM      3  C   UNL     1       2.252   5.615  19.225  0.00  0.00    +0.000 C 
ATOM      4  C   UNL     1       2.453   4.463  20.236  0.00  0.00    +0.000 C 
ATOM      5  N   UNL     1       3.882   4.242  20.186  0.00  0.00    +0.000 N 
ATOM      6  H   UNL     1       4.398   4.184  21.060  0.00  0.00    +0.000 HD
ENDROOT
BRANCH   3   7
ATOM      7  C   UNL     1       1.809   6.889  19.891  0.00  0.00    +0.000 A 
ATOM      8  C   UNL     1       1.382   7.034  21.201  0.00  0.00    +0.000 A 
ATOM      9  N   UNL     1       1.051   8.340  21.410  0.00  0.00    +0.000 N 
ATOM     10  C   UNL     1       1.226   9.064  20.255  0.00  0.00    +0.000 A 
ATOM     11  C   UNL     1       0.984  10.418  20.002  0.00  0.00    +0.000 A 
ATOM     12  C   UNL     1       1.263  10.895  18.720  0.00  0.00    +0.000 A 
ATOM     13  C   UNL     1       1.777  10.053  17.738  0.00  0.00    +0.000 A 
ATOM     14  C   UNL     1       2.015   8.700  18.008  0.00  0.00    +0.000 A 
ATOM     15  C   UNL     1       1.724   8.188  19.290  0.00  0.00    +0.000 A 
ATOM     16  H   UNL     1       0.720   8.724  22.284  0.00  0.00    +0.000 HD
ENDBRANCH   3   7
BRANCH   1  18
ATOM     17  O   UNL     1       6.584   5.117  20.116  0.00  0.00    +0.000 OA
ATOM     18  C   UNL     1       5.927   5.262  19.085  0.00  0.00    +0.000 C 
BRANCH  18  19
ATOM     19  C   UNL     1       6.537   5.551  17.787  0.00  0.00    +0.000 A 
ATOM     20  C   UNL     1       7.442   6.560  17.506  0.00  0.00    +0.000 A 
ATOM     21  N   UNL     1       7.784   6.492  16.184  0.00  0.00    +0.000 N 
ATOM     22  C   UNL     1       7.098   5.473  15.572  0.00  0.00    +0.000 A 
ATOM     23  C   UNL     1       7.113   5.058  14.235  0.00  0.00    +0.000 A 
ATOM     24  C   UNL     1       6.293   3.980  13.890  0.00  0.00    +0.000 A 
ATOM     25 BR   UNL     1       6.250   3.397  12.089  0.00  0.00    +0.000 Br
ATOM     26  C   UNL     1       5.507   3.331  14.837  0.00  0.00    +0.000 A 
ATOM     27  C   UNL     1       5.514   3.758  16.169  0.00  0.00    +0.000 A 
ATOM     28  C   UNL     1       6.315   4.856  16.551  0.00  0.00    +0.000 A 
ATOM     29  H   UNL     1       8.440   7.107  15.722  0.00  0.00    +0.000 HD
ENDBRANCH  18  19
ENDBRANCH   1  18
TORSDOF 3
ENDMDL
MODEL 4
REMARK VINA RESULT:      -8.3      2.759      4.892
REMARK  Name = 
REMARK  3 active torsions:
REMARK  status: ('A' for Active; 'I' for Inactive)
REMARK    1  A    between atoms: C_2  and  C_3
REMARK    2  A    between atoms: C_2  and  C_17
REMARK    3  A    between atoms: C_5  and  C_6
REMARK                            x       y       z     vdW  Elec       q    Type
REMARK                         _______ _______ _______ _____ _____    ______ ____
ROOT
ATOM      1  C   UNL     1       3.418   4.777  18.456  0.00  0.00    +0.000 C 
ATOM      2  N   UNL     1       4.639   4.310  18.508  0.00  0.00    +0.000 NA
ATOM      3  C   UNL     1       4.828   3.597  17.207  0.00  0.00    +0.000 C 
ATOM      4  C   UNL     1       3.444   3.561  16.519  0.00  0.00    +0.000 C 
ATOM      5  N   UNL     1       2.629   4.368  17.402  0.00  0.00    +0.000 N 
ATOM      6  H   UNL     1       2.049   5.099  16.999  0.00  0.00    +0.000 HD
ENDROOT
BRANCH   3   7
ATOM      7  C   UNL     1       5.850   4.344  16.395  0.00  0.00    +0.000 A 
ATOM      8  C   UNL     1       6.700   5.341  16.847  0.00  0.00    +0.000 A 
ATOM      9  N   UNL     1       7.457   5.776  15.801  0.00  0.00    +0.000 N 
ATOM     10  C   UNL     1       7.110   5.106  14.653  0.00  0.00    +0.000 A 
ATOM     11  C   UNL     1       7.599   5.247  13.351  0.00  0.00    +0.000 A 
ATOM     12  C   UNL     1       7.062   4.416  12.365  0.00  0.00    +0.000 A 
ATOM     13  C   UNL     1       6.087   3.473  12.677  0.00  0.00    +0.000 A 
ATOM     14  C   UNL     1       5.609   3.343  13.987  0.00  0.00    +0.000 A 
ATOM     15  C   UNL     1       6.121   4.183  14.997  0.00  0.00    +0.000 A 
ATOM     16  H   UNL     1       8.169   6.492  15.856  0.00  0.00    +0.000 HD
ENDBRANCH   3   7
BRANCH   1  18
ATOM     17  O   UNL     1       2.908   5.377  20.647  0.00  0.00    +0.000 OA
ATOM     18  C   UNL     1       2.914   5.785  19.486  0.00  0.00    +0.000 C 
BRANCH  18  19
ATOM     19  C   UNL     1       2.477   7.131  19.114  0.00  0.00    +0.000 A 
ATOM     20  C   UNL     1       2.751   7.789  17.928  0.00  0.00    +0.000 A 
ATOM     21  N   UNL     1       2.157   9.021  17.959  0.00  0.00    +0.000 N 
ATOM     22  C   UNL     1       1.519   9.206  19.160  0.00  0.00    +0.000 A 
ATOM     23  C   UNL     1       0.809  10.315  19.637  0.00  0.00    +0.000 A 
ATOM     24  C   UNL     1       0.266  10.223  20.921  0.00  0.00    +0.000 A 
ATOM     25 BR   UNL     1      -0.677  11.705  21.628  0.00  0.00    +0.000 Br
ATOM     26  C   UNL     1       0.405   9.071  21.689  0.00  0.00    +0.000 A 
ATOM     27  C   UNL     1       1.112   7.972  21.189  0.00  0.00    +0.000 A 
ATOM     28  C   UNL     1       1.691   8.036  19.903  0.00  0.00    +0.000 A 
ATOM     29  H   UNL     1       2.190   9.701  17.210  0.00  0.00    +0.000 HD
ENDBRANCH  18  19
ENDBRANCH   1  18
TORSDOF 3
ENDMDL
MODEL 5
REMARK VINA RESULT:      -8.2      3.342      7.960
REMARK  Name = 
REMARK  3 active torsions:
REMARK  status: ('A' for Active; 'I' for Inactive)
REMARK    1  A    between atoms: C_2  and  C_3
REMARK    2  A    between atoms: C_2  and  C_17
REMARK    3  A    between atoms: C_5  and  C_6
REMARK                            x       y       z     vdW  Elec       q    Type
REMARK                         _______ _______ _______ _____ _____    ______ ____
ROOT
ATOM      1  C   UNL     1       0.616  10.368  18.509  0.00  0.00    +0.000 C 
ATOM      2  N   UNL     1       0.834  11.382  19.307  0.00  0.00    +0.000 NA
ATOM      3  C   UNL     1      -0.496  12.054  19.440  0.00  0.00    +0.000 C 
ATOM      4  C   UNL     1      -1.437  11.373  18.419  0.00  0.00    +0.000 C 
ATOM      5  N   UNL     1      -0.620  10.297  17.902  0.00  0.00    +0.000 N 
ATOM      6  H   UNL     1      -1.015   9.362  17.857  0.00  0.00    +0.000 HD
ENDROOT
BRANCH   3   7
ATOM      7  C   UNL     1      -0.974  11.889  20.857  0.00  0.00    +0.000 A 
ATOM      8  C   UNL     1      -0.362  11.154  21.858  0.00  0.00    +0.000 A 
ATOM      9  N   UNL     1      -1.119  11.241  22.989  0.00  0.00    +0.000 N 
ATOM     10  C   UNL     1      -2.240  11.999  22.751  0.00  0.00    +0.000 A 
ATOM     11  C   UNL     1      -3.299  12.323  23.605  0.00  0.00    +0.000 A 
ATOM     12  C   UNL     1      -4.318  13.130  23.093  0.00  0.00    +0.000 A 
ATOM     13  C   UNL     1      -4.268  13.603  21.785  0.00  0.00    +0.000 A 
ATOM     14  C   UNL     1      -3.199  13.269  20.943  0.00  0.00    +0.000 A 
ATOM     15  C   UNL     1      -2.167  12.441  21.430  0.00  0.00    +0.000 A 
ATOM     16  H   UNL     1      -0.895  10.807  23.874  0.00  0.00    +0.000 HD
ENDBRANCH   3   7
BRANCH   1  18
ATOM     17  O   UNL     1       2.366   9.408  17.311  0.00  0.00    +0.000 OA
ATOM     18  C   UNL     1       1.665   9.277  18.315  0.00  0.00    +0.000 C 
BRANCH  18  19
ATOM     19  C   UNL     1       1.821   8.166  19.255  0.00  0.00    +0.000 A 
ATOM     20  C   UNL     1       1.511   8.176  20.603  0.00  0.00    +0.000 A 
ATOM     21  N   UNL     1       1.789   6.945  21.129  0.00  0.00    +0.000 N 
ATOM     22  C   UNL     1       2.310   6.124  20.160  0.00  0.00    +0.000 A 
ATOM     23  C   UNL     1       2.757   4.801  20.250  0.00  0.00    +0.000 A 
ATOM     24  C   UNL     1       3.253   4.212  19.084  0.00  0.00    +0.000 A 
ATOM     25 BR   UNL     1       3.901   2.434  19.156  0.00  0.00    +0.000 Br
ATOM     26  C   UNL     1       3.284   4.902  17.876  0.00  0.00    +0.000 A 
ATOM     27  C   UNL     1       2.823   6.222  17.807  0.00  0.00    +0.000 A 
ATOM     28  C   UNL     1       2.333   6.856  18.970  0.00  0.00    +0.000 A 
ATOM     29  H   UNL     1       1.641   6.679  22.094  0.00  0.00    +0.000 HD
ENDBRANCH  18  19
ENDBRANCH   1  18
TORSDOF 3
ENDMDL
MODEL 6
REMARK VINA RESULT:      -8.1      3.146      5.359
REMARK  Name = 
REMARK  3 active torsions:
REMARK  status: ('A' for Active; 'I' for Inactive)
REMARK    1  A    between atoms: C_2  and  C_3
REMARK    2  A    between atoms: C_2  and  C_17
REMARK    3  A    between atoms: C_5  and  C_6
REMARK                            x       y       z     vdW  Elec       q    Type
REMARK                         _______ _______ _______ _____ _____    ______ ____
ROOT
ATOM      1  C   UNL     1       0.093  10.291  21.581  0.00  0.00    +0.000 C 
ATOM      2  N   UNL     1       1.357   9.975  21.462  0.00  0.00    +0.000 NA
ATOM      3  C   UNL     1       1.388   8.484  21.568  0.00  0.00    +0.000 C 
ATOM      4  C   UNL     1      -0.036   8.042  21.979  0.00  0.00    +0.000 C 
ATOM      5  N   UNL     1      -0.779   9.283  21.933  0.00  0.00    +0.000 N 
ATOM      6  H   UNL     1      -1.668   9.301  21.441  0.00  0.00    +0.000 HD
ENDROOT
BRANCH   3   7
ATOM      7  C   UNL     1       1.799   7.918  20.236  0.00  0.00    +0.000 A 
ATOM      8  C   UNL     1       1.977   8.621  19.056  0.00  0.00    +0.000 A 
ATOM      9  N   UNL     1       2.330   7.744  18.074  0.00  0.00    +0.000 N 
ATOM     10  C   UNL     1       2.366   6.464  18.573  0.00  0.00    +0.000 A 
ATOM     11  C   UNL     1       2.647   5.258  17.923  0.00  0.00    +0.000 A 
ATOM     12  C   UNL     1       2.619   4.090  18.688  0.00  0.00    +0.000 A 
ATOM     13  C   UNL     1       2.336   4.133  20.051  0.00  0.00    +0.000 A 
ATOM     14  C   UNL     1       2.059   5.350  20.686  0.00  0.00    +0.000 A 
ATOM     15  C   UNL     1       2.062   6.542  19.932  0.00  0.00    +0.000 A 
ATOM     16  H   UNL     1       2.532   7.994  17.115  0.00  0.00    +0.000 HD
ENDBRANCH   3   7
BRANCH   1  18
ATOM     17  O   UNL     1       0.228  12.601  21.839  0.00  0.00    +0.000 OA
ATOM     18  C   UNL     1      -0.400  11.703  21.277  0.00  0.00    +0.000 C 
BRANCH  18  19
ATOM     19  C   UNL     1      -1.530  11.962  20.385  0.00  0.00    +0.000 A 
ATOM     20  C   UNL     1      -2.593  12.814  20.624  0.00  0.00    +0.000 A 
ATOM     21  N   UNL     1      -3.433  12.788  19.546  0.00  0.00    +0.000 N 
ATOM     22  C   UNL     1      -2.962  11.907  18.604  0.00  0.00    +0.000 A 
ATOM     23  C   UNL     1      -3.506  11.542  17.367  0.00  0.00    +0.000 A 
ATOM     24  C   UNL     1      -2.802  10.600  16.611  0.00  0.00    +0.000 A 
ATOM     25 BR   UNL     1      -3.508  10.047  14.943  0.00  0.00    +0.000 Br
ATOM     26  C   UNL     1      -1.601  10.060  17.058  0.00  0.00    +0.000 A 
ATOM     27  C   UNL     1      -1.072  10.445  18.295  0.00  0.00    +0.000 A 
ATOM     28  C   UNL     1      -1.765  11.380  19.094  0.00  0.00    +0.000 A 
ATOM     29  H   UNL     1      -4.281  13.331  19.457  0.00  0.00    +0.000 HD
ENDBRANCH  18  19
ENDBRANCH   1  18
TORSDOF 3
ENDMDL
MODEL 7
REMARK VINA RESULT:      -8.1      4.016      8.128
REMARK  Name = 
REMARK  3 active torsions:
REMARK  status: ('A' for Active; 'I' for Inactive)
REMARK    1  A    between atoms: C_2  and  C_3
REMARK    2  A    between atoms: C_2  and  C_17
REMARK    3  A    between atoms: C_5  and  C_6
REMARK                            x       y       z     vdW  Elec       q    Type
REMARK                         _______ _______ _______ _____ _____    ______ ____
ROOT
ATOM      1  C   UNL     1       1.035   9.993  18.730  0.00  0.00    +0.000 C 
ATOM      2  N   UNL     1      -0.118   9.839  19.330  0.00  0.00    +0.000 NA
ATOM      3  C   UNL     1      -0.771  11.181  19.249  0.00  0.00    +0.000 C 
ATOM      4  C   UNL     1       0.294  12.157  18.696  0.00  0.00    +0.000 C 
ATOM      5  N   UNL     1       1.398  11.276  18.381  0.00  0.00    +0.000 N 
ATOM      6  H   UNL     1       1.842  11.357  17.470  0.00  0.00    +0.000 HD
ENDROOT
BRANCH   3   7
ATOM      7  C   UNL     1      -1.971  11.075  18.347  0.00  0.00    +0.000 A 
ATOM      8  C   UNL     1      -2.026  10.453  17.110  0.00  0.00    +0.000 A 
ATOM      9  N   UNL     1      -3.285  10.594  16.606  0.00  0.00    +0.000 N 
ATOM     10  C   UNL     1      -4.063  11.322  17.473  0.00  0.00    +0.000 A 
ATOM     11  C   UNL     1      -5.395  11.731  17.353  0.00  0.00    +0.000 A 
ATOM     12  C   UNL     1      -5.943  12.466  18.406  0.00  0.00    +0.000 A 
ATOM     13  C   UNL     1      -5.191  12.764  19.539  0.00  0.00    +0.000 A 
ATOM     14  C   UNL     1      -3.859  12.346  19.645  0.00  0.00    +0.000 A 
ATOM     15  C   UNL     1      -3.275  11.619  18.586  0.00  0.00    +0.000 A 
ATOM     16  H   UNL     1      -3.602  10.223  15.721  0.00  0.00    +0.000 HD
ENDBRANCH   3   7
BRANCH   1  18
ATOM     17  O   UNL     1       2.498   8.885  17.298  0.00  0.00    +0.000 OA
ATOM     18  C   UNL     1       1.907   8.792  18.374  0.00  0.00    +0.000 C 
BRANCH  18  19
ATOM     19  C   UNL     1       2.028   7.626  19.249  0.00  0.00    +0.000 A 
ATOM     20  C   UNL     1       1.817   7.595  20.616  0.00  0.00    +0.000 A 
ATOM     21  N   UNL     1       2.019   6.320  21.066  0.00  0.00    +0.000 N 
ATOM     22  C   UNL     1       2.392   5.506  20.025  0.00  0.00    +0.000 A 
ATOM     23  C   UNL     1       2.722   4.147  20.023  0.00  0.00    +0.000 A 
ATOM     24  C   UNL     1       3.077   3.575  18.798  0.00  0.00    +0.000 A 
ATOM     25 BR   UNL     1       3.565   1.746  18.743  0.00  0.00    +0.000 Br
ATOM     26  C   UNL     1       3.084   4.320  17.623  0.00  0.00    +0.000 A 
ATOM     27  C   UNL     1       2.742   5.677  17.647  0.00  0.00    +0.000 A 
ATOM     28  C   UNL     1       2.397   6.292  18.870  0.00  0.00    +0.000 A 
ATOM     29  H   UNL     1       1.917   6.020  22.027  0.00  0.00    +0.000 HD
ENDBRANCH  18  19
ENDBRANCH   1  18
TORSDOF 3
ENDMDL
MODEL 8
REMARK VINA RESULT:      -8.0      2.337      4.297
REMARK  Name = 
REMARK  3 active torsions:
REMARK  status: ('A' for Active; 'I' for Inactive)
REMARK    1  A    between atoms: C_2  and  C_3
REMARK    2  A    between atoms: C_2  and  C_17
REMARK    3  A    between atoms: C_5  and  C_6
REMARK                            x       y       z     vdW  Elec       q    Type
REMARK                         _______ _______ _______ _____ _____    ______ ____
ROOT
ATOM      1  C   UNL     1       2.765   5.341  19.123  0.00  0.00    +0.000 C 
ATOM      2  N   UNL     1       3.903   4.823  19.508  0.00  0.00    +0.000 NA
ATOM      3  C   UNL     1       4.279   3.876  18.413  0.00  0.00    +0.000 C 
ATOM      4  C   UNL     1       3.062   3.795  17.463  0.00  0.00    +0.000 C 
ATOM      5  N   UNL     1       2.166   4.793  18.009  0.00  0.00    +0.000 N 
ATOM      6  H   UNL     1       1.748   5.471  17.377  0.00  0.00    +0.000 HD
ENDROOT
BRANCH   3   7
ATOM      7  C   UNL     1       5.507   4.406  17.724  0.00  0.00    +0.000 A 
ATOM      8  C   UNL     1       6.578   5.051  18.319  0.00  0.00    +0.000 A 
ATOM      9  N   UNL     1       7.476   5.391  17.351  0.00  0.00    +0.000 N 
ATOM     10  C   UNL     1       7.011   5.006  16.117  0.00  0.00    +0.000 A 
ATOM     11  C   UNL     1       7.581   5.177  14.852  0.00  0.00    +0.000 A 
ATOM     12  C   UNL     1       6.881   4.672  13.754  0.00  0.00    +0.000 A 
ATOM     13  C   UNL     1       5.668   4.010  13.921  0.00  0.00    +0.000 A 
ATOM     14  C   UNL     1       5.111   3.846  15.195  0.00  0.00    +0.000 A 
ATOM     15  C   UNL     1       5.788   4.364  16.319  0.00  0.00    +0.000 A 
ATOM     16  H   UNL     1       8.356   5.862  17.512  0.00  0.00    +0.000 HD
ENDBRANCH   3   7
BRANCH   1  18
ATOM     17  O   UNL     1       1.839   6.339  21.012  0.00  0.00    +0.000 OA
ATOM     18  C   UNL     1       2.163   6.546  19.842  0.00  0.00    +0.000 C 
BRANCH  18  19
ATOM     19  C   UNL     1       1.990   7.842  19.186  0.00  0.00    +0.000 A 
ATOM     20  C   UNL     1       2.568   8.248  17.996  0.00  0.00    +0.000 A 
ATOM     21  N   UNL     1       2.152   9.520  17.714  0.00  0.00    +0.000 N 
ATOM     22  C   UNL     1       1.330   9.979  18.713  0.00  0.00    +0.000 A 
ATOM     23  C   UNL     1       0.700  11.221  18.857  0.00  0.00    +0.000 A 
ATOM     24  C   UNL     1      -0.083  11.414  19.999  0.00  0.00    +0.000 A 
ATOM     25 BR   UNL     1      -0.932  13.086  20.259  0.00  0.00    +0.000 Br
ATOM     26  C   UNL     1      -0.247  10.408  20.946  0.00  0.00    +0.000 A 
ATOM     27  C   UNL     1       0.385   9.172  20.778  0.00  0.00    +0.000 A 
ATOM     28  C   UNL     1       1.199   8.948  19.646  0.00  0.00    +0.000 A 
ATOM     29  H   UNL     1       2.416  10.049  16.894  0.00  0.00    +0.000 HD
ENDBRANCH  18  19
ENDBRANCH   1  18
TORSDOF 3
ENDMDL
MODEL 9
REMARK VINA RESULT:      -7.9      3.766      7.840
REMARK  Name = 
REMARK  3 active torsions:
REMARK  status: ('A' for Active; 'I' for Inactive)
REMARK    1  A    between atoms: C_2  and  C_3
REMARK    2  A    between atoms: C_2  and  C_17
REMARK    3  A    between atoms: C_5  and  C_6
REMARK                            x       y       z     vdW  Elec       q    Type
REMARK                         _______ _______ _______ _____ _____    ______ ____
ROOT
ATOM      1  C   UNL     1       1.108  10.352  19.143  0.00  0.00    +0.000 C 
ATOM      2  N   UNL     1       0.107  10.338  19.986  0.00  0.00    +0.000 NA
ATOM      3  C   UNL     1      -0.351  11.760  20.055  0.00  0.00    +0.000 C 
ATOM      4  C   UNL     1       0.692  12.598  19.279  0.00  0.00    +0.000 C 
ATOM      5  N   UNL     1       1.563  11.584  18.723  0.00  0.00    +0.000 N 
ATOM      6  H   UNL     1       1.801  11.633  17.736  0.00  0.00    +0.000 HD
ENDROOT
BRANCH   3   7
ATOM      7  C   UNL     1      -1.723  11.850  19.445  0.00  0.00    +0.000 A 
ATOM      8  C   UNL     1      -2.808  12.552  19.945  0.00  0.00    +0.000 A 
ATOM      9  N   UNL     1      -3.871  12.365  19.112  0.00  0.00    +0.000 N 
ATOM     10  C   UNL     1      -3.521  11.529  18.079  0.00  0.00    +0.000 A 
ATOM     11  C   UNL     1      -4.294  11.044  17.019  0.00  0.00    +0.000 A 
ATOM     12  C   UNL     1      -3.669  10.204  16.095  0.00  0.00    +0.000 A 
ATOM     13  C   UNL     1      -2.322   9.877  16.221  0.00  0.00    +0.000 A 
ATOM     14  C   UNL     1      -1.561  10.373  17.287  0.00  0.00    +0.000 A 
ATOM     15  C   UNL     1      -2.173  11.208  18.245  0.00  0.00    +0.000 A 
ATOM     16  H   UNL     1      -4.786  12.775  19.235  0.00  0.00    +0.000 HD
ENDBRANCH   3   7
BRANCH   1  18
ATOM     17  O   UNL     1       2.037   9.098  17.415  0.00  0.00    +0.000 OA
ATOM     18  C   UNL     1       1.700   9.055  18.599  0.00  0.00    +0.000 C 
BRANCH  18  19
ATOM     19  C   UNL     1       1.854   7.858  19.426  0.00  0.00    +0.000 A 
ATOM     20  C   UNL     1       1.651   7.767  20.791  0.00  0.00    +0.000 A 
ATOM     21  N   UNL     1       1.886   6.479  21.188  0.00  0.00    +0.000 N 
ATOM     22  C   UNL     1       2.275   5.718  20.113  0.00  0.00    +0.000 A 
ATOM     23  C   UNL     1       2.639   4.369  20.055  0.00  0.00    +0.000 A 
ATOM     24  C   UNL     1       3.002   3.856  18.807  0.00  0.00    +0.000 A 
ATOM     25 BR   UNL     1       3.534   2.044  18.676  0.00  0.00    +0.000 Br
ATOM     26  C   UNL     1       2.985   4.648  17.663  0.00  0.00    +0.000 A 
ATOM     27  C   UNL     1       2.609   5.994  17.743  0.00  0.00    +0.000 A 
ATOM     28  C   UNL     1       2.254   6.550  18.991  0.00  0.00    +0.000 A 
ATOM     29  H   UNL     1       1.797   6.138  22.136  0.00  0.00    +0.000 HD
ENDBRANCH  18  19
ENDBRANCH   1  18
TORSDOF 3
ENDMDL
