MODEL 1
REMARK VINA RESULT:      -7.4      0.000      0.000
REMARK  Name = 
REMARK  7 active torsions:
REMARK  status: ('A' for Active; 'I' for Inactive)
REMARK    1  A    between atoms: C_2  and  C_3
REMARK    2  A    between atoms: C_3  and  N_4
REMARK    3  A    between atoms: N_4  and  S_5
REMARK    4  A    between atoms: S_5  and  C_8
REMARK    5  A    between atoms: C_11  and  C_12
REMARK    6  A    between atoms: C_12  and  O_14
REMARK    7  A    between atoms: N_17  and  O_18
REMARK                            x       y       z     vdW  Elec       q    Type
REMARK                         _______ _______ _______ _____ _____    ______ ____
ROOT
ATOM      1  S   UNL     1       5.399   5.287  15.937  0.00  0.00    +0.000 S 
ATOM      2  O   UNL     1       5.308   6.724  15.794  0.00  0.00    +0.000 OA
ATOM      3  O   UNL     1       5.414   4.398  14.801  0.00  0.00    +0.000 OA
ENDROOT
BRANCH   1   4
ATOM      4  C   UNL     1       4.066   4.742  16.985  0.00  0.00    +0.000 A 
ATOM      5  C   UNL     1       3.887   3.380  17.243  0.00  0.00    +0.000 A 
ATOM      6  C   UNL     1       2.910   2.978  18.158  0.00  0.00    +0.000 A 
ATOM      7  C   UNL     1       2.110   3.928  18.814  0.00  0.00    +0.000 A 
ATOM      8  C   UNL     1       2.309   5.293  18.561  0.00  0.00    +0.000 A 
ATOM      9  C   UNL     1       3.287   5.699  17.647  0.00  0.00    +0.000 A 
BRANCH   7  10
ATOM     10  C   UNL     1       1.132   3.434  19.821  0.00  0.00    +0.000 C 
ATOM     11  O   UNL     1       1.238   3.679  21.011  0.00  0.00    +0.000 OA
BRANCH  10  12
ATOM     12  O   UNL     1       0.147   2.666  19.315  0.00  0.00    +0.000 OA
ATOM     13  H   UNL     1      -0.536   2.379  19.946  0.00  0.00    +0.000 HD
ENDBRANCH  10  12
ENDBRANCH   7  10
ENDBRANCH   1   4
BRANCH   1  14
ATOM     14  N   UNL     1       6.773   4.947  16.852  0.00  0.00    +0.000 NA
ATOM     15  H   UNL     1       6.749   4.023  17.293  0.00  0.00    +0.000 HD
BRANCH  14  16
ATOM     16  C   UNL     1       7.238   6.016  17.752  0.00  0.00    +0.000 C 
BRANCH  16  18
ATOM     17  O   UNL     1       6.138   5.143  19.722  0.00  0.00    +0.000 OA
ATOM     18  C   UNL     1       7.180   5.535  19.194  0.00  0.00    +0.000 C 
ATOM     19  N   UNL     1       8.381   5.592  19.865  0.00  0.00    +0.000 N 
ATOM     20  H   UNL     1       9.277   5.567  19.384  0.00  0.00    +0.000 HD
BRANCH  19  21
ATOM     21  O   UNL     1       8.382   5.104  21.192  0.00  0.00    +0.000 OA
ATOM     22  H   UNL     1       7.439   4.882  21.348  0.00  0.00    +0.000 HD
ENDBRANCH  19  21
ENDBRANCH  16  18
ENDBRANCH  14  16
ENDBRANCH   1  14
TORSDOF 7
ENDMDL
MODEL 2
REMARK VINA RESULT:      -7.2      1.946      3.714
REMARK  Name = 
REMARK  7 active torsions:
REMARK  status: ('A' for Active; 'I' for Inactive)
REMARK    1  A    between atoms: C_2  and  C_3
REMARK    2  A    between atoms: C_3  and  N_4
REMARK    3  A    between atoms: N_4  and  S_5
REMARK    4  A    between atoms: S_5  and  C_8
REMARK    5  A    between atoms: C_11  and  C_12
REMARK    6  A    between atoms: C_12  and  O_14
REMARK    7  A    between atoms: N_17  and  O_18
REMARK                            x       y       z     vdW  Elec       q    Type
REMARK                         _______ _______ _______ _____ _____    ______ ____
ROOT
ATOM      1  S   UNL     1       6.312   5.054  17.829  0.00  0.00    +0.000 S 
ATOM      2  O   UNL     1       7.248   4.880  18.919  0.00  0.00    +0.000 OA
ATOM      3  O   UNL     1       6.079   6.336  17.210  0.00  0.00    +0.000 OA
ENDROOT
BRANCH   1   4
ATOM      4  C   UNL     1       4.720   4.455  18.357  0.00  0.00    +0.000 A 
ATOM      5  C   UNL     1       3.559   5.159  18.027  0.00  0.00    +0.000 A 
ATOM      6  C   UNL     1       2.312   4.616  18.347  0.00  0.00    +0.000 A 
ATOM      7  C   UNL     1       2.219   3.374  18.996  0.00  0.00    +0.000 A 
ATOM      8  C   UNL     1       3.388   2.666  19.309  0.00  0.00    +0.000 A 
ATOM      9  C   UNL     1       4.639   3.207  18.988  0.00  0.00    +0.000 A 
BRANCH   7  10
ATOM     10  C   UNL     1       0.859   2.826  19.252  0.00  0.00    +0.000 C 
ATOM     11  O   UNL     1       0.266   2.138  18.438  0.00  0.00    +0.000 OA
BRANCH  10  12
ATOM     12  O   UNL     1       0.324   3.184  20.437  0.00  0.00    +0.000 OA
ATOM     13  H   UNL     1       0.558   4.071  20.759  0.00  0.00    +0.000 HD
ENDBRANCH  10  12
ENDBRANCH   7  10
ENDBRANCH   1   4
BRANCH   1  14
ATOM     14  N   UNL     1       6.742   3.980  16.604  0.00  0.00    +0.000 NA
ATOM     15  H   UNL     1       7.745   3.980  16.397  0.00  0.00    +0.000 HD
BRANCH  14  16
ATOM     16  C   UNL     1       5.892   3.990  15.401  0.00  0.00    +0.000 C 
BRANCH  16  18
ATOM     17  O   UNL     1       6.553   3.931  13.074  0.00  0.00    +0.000 OA
ATOM     18  C   UNL     1       6.715   4.417  14.194  0.00  0.00    +0.000 C 
ATOM     19  N   UNL     1       7.666   5.377  14.462  0.00  0.00    +0.000 N 
ATOM     20  H   UNL     1       7.587   6.021  15.244  0.00  0.00    +0.000 HD
BRANCH  19  21
ATOM     21  O   UNL     1       8.417   5.841  13.357  0.00  0.00    +0.000 OA
ATOM     22  H   UNL     1       9.040   6.480  13.765  0.00  0.00    +0.000 HD
ENDBRANCH  19  21
ENDBRANCH  16  18
ENDBRANCH  14  16
ENDBRANCH   1  14
TORSDOF 7
ENDMDL
MODEL 3
REMARK VINA RESULT:      -7.1      0.551      1.461
REMARK  Name = 
REMARK  7 active torsions:
REMARK  status: ('A' for Active; 'I' for Inactive)
REMARK    1  A    between atoms: C_2  and  C_3
REMARK    2  A    between atoms: C_3  and  N_4
REMARK    3  A    between atoms: N_4  and  S_5
REMARK    4  A    between atoms: S_5  and  C_8
REMARK    5  A    between atoms: C_11  and  C_12
REMARK    6  A    between atoms: C_12  and  O_14
REMARK    7  A    between atoms: N_17  and  O_18
REMARK                            x       y       z     vdW  Elec       q    Type
REMARK                         _______ _______ _______ _____ _____    ______ ____
ROOT
ATOM      1  S   UNL     1       5.475   5.340  15.852  0.00  0.00    +0.000 S 
ATOM      2  O   UNL     1       5.251   6.769  15.866  0.00  0.00    +0.000 OA
ATOM      3  O   UNL     1       5.490   4.573  14.630  0.00  0.00    +0.000 OA
ENDROOT
BRANCH   1   4
ATOM      4  C   UNL     1       4.266   4.572  16.911  0.00  0.00    +0.000 A 
ATOM      5  C   UNL     1       3.281   5.347  17.530  0.00  0.00    +0.000 A 
ATOM      6  C   UNL     1       2.272   4.716  18.263  0.00  0.00    +0.000 A 
ATOM      7  C   UNL     1       2.244   3.317  18.383  0.00  0.00    +0.000 A 
ATOM      8  C   UNL     1       3.227   2.547  17.744  0.00  0.00    +0.000 A 
ATOM      9  C   UNL     1       4.238   3.176  17.008  0.00  0.00    +0.000 A 
BRANCH   7  10
ATOM     10  C   UNL     1       1.107   2.709  19.125  0.00  0.00    +0.000 C 
ATOM     11  O   UNL     1       0.098   2.311  18.568  0.00  0.00    +0.000 OA
BRANCH  10  12
ATOM     12  O   UNL     1       1.269   2.669  20.463  0.00  0.00    +0.000 OA
ATOM     13  H   UNL     1       1.044   1.826  20.894  0.00  0.00    +0.000 HD
ENDBRANCH  10  12
ENDBRANCH   7  10
ENDBRANCH   1   4
BRANCH   1  14
ATOM     14  N   UNL     1       6.931   5.039  16.646  0.00  0.00    +0.000 NA
ATOM     15  H   UNL     1       7.021   4.074  16.976  0.00  0.00    +0.000 HD
BRANCH  14  16
ATOM     16  C   UNL     1       7.352   6.043  17.638  0.00  0.00    +0.000 C 
BRANCH  16  18
ATOM     17  O   UNL     1       6.332   4.757  19.415  0.00  0.00    +0.000 OA
ATOM     18  C   UNL     1       7.280   5.445  19.035  0.00  0.00    +0.000 C 
ATOM     19  N   UNL     1       8.351   5.752  19.844  0.00  0.00    +0.000 N 
ATOM     20  H   UNL     1       9.265   5.996  19.471  0.00  0.00    +0.000 HD
BRANCH  19  21
ATOM     21  O   UNL     1       8.350   5.172  21.133  0.00  0.00    +0.000 OA
ATOM     22  H   UNL     1       7.449   4.790  21.204  0.00  0.00    +0.000 HD
ENDBRANCH  19  21
ENDBRANCH  16  18
ENDBRANCH  14  16
ENDBRANCH   1  14
TORSDOF 7
ENDMDL
MODEL 4
REMARK VINA RESULT:      -6.8      0.916      1.453
REMARK  Name = 
REMARK  7 active torsions:
REMARK  status: ('A' for Active; 'I' for Inactive)
REMARK    1  A    between atoms: C_2  and  C_3
REMARK    2  A    between atoms: C_3  and  N_4
REMARK    3  A    between atoms: N_4  and  S_5
REMARK    4  A    between atoms: S_5  and  C_8
REMARK    5  A    between atoms: C_11  and  C_12
REMARK    6  A    between atoms: C_12  and  O_14
REMARK    7  A    between atoms: N_17  and  O_18
REMARK                            x       y       z     vdW  Elec       q    Type
REMARK                         _______ _______ _______ _____ _____    ______ ____
ROOT
ATOM      1  S   UNL     1       5.567   5.892  16.110  0.00  0.00    +0.000 S 
ATOM      2  O   UNL     1       4.824   6.789  15.252  0.00  0.00    +0.000 OA
ATOM      3  O   UNL     1       6.531   4.952  15.592  0.00  0.00    +0.000 OA
ENDROOT
BRANCH   1   4
ATOM      4  C   UNL     1       4.405   4.942  17.069  0.00  0.00    +0.000 A 
ATOM      5  C   UNL     1       3.346   5.578  17.722  0.00  0.00    +0.000 A 
ATOM      6  C   UNL     1       2.378   4.808  18.373  0.00  0.00    +0.000 A 
ATOM      7  C   UNL     1       2.464   3.407  18.376  0.00  0.00    +0.000 A 
ATOM      8  C   UNL     1       3.520   2.776  17.704  0.00  0.00    +0.000 A 
ATOM      9  C   UNL     1       4.490   3.544  17.050  0.00  0.00    +0.000 A 
BRANCH   7  10
ATOM     10  C   UNL     1       1.367   2.647  19.035  0.00  0.00    +0.000 C 
ATOM     11  O   UNL     1       1.506   2.102  20.118  0.00  0.00    +0.000 OA
BRANCH  10  12
ATOM     12  O   UNL     1       0.225   2.580  18.322  0.00  0.00    +0.000 OA
ATOM     13  H   UNL     1      -0.572   2.924  18.760  0.00  0.00    +0.000 HD
ENDBRANCH  10  12
ENDBRANCH   7  10
ENDBRANCH   1   4
BRANCH   1  14
ATOM     14  N   UNL     1       6.356   6.824  17.272  0.00  0.00    +0.000 NA
ATOM     15  H   UNL     1       6.423   7.813  17.021  0.00  0.00    +0.000 HD
BRANCH  14  16
ATOM     16  C   UNL     1       7.606   6.267  17.815  0.00  0.00    +0.000 C 
BRANCH  16  18
ATOM     17  O   UNL     1       6.245   5.592  19.697  0.00  0.00    +0.000 OA
ATOM     18  C   UNL     1       7.372   5.766  19.232  0.00  0.00    +0.000 C 
ATOM     19  N   UNL     1       8.522   5.540  19.956  0.00  0.00    +0.000 N 
ATOM     20  H   UNL     1       9.414   5.336  19.514  0.00  0.00    +0.000 HD
BRANCH  19  21
ATOM     21  O   UNL     1       8.351   5.023  21.260  0.00  0.00    +0.000 OA
ATOM     22  H   UNL     1       8.020   4.113  21.097  0.00  0.00    +0.000 HD
ENDBRANCH  19  21
ENDBRANCH  16  18
ENDBRANCH  14  16
ENDBRANCH   1  14
TORSDOF 7
ENDMDL
MODEL 5
REMARK VINA RESULT:      -6.8      2.938      6.047
REMARK  Name = 
REMARK  7 active torsions:
REMARK  status: ('A' for Active; 'I' for Inactive)
REMARK    1  A    between atoms: C_2  and  C_3
REMARK    2  A    between atoms: C_3  and  N_4
REMARK    3  A    between atoms: N_4  and  S_5
REMARK    4  A    between atoms: S_5  and  C_8
REMARK    5  A    between atoms: C_11  and  C_12
REMARK    6  A    between atoms: C_12  and  O_14
REMARK    7  A    between atoms: N_17  and  O_18
REMARK                            x       y       z     vdW  Elec       q    Type
REMARK                         _______ _______ _______ _____ _____    ______ ____
ROOT
ATOM      1  S   UNL     1       5.511   4.783  19.086  0.00  0.00    +0.000 S 
ATOM      2  O   UNL     1       4.276   5.509  19.289  0.00  0.00    +0.000 OA
ATOM      3  O   UNL     1       6.746   5.167  19.726  0.00  0.00    +0.000 OA
ENDROOT
BRANCH   1   4
ATOM      4  C   UNL     1       5.848   4.727  17.338  0.00  0.00    +0.000 A 
ATOM      5  C   UNL     1       7.101   5.109  16.851  0.00  0.00    +0.000 A 
ATOM      6  C   UNL     1       7.387   4.950  15.492  0.00  0.00    +0.000 A 
ATOM      7  C   UNL     1       6.429   4.413  14.618  0.00  0.00    +0.000 A 
ATOM      8  C   UNL     1       5.180   4.016  15.119  0.00  0.00    +0.000 A 
ATOM      9  C   UNL     1       4.891   4.173  16.479  0.00  0.00    +0.000 A 
BRANCH   7  10
ATOM     10  C   UNL     1       6.821   4.213  13.197  0.00  0.00    +0.000 C 
ATOM     11  O   UNL     1       7.539   4.997  12.599  0.00  0.00    +0.000 OA
BRANCH  10  12
ATOM     12  O   UNL     1       6.288   3.119  12.617  0.00  0.00    +0.000 OA
ATOM     13  H   UNL     1       5.384   3.218  12.272  0.00  0.00    +0.000 HD
ENDBRANCH  10  12
ENDBRANCH   7  10
ENDBRANCH   1   4
BRANCH   1  14
ATOM     14  N   UNL     1       5.231   3.168  19.477  0.00  0.00    +0.000 NA
ATOM     15  H   UNL     1       5.499   2.518  18.733  0.00  0.00    +0.000 HD
BRANCH  14  16
ATOM     16  C   UNL     1       3.924   2.862  20.084  0.00  0.00    +0.000 C 
BRANCH  16  18
ATOM     17  O   UNL     1       3.497   1.413  18.195  0.00  0.00    +0.000 OA
ATOM     18  C   UNL     1       3.041   2.149  19.071  0.00  0.00    +0.000 C 
ATOM     19  N   UNL     1       1.696   2.408  19.203  0.00  0.00    +0.000 N 
ATOM     20  H   UNL     1       1.279   2.701  20.083  0.00  0.00    +0.000 HD
BRANCH  19  21
ATOM     21  O   UNL     1       0.835   1.723  18.315  0.00  0.00    +0.000 OA
ATOM     22  H   UNL     1       1.432   1.077  17.881  0.00  0.00    +0.000 HD
ENDBRANCH  19  21
ENDBRANCH  16  18
ENDBRANCH  14  16
ENDBRANCH   1  14
TORSDOF 7
ENDMDL
MODEL 6
REMARK VINA RESULT:      -6.8      2.844      4.726
REMARK  Name = 
REMARK  7 active torsions:
REMARK  status: ('A' for Active; 'I' for Inactive)
REMARK    1  A    between atoms: C_2  and  C_3
REMARK    2  A    between atoms: C_3  and  N_4
REMARK    3  A    between atoms: N_4  and  S_5
REMARK    4  A    between atoms: S_5  and  C_8
REMARK    5  A    between atoms: C_11  and  C_12
REMARK    6  A    between atoms: C_12  and  O_14
REMARK    7  A    between atoms: N_17  and  O_18
REMARK                            x       y       z     vdW  Elec       q    Type
REMARK                         _______ _______ _______ _____ _____    ______ ____
ROOT
ATOM      1  S   UNL     1       6.639   4.765  16.051  0.00  0.00    +0.000 S 
ATOM      2  O   UNL     1       7.905   4.378  16.636  0.00  0.00    +0.000 OA
ATOM      3  O   UNL     1       6.438   6.051  15.429  0.00  0.00    +0.000 OA
ENDROOT
BRANCH   1   4
ATOM      4  C   UNL     1       5.375   4.605  17.295  0.00  0.00    +0.000 A 
ATOM      5  C   UNL     1       5.378   5.444  18.413  0.00  0.00    +0.000 A 
ATOM      6  C   UNL     1       4.316   5.384  19.320  0.00  0.00    +0.000 A 
ATOM      7  C   UNL     1       3.253   4.491  19.116  0.00  0.00    +0.000 A 
ATOM      8  C   UNL     1       3.249   3.665  17.983  0.00  0.00    +0.000 A 
ATOM      9  C   UNL     1       4.310   3.723  17.072  0.00  0.00    +0.000 A 
BRANCH   7  10
ATOM     10  C   UNL     1       2.125   4.523  20.087  0.00  0.00    +0.000 C 
ATOM     11  O   UNL     1       1.033   4.041  19.838  0.00  0.00    +0.000 OA
BRANCH  10  12
ATOM     12  O   UNL     1       2.399   5.159  21.243  0.00  0.00    +0.000 OA
ATOM     13  H   UNL     1       1.864   4.895  22.011  0.00  0.00    +0.000 HD
ENDBRANCH  10  12
ENDBRANCH   7  10
ENDBRANCH   1   4
BRANCH   1  14
ATOM     14  N   UNL     1       6.215   3.592  14.917  0.00  0.00    +0.000 NA
ATOM     15  H   UNL     1       6.931   2.872  14.791  0.00  0.00    +0.000 HD
BRANCH  14  16
ATOM     16  C   UNL     1       5.647   4.086  13.651  0.00  0.00    +0.000 C 
BRANCH  16  18
ATOM     17  O   UNL     1       7.300   4.202  11.890  0.00  0.00    +0.000 OA
ATOM     18  C   UNL     1       6.448   3.537  12.480  0.00  0.00    +0.000 C 
ATOM     19  N   UNL     1       6.129   2.246  12.125  0.00  0.00    +0.000 N 
ATOM     20  H   UNL     1       5.717   1.585  12.778  0.00  0.00    +0.000 HD
BRANCH  19  21
ATOM     21  O   UNL     1       6.888   1.679  11.075  0.00  0.00    +0.000 OA
ATOM     22  H   UNL     1       6.802   2.341  10.356  0.00  0.00    +0.000 HD
ENDBRANCH  19  21
ENDBRANCH  16  18
ENDBRANCH  14  16
ENDBRANCH   1  14
TORSDOF 7
ENDMDL
MODEL 7
REMARK VINA RESULT:      -6.7      1.288      1.597
REMARK  Name = 
REMARK  7 active torsions:
REMARK  status: ('A' for Active; 'I' for Inactive)
REMARK    1  A    between atoms: C_2  and  C_3
REMARK    2  A    between atoms: C_3  and  N_4
REMARK    3  A    between atoms: N_4  and  S_5
REMARK    4  A    between atoms: S_5  and  C_8
REMARK    5  A    between atoms: C_11  and  C_12
REMARK    6  A    between atoms: C_12  and  O_14
REMARK    7  A    between atoms: N_17  and  O_18
REMARK                            x       y       z     vdW  Elec       q    Type
REMARK                         _______ _______ _______ _____ _____    ______ ____
ROOT
ATOM      1  S   UNL     1       5.314   4.707  16.326  0.00  0.00    +0.000 S 
ATOM      2  O   UNL     1       4.942   5.983  15.757  0.00  0.00    +0.000 OA
ATOM      3  O   UNL     1       5.346   3.494  15.546  0.00  0.00    +0.000 OA
ENDROOT
BRANCH   1   4
ATOM      4  C   UNL     1       4.248   4.381  17.716  0.00  0.00    +0.000 A 
ATOM      5  C   UNL     1       2.920   4.816  17.701  0.00  0.00    +0.000 A 
ATOM      6  C   UNL     1       2.066   4.453  18.746  0.00  0.00    +0.000 A 
ATOM      7  C   UNL     1       2.532   3.660  19.806  0.00  0.00    +0.000 A 
ATOM      8  C   UNL     1       3.862   3.213  19.805  0.00  0.00    +0.000 A 
ATOM      9  C   UNL     1       4.719   3.574  18.759  0.00  0.00    +0.000 A 
BRANCH   7  10
ATOM     10  C   UNL     1       1.555   3.259  20.853  0.00  0.00    +0.000 C 
ATOM     11  O   UNL     1       1.879   3.064  22.013  0.00  0.00    +0.000 OA
BRANCH  10  12
ATOM     12  O   UNL     1       0.293   3.091  20.408  0.00  0.00    +0.000 OA
ATOM     13  H   UNL     1       0.100   3.461  19.529  0.00  0.00    +0.000 HD
ENDBRANCH  10  12
ENDBRANCH   7  10
ENDBRANCH   1   4
BRANCH   1  14
ATOM     14  N   UNL     1       6.832   4.882  17.037  0.00  0.00    +0.000 NA
ATOM     15  H   UNL     1       6.969   4.282  17.856  0.00  0.00    +0.000 HD
BRANCH  14  16
ATOM     16  C   UNL     1       7.305   6.263  17.233  0.00  0.00    +0.000 C 
BRANCH  16  18
ATOM     17  O   UNL     1       8.524   7.411  18.979  0.00  0.00    +0.000 OA
ATOM     18  C   UNL     1       7.902   6.408  18.625  0.00  0.00    +0.000 C 
ATOM     19  N   UNL     1       7.706   5.322  19.447  0.00  0.00    +0.000 N 
ATOM     20  H   UNL     1       6.935   4.672  19.320  0.00  0.00    +0.000 HD
BRANCH  19  21
ATOM     21  O   UNL     1       8.199   5.438  20.767  0.00  0.00    +0.000 OA
ATOM     22  H   UNL     1       7.403   5.696  21.280  0.00  0.00    +0.000 HD
ENDBRANCH  19  21
ENDBRANCH  16  18
ENDBRANCH  14  16
ENDBRANCH   1  14
TORSDOF 7
ENDMDL
MODEL 8
REMARK VINA RESULT:      -6.7      2.002      3.700
REMARK  Name = 
REMARK  7 active torsions:
REMARK  status: ('A' for Active; 'I' for Inactive)
REMARK    1  A    between atoms: C_2  and  C_3
REMARK    2  A    between atoms: C_3  and  N_4
REMARK    3  A    between atoms: N_4  and  S_5
REMARK    4  A    between atoms: S_5  and  C_8
REMARK    5  A    between atoms: C_11  and  C_12
REMARK    6  A    between atoms: C_12  and  O_14
REMARK    7  A    between atoms: N_17  and  O_18
REMARK                            x       y       z     vdW  Elec       q    Type
REMARK                         _______ _______ _______ _____ _____    ______ ____
ROOT
ATOM      1  S   UNL     1       6.371   5.332  18.141  0.00  0.00    +0.000 S 
ATOM      2  O   UNL     1       7.211   5.256  19.317  0.00  0.00    +0.000 OA
ATOM      3  O   UNL     1       6.061   6.584  17.494  0.00  0.00    +0.000 OA
ENDROOT
BRANCH   1   4
ATOM      4  C   UNL     1       4.810   4.561  18.518  0.00  0.00    +0.000 A 
ATOM      5  C   UNL     1       4.769   3.399  19.293  0.00  0.00    +0.000 A 
ATOM      6  C   UNL     1       3.532   2.872  19.676  0.00  0.00    +0.000 A 
ATOM      7  C   UNL     1       2.338   3.499  19.287  0.00  0.00    +0.000 A 
ATOM      8  C   UNL     1       2.389   4.674  18.524  0.00  0.00    +0.000 A 
ATOM      9  C   UNL     1       3.626   5.205  18.140  0.00  0.00    +0.000 A 
BRANCH   7  10
ATOM     10  C   UNL     1       1.059   2.921  19.781  0.00  0.00    +0.000 C 
ATOM     11  O   UNL     1       0.747   2.932  20.961  0.00  0.00    +0.000 OA
BRANCH  10  12
ATOM     12  O   UNL     1       0.296   2.352  18.827  0.00  0.00    +0.000 OA
ATOM     13  H   UNL     1       0.771   1.838  18.152  0.00  0.00    +0.000 HD
ENDBRANCH  10  12
ENDBRANCH   7  10
ENDBRANCH   1   4
BRANCH   1  14
ATOM     14  N   UNL     1       7.031   4.317  16.969  0.00  0.00    +0.000 NA
ATOM     15  H   UNL     1       7.961   4.608  16.657  0.00  0.00    +0.000 HD
BRANCH  14  16
ATOM     16  C   UNL     1       6.135   3.925  15.868  0.00  0.00    +0.000 C 
BRANCH  16  18
ATOM     17  O   UNL     1       7.548   5.272  14.440  0.00  0.00    +0.000 OA
ATOM     18  C   UNL     1       6.742   4.346  14.538  0.00  0.00    +0.000 C 
ATOM     19  N   UNL     1       6.303   3.620  13.454  0.00  0.00    +0.000 N 
ATOM     20  H   UNL     1       5.941   2.674  13.540  0.00  0.00    +0.000 HD
BRANCH  19  21
ATOM     21  O   UNL     1       6.883   3.944  12.206  0.00  0.00    +0.000 OA
ATOM     22  H   UNL     1       7.069   4.904  12.289  0.00  0.00    +0.000 HD
ENDBRANCH  19  21
ENDBRANCH  16  18
ENDBRANCH  14  16
ENDBRANCH   1  14
TORSDOF 7
ENDMDL
MODEL 9
REMARK VINA RESULT:      -6.7      2.827      4.624
REMARK  Name = 
REMARK  7 active torsions:
REMARK  status: ('A' for Active; 'I' for Inactive)
REMARK    1  A    between atoms: C_2  and  C_3
REMARK    2  A    between atoms: C_3  and  N_4
REMARK    3  A    between atoms: N_4  and  S_5
REMARK    4  A    between atoms: S_5  and  C_8
REMARK    5  A    between atoms: C_11  and  C_12
REMARK    6  A    between atoms: C_12  and  O_14
REMARK    7  A    between atoms: N_17  and  O_18
REMARK                            x       y       z     vdW  Elec       q    Type
REMARK                         _______ _______ _______ _____ _____    ______ ____
ROOT
ATOM      1  S   UNL     1       5.057   4.043  18.627  0.00  0.00    +0.000 S 
ATOM      2  O   UNL     1       4.263   2.898  19.016  0.00  0.00    +0.000 OA
ATOM      3  O   UNL     1       6.222   4.462  19.368  0.00  0.00    +0.000 OA
ENDROOT
BRANCH   1   4
ATOM      4  C   UNL     1       3.985   5.463  18.532  0.00  0.00    +0.000 A 
ATOM      5  C   UNL     1       3.071   5.723  19.557  0.00  0.00    +0.000 A 
ATOM      6  C   UNL     1       2.320   6.901  19.525  0.00  0.00    +0.000 A 
ATOM      7  C   UNL     1       2.476   7.819  18.474  0.00  0.00    +0.000 A 
ATOM      8  C   UNL     1       3.408   7.558  17.459  0.00  0.00    +0.000 A 
ATOM      9  C   UNL     1       4.163   6.380  17.489  0.00  0.00    +0.000 A 
BRANCH   7  10
ATOM     10  C   UNL     1       1.691   9.081  18.534  0.00  0.00    +0.000 C 
ATOM     11  O   UNL     1       1.027   9.394  19.508  0.00  0.00    +0.000 OA
BRANCH  10  12
ATOM     12  O   UNL     1       1.744   9.829  17.413  0.00  0.00    +0.000 OA
ATOM     13  H   UNL     1       1.602  10.784  17.531  0.00  0.00    +0.000 HD
ENDBRANCH  10  12
ENDBRANCH   7  10
ENDBRANCH   1   4
BRANCH   1  14
ATOM     14  N   UNL     1       5.539   3.817  17.028  0.00  0.00    +0.000 NA
ATOM     15  H   UNL     1       5.414   2.856  16.698  0.00  0.00    +0.000 HD
BRANCH  14  16
ATOM     16  C   UNL     1       6.835   4.406  16.648  0.00  0.00    +0.000 C 
BRANCH  16  18
ATOM     17  O   UNL     1       6.342   3.714  14.384  0.00  0.00    +0.000 OA
ATOM     18  C   UNL     1       6.936   4.490  15.133  0.00  0.00    +0.000 C 
ATOM     19  N   UNL     1       7.760   5.491  14.670  0.00  0.00    +0.000 N 
ATOM     20  H   UNL     1       7.964   6.326  15.213  0.00  0.00    +0.000 HD
BRANCH  19  21
ATOM     21  O   UNL     1       7.840   5.638  13.266  0.00  0.00    +0.000 OA
ATOM     22  H   UNL     1       8.247   6.525  13.158  0.00  0.00    +0.000 HD
ENDBRANCH  19  21
ENDBRANCH  16  18
ENDBRANCH  14  16
ENDBRANCH   1  14
TORSDOF 7
ENDMDL
