MODEL 1
REMARK VINA RESULT:      -7.2      0.000      0.000
REMARK  Name = 
REMARK  7 active torsions:
REMARK  status: ('A' for Active; 'I' for Inactive)
REMARK    1  A    between atoms: C_1  and  O_2
REMARK    2  A    between atoms: O_2  and  C_3
REMARK    3  A    between atoms: C_8  and  C_9
REMARK    4  A    between atoms: C_9  and  N_10
REMARK    5  A    between atoms: C_11  and  C_13
REMARK    6  A    between atoms: C_13  and  C_14
REMARK    7  A    between atoms: C_19  and  O_20
REMARK                            x       y       z     vdW  Elec       q    Type
REMARK                         _______ _______ _______ _____ _____    ______ ____
ROOT
ATOM      1  N   UNL     1       8.587   8.926  18.494  0.00  0.00    +0.000 N 
ATOM      2  C   UNL     1       7.803   7.979  17.876  0.00  0.00    +0.000 C 
ATOM      3  O   UNL     1       7.023   8.241  16.964  0.00  0.00    +0.000 OA
ATOM      4  H   UNL     1       9.176   8.642  19.265  0.00  0.00    +0.000 HD
ENDROOT
BRANCH   1   5
ATOM      5  C   UNL     1       8.579  10.327  18.115  0.00  0.00    +0.000 C 
BRANCH   5  11
ATOM      6  C   UNL     1      10.046  11.284  20.014  0.00  0.00    +0.000 A 
ATOM      7  C   UNL     1      11.194  12.008  20.382  0.00  0.00    +0.000 A 
ATOM      8  C   UNL     1      12.084  12.494  19.432  0.00  0.00    +0.000 A 
ATOM      9  C   UNL     1      11.847  12.264  18.089  0.00  0.00    +0.000 A 
ATOM     10  C   UNL     1      10.708  11.553  17.705  0.00  0.00    +0.000 A 
ATOM     11  C   UNL     1       9.784  11.068  18.650  0.00  0.00    +0.000 A 
BRANCH   6  13
ATOM     12  C   UNL     1       8.710  11.765  21.913  0.00  0.00    +0.000 C 
ATOM     13  O   UNL     1       9.143  10.812  20.937  0.00  0.00    +0.000 OA
ENDBRANCH   6  13
ENDBRANCH   5  11
ENDBRANCH   1   5
BRANCH   2  14
ATOM     14  C   UNL     1       7.943   6.563  18.415  0.00  0.00    +0.000 C 
BRANCH  14  15
ATOM     15  C   UNL     1       6.763   5.706  18.033  0.00  0.00    +0.000 A 
ATOM     16  C   UNL     1       5.815   5.337  18.999  0.00  0.00    +0.000 A 
ATOM     17  C   UNL     1       4.797   4.434  18.686  0.00  0.00    +0.000 A 
ATOM     18  C   UNL     1       4.711   3.898  17.403  0.00  0.00    +0.000 A 
ATOM     19  C   UNL     1       5.625   4.285  16.422  0.00  0.00    +0.000 A 
ATOM     20  C   UNL     1       6.641   5.184  16.742  0.00  0.00    +0.000 A 
BRANCH  20  21
ATOM     21  O   UNL     1       7.558   5.555  15.796  0.00  0.00    +0.000 OA
ATOM     22  H   UNL     1       8.221   4.847  15.725  0.00  0.00    +0.000 HD
ENDBRANCH  20  21
ENDBRANCH  14  15
ENDBRANCH   2  14
TORSDOF 6
ENDMDL
MODEL 2
REMARK VINA RESULT:      -7.2      5.931      7.990
REMARK  Name = 
REMARK  7 active torsions:
REMARK  status: ('A' for Active; 'I' for Inactive)
REMARK    1  A    between atoms: C_1  and  O_2
REMARK    2  A    between atoms: O_2  and  C_3
REMARK    3  A    between atoms: C_8  and  C_9
REMARK    4  A    between atoms: C_9  and  N_10
REMARK    5  A    between atoms: C_11  and  C_13
REMARK    6  A    between atoms: C_13  and  C_14
REMARK    7  A    between atoms: C_19  and  O_20
REMARK                            x       y       z     vdW  Elec       q    Type
REMARK                         _______ _______ _______ _____ _____    ______ ____
ROOT
ATOM      1  N   UNL     1       4.835   5.513  17.181  0.00  0.00    +0.000 N 
ATOM      2  C   UNL     1       5.501   5.954  16.061  0.00  0.00    +0.000 C 
ATOM      3  O   UNL     1       5.146   6.931  15.407  0.00  0.00    +0.000 OA
ATOM      4  H   UNL     1       5.163   4.678  17.645  0.00  0.00    +0.000 HD
ENDROOT
BRANCH   1   5
ATOM      5  C   UNL     1       3.654   6.173  17.708  0.00  0.00    +0.000 C 
BRANCH   5  11
ATOM      6  C   UNL     1       3.077   3.980  18.947  0.00  0.00    +0.000 A 
ATOM      7  C   UNL     1       2.414   3.358  20.019  0.00  0.00    +0.000 A 
ATOM      8  C   UNL     1       1.710   4.093  20.966  0.00  0.00    +0.000 A 
ATOM      9  C   UNL     1       1.658   5.471  20.863  0.00  0.00    +0.000 A 
ATOM     10  C   UNL     1       2.305   6.105  19.801  0.00  0.00    +0.000 A 
ATOM     11  C   UNL     1       3.007   5.379  18.821  0.00  0.00    +0.000 A 
BRANCH   6  13
ATOM     12  C   UNL     1       3.365   1.903  17.841  0.00  0.00    +0.000 C 
ATOM     13  O   UNL     1       3.762   3.270  17.989  0.00  0.00    +0.000 OA
ENDBRANCH   6  13
ENDBRANCH   5  11
ENDBRANCH   1   5
BRANCH   2  14
ATOM     14  C   UNL     1       6.715   5.130  15.657  0.00  0.00    +0.000 C 
BRANCH  14  15
ATOM     15  C   UNL     1       6.613   4.659  14.228  0.00  0.00    +0.000 A 
ATOM     16  C   UNL     1       5.588   3.782  13.845  0.00  0.00    +0.000 A 
ATOM     17  C   UNL     1       5.566   3.234  12.561  0.00  0.00    +0.000 A 
ATOM     18  C   UNL     1       6.564   3.563  11.646  0.00  0.00    +0.000 A 
ATOM     19  C   UNL     1       7.568   4.463  12.002  0.00  0.00    +0.000 A 
ATOM     20  C   UNL     1       7.586   5.004  13.286  0.00  0.00    +0.000 A 
BRANCH  20  21
ATOM     21  O   UNL     1       8.579   5.870  13.657  0.00  0.00    +0.000 OA
ATOM     22  H   UNL     1       9.265   5.361  14.123  0.00  0.00    +0.000 HD
ENDBRANCH  20  21
ENDBRANCH  14  15
ENDBRANCH   2  14
TORSDOF 6
ENDMDL
MODEL 3
REMARK VINA RESULT:      -7.2      1.003      1.513
REMARK  Name = 
REMARK  7 active torsions:
REMARK  status: ('A' for Active; 'I' for Inactive)
REMARK    1  A    between atoms: C_1  and  O_2
REMARK    2  A    between atoms: O_2  and  C_3
REMARK    3  A    between atoms: C_8  and  C_9
REMARK    4  A    between atoms: C_9  and  N_10
REMARK    5  A    between atoms: C_11  and  C_13
REMARK    6  A    between atoms: C_13  and  C_14
REMARK    7  A    between atoms: C_19  and  O_20
REMARK                            x       y       z     vdW  Elec       q    Type
REMARK                         _______ _______ _______ _____ _____    ______ ____
ROOT
ATOM      1  N   UNL     1       8.543   8.758  18.527  0.00  0.00    +0.000 N 
ATOM      2  C   UNL     1       7.784   7.791  17.910  0.00  0.00    +0.000 C 
ATOM      3  O   UNL     1       7.031   8.023  16.968  0.00  0.00    +0.000 OA
ATOM      4  H   UNL     1       9.111   8.499  19.322  0.00  0.00    +0.000 HD
ENDROOT
BRANCH   1   5
ATOM      5  C   UNL     1       8.539  10.150  18.110  0.00  0.00    +0.000 C 
BRANCH   5  11
ATOM      6  C   UNL     1       9.968  11.183  19.999  0.00  0.00    +0.000 A 
ATOM      7  C   UNL     1      11.112  11.915  20.361  0.00  0.00    +0.000 A 
ATOM      8  C   UNL     1      12.029  12.350  19.412  0.00  0.00    +0.000 A 
ATOM      9  C   UNL     1      11.822  12.060  18.076  0.00  0.00    +0.000 A 
ATOM     10  C   UNL     1      10.687  11.340  17.697  0.00  0.00    +0.000 A 
ATOM     11  C   UNL     1       9.737  10.906  18.640  0.00  0.00    +0.000 A 
BRANCH   6  13
ATOM     12  C   UNL     1       8.688  11.720  21.921  0.00  0.00    +0.000 C 
ATOM     13  O   UNL     1       9.039  10.759  20.920  0.00  0.00    +0.000 OA
ENDBRANCH   6  13
ENDBRANCH   5  11
ENDBRANCH   1   5
BRANCH   2  14
ATOM     14  C   UNL     1       7.917   6.390  18.490  0.00  0.00    +0.000 C 
BRANCH  14  15
ATOM     15  C   UNL     1       6.992   5.417  17.803  0.00  0.00    +0.000 A 
ATOM     16  C   UNL     1       7.302   4.931  16.524  0.00  0.00    +0.000 A 
ATOM     17  C   UNL     1       6.388   4.140  15.825  0.00  0.00    +0.000 A 
ATOM     18  C   UNL     1       5.160   3.821  16.400  0.00  0.00    +0.000 A 
ATOM     19  C   UNL     1       4.854   4.268  17.686  0.00  0.00    +0.000 A 
ATOM     20  C   UNL     1       5.769   5.059  18.377  0.00  0.00    +0.000 A 
BRANCH  20  21
ATOM     21  O   UNL     1       5.473   5.524  19.631  0.00  0.00    +0.000 OA
ATOM     22  H   UNL     1       6.031   6.301  19.803  0.00  0.00    +0.000 HD
ENDBRANCH  20  21
ENDBRANCH  14  15
ENDBRANCH   2  14
TORSDOF 6
ENDMDL
MODEL 4
REMARK VINA RESULT:      -7.2      4.581      7.065
REMARK  Name = 
REMARK  7 active torsions:
REMARK  status: ('A' for Active; 'I' for Inactive)
REMARK    1  A    between atoms: C_1  and  O_2
REMARK    2  A    between atoms: O_2  and  C_3
REMARK    3  A    between atoms: C_8  and  C_9
REMARK    4  A    between atoms: C_9  and  N_10
REMARK    5  A    between atoms: C_11  and  C_13
REMARK    6  A    between atoms: C_13  and  C_14
REMARK    7  A    between atoms: C_19  and  O_20
REMARK                            x       y       z     vdW  Elec       q    Type
REMARK                         _______ _______ _______ _____ _____    ______ ____
ROOT
ATOM      1  N   UNL     1       3.484   5.719  20.078  0.00  0.00    +0.000 N 
ATOM      2  C   UNL     1       3.715   4.561  19.373  0.00  0.00    +0.000 C 
ATOM      3  O   UNL     1       2.817   3.838  18.948  0.00  0.00    +0.000 OA
ATOM      4  H   UNL     1       4.274   6.242  20.429  0.00  0.00    +0.000 HD
ENDROOT
BRANCH   1   5
ATOM      5  C   UNL     1       2.149   6.209  20.375  0.00  0.00    +0.000 C 
BRANCH   5  11
ATOM      6  C   UNL     1       1.180   8.604  20.355  0.00  0.00    +0.000 A 
ATOM      7  C   UNL     1       0.979   9.801  19.645  0.00  0.00    +0.000 A 
ATOM      8  C   UNL     1       1.475   9.977  18.358  0.00  0.00    +0.000 A 
ATOM      9  C   UNL     1       2.187   8.957  17.753  0.00  0.00    +0.000 A 
ATOM     10  C   UNL     1       2.390   7.759  18.441  0.00  0.00    +0.000 A 
ATOM     11  C   UNL     1       1.881   7.554  19.736  0.00  0.00    +0.000 A 
BRANCH   6  13
ATOM     12  C   UNL     1       0.445   9.592  22.381  0.00  0.00    +0.000 C 
ATOM     13  O   UNL     1       0.682   8.403  21.621  0.00  0.00    +0.000 OA
ENDBRANCH   6  13
ENDBRANCH   5  11
ENDBRANCH   1   5
BRANCH   2  14
ATOM     14  C   UNL     1       5.181   4.207  19.164  0.00  0.00    +0.000 C 
BRANCH  14  15
ATOM     15  C   UNL     1       5.955   5.369  18.596  0.00  0.00    +0.000 A 
ATOM     16  C   UNL     1       5.519   6.002  17.422  0.00  0.00    +0.000 A 
ATOM     17  C   UNL     1       6.301   6.987  16.814  0.00  0.00    +0.000 A 
ATOM     18  C   UNL     1       7.521   7.354  17.378  0.00  0.00    +0.000 A 
ATOM     19  C   UNL     1       7.949   6.758  18.565  0.00  0.00    +0.000 A 
ATOM     20  C   UNL     1       7.166   5.774  19.165  0.00  0.00    +0.000 A 
BRANCH  20  21
ATOM     21  O   UNL     1       7.584   5.165  20.318  0.00  0.00    +0.000 OA
ATOM     22  H   UNL     1       7.822   5.859  20.955  0.00  0.00    +0.000 HD
ENDBRANCH  20  21
ENDBRANCH  14  15
ENDBRANCH   2  14
TORSDOF 6
ENDMDL
MODEL 5
REMARK VINA RESULT:      -7.1      6.011      8.294
REMARK  Name = 
REMARK  7 active torsions:
REMARK  status: ('A' for Active; 'I' for Inactive)
REMARK    1  A    between atoms: C_1  and  O_2
REMARK    2  A    between atoms: O_2  and  C_3
REMARK    3  A    between atoms: C_8  and  C_9
REMARK    4  A    between atoms: C_9  and  N_10
REMARK    5  A    between atoms: C_11  and  C_13
REMARK    6  A    between atoms: C_13  and  C_14
REMARK    7  A    between atoms: C_19  and  O_20
REMARK                            x       y       z     vdW  Elec       q    Type
REMARK                         _______ _______ _______ _____ _____    ______ ____
ROOT
ATOM      1  N   UNL     1       3.672   3.684  16.791  0.00  0.00    +0.000 N 
ATOM      2  C   UNL     1       4.707   4.437  16.289  0.00  0.00    +0.000 C 
ATOM      3  O   UNL     1       4.665   5.661  16.190  0.00  0.00    +0.000 OA
ATOM      4  H   UNL     1       3.763   2.678  16.806  0.00  0.00    +0.000 HD
ENDROOT
BRANCH   1   5
ATOM      5  C   UNL     1       2.430   4.267  17.269  0.00  0.00    +0.000 C 
BRANCH   5  11
ATOM      6  C   UNL     1       2.915   4.668  19.775  0.00  0.00    +0.000 A 
ATOM      7  C   UNL     1       2.635   4.329  21.110  0.00  0.00    +0.000 A 
ATOM      8  C   UNL     1       1.671   3.382  21.435  0.00  0.00    +0.000 A 
ATOM      9  C   UNL     1       0.960   2.755  20.428  0.00  0.00    +0.000 A 
ATOM     10  C   UNL     1       1.230   3.074  19.095  0.00  0.00    +0.000 A 
ATOM     11  C   UNL     1       2.215   4.016  18.745  0.00  0.00    +0.000 A 
BRANCH   6  13
ATOM     12  C   UNL     1       5.230   5.141  19.582  0.00  0.00    +0.000 C 
ATOM     13  O   UNL     1       3.878   5.587  19.432  0.00  0.00    +0.000 OA
ENDBRANCH   6  13
ENDBRANCH   5  11
ENDBRANCH   1   5
BRANCH   2  14
ATOM     14  C   UNL     1       5.926   3.648  15.832  0.00  0.00    +0.000 C 
BRANCH  14  15
ATOM     15  C   UNL     1       6.329   4.018  14.427  0.00  0.00    +0.000 A 
ATOM     16  C   UNL     1       5.848   3.280  13.335  0.00  0.00    +0.000 A 
ATOM     17  C   UNL     1       6.322   3.529  12.046  0.00  0.00    +0.000 A 
ATOM     18  C   UNL     1       7.276   4.522  11.834  0.00  0.00    +0.000 A 
ATOM     19  C   UNL     1       7.736   5.288  12.905  0.00  0.00    +0.000 A 
ATOM     20  C   UNL     1       7.261   5.033  14.190  0.00  0.00    +0.000 A 
BRANCH  20  21
ATOM     21  O   UNL     1       7.720   5.762  15.254  0.00  0.00    +0.000 OA
ATOM     22  H   UNL     1       8.345   5.207  15.751  0.00  0.00    +0.000 HD
ENDBRANCH  20  21
ENDBRANCH  14  15
ENDBRANCH   2  14
TORSDOF 6
ENDMDL
MODEL 6
REMARK VINA RESULT:      -7.0      4.446      6.488
REMARK  Name = 
REMARK  7 active torsions:
REMARK  status: ('A' for Active; 'I' for Inactive)
REMARK    1  A    between atoms: C_1  and  O_2
REMARK    2  A    between atoms: O_2  and  C_3
REMARK    3  A    between atoms: C_8  and  C_9
REMARK    4  A    between atoms: C_9  and  N_10
REMARK    5  A    between atoms: C_11  and  C_13
REMARK    6  A    between atoms: C_13  and  C_14
REMARK    7  A    between atoms: C_19  and  O_20
REMARK                            x       y       z     vdW  Elec       q    Type
REMARK                         _______ _______ _______ _____ _____    ______ ____
ROOT
ATOM      1  N   UNL     1       5.345   3.046  16.451  0.00  0.00    +0.000 N 
ATOM      2  C   UNL     1       4.121   3.230  17.051  0.00  0.00    +0.000 C 
ATOM      3  O   UNL     1       3.549   4.316  17.096  0.00  0.00    +0.000 OA
ATOM      4  H   UNL     1       5.772   2.130  16.487  0.00  0.00    +0.000 HD
ENDROOT
BRANCH   1   5
ATOM      5  C   UNL     1       6.074   4.118  15.799  0.00  0.00    +0.000 C 
BRANCH   5  11
ATOM      6  C   UNL     1       6.484   6.456  16.820  0.00  0.00    +0.000 A 
ATOM      7  C   UNL     1       7.147   7.233  17.786  0.00  0.00    +0.000 A 
ATOM      8  C   UNL     1       7.994   6.659  18.727  0.00  0.00    +0.000 A 
ATOM      9  C   UNL     1       8.195   5.290  18.724  0.00  0.00    +0.000 A 
ATOM     10  C   UNL     1       7.551   4.504  17.766  0.00  0.00    +0.000 A 
ATOM     11  C   UNL     1       6.704   5.067  16.794  0.00  0.00    +0.000 A 
BRANCH   6  13
ATOM     12  C   UNL     1       4.359   7.388  16.335  0.00  0.00    +0.000 C 
ATOM     13  O   UNL     1       5.657   7.006  15.869  0.00  0.00    +0.000 OA
ENDBRANCH   6  13
ENDBRANCH   5  11
ENDBRANCH   1   5
BRANCH   2  14
ATOM     14  C   UNL     1       3.513   1.988  17.688  0.00  0.00    +0.000 C 
BRANCH  14  15
ATOM     15  C   UNL     1       2.818   2.316  18.985  0.00  0.00    +0.000 A 
ATOM     16  C   UNL     1       1.450   2.628  18.995  0.00  0.00    +0.000 A 
ATOM     17  C   UNL     1       0.830   3.065  20.167  0.00  0.00    +0.000 A 
ATOM     18  C   UNL     1       1.570   3.188  21.342  0.00  0.00    +0.000 A 
ATOM     19  C   UNL     1       2.922   2.846  21.355  0.00  0.00    +0.000 A 
ATOM     20  C   UNL     1       3.536   2.413  20.181  0.00  0.00    +0.000 A 
BRANCH  20  21
ATOM     21  O   UNL     1       4.867   2.096  20.173  0.00  0.00    +0.000 OA
ATOM     22  H   UNL     1       5.012   1.421  19.488  0.00  0.00    +0.000 HD
ENDBRANCH  20  21
ENDBRANCH  14  15
ENDBRANCH   2  14
TORSDOF 6
ENDMDL
MODEL 7
REMARK VINA RESULT:      -7.0      4.487      8.585
REMARK  Name = 
REMARK  7 active torsions:
REMARK  status: ('A' for Active; 'I' for Inactive)
REMARK    1  A    between atoms: C_1  and  O_2
REMARK    2  A    between atoms: O_2  and  C_3
REMARK    3  A    between atoms: C_8  and  C_9
REMARK    4  A    between atoms: C_9  and  N_10
REMARK    5  A    between atoms: C_11  and  C_13
REMARK    6  A    between atoms: C_13  and  C_14
REMARK    7  A    between atoms: C_19  and  O_20
REMARK                            x       y       z     vdW  Elec       q    Type
REMARK                         _______ _______ _______ _____ _____    ______ ____
ROOT
ATOM      1  N   UNL     1       4.186   2.613  17.136  0.00  0.00    +0.000 N 
ATOM      2  C   UNL     1       4.446   3.920  16.796  0.00  0.00    +0.000 C 
ATOM      3  O   UNL     1       3.602   4.811  16.846  0.00  0.00    +0.000 OA
ATOM      4  H   UNL     1       4.920   1.927  17.032  0.00  0.00    +0.000 HD
ENDROOT
BRANCH   1   5
ATOM      5  C   UNL     1       2.887   2.162  17.605  0.00  0.00    +0.000 C 
BRANCH   5  11
ATOM      6  C   UNL     1       3.480   2.476  20.100  0.00  0.00    +0.000 A 
ATOM      7  C   UNL     1       3.084   2.933  21.369  0.00  0.00    +0.000 A 
ATOM      8  C   UNL     1       1.854   3.549  21.571  0.00  0.00    +0.000 A 
ATOM      9  C   UNL     1       0.992   3.724  20.503  0.00  0.00    +0.000 A 
ATOM     10  C   UNL     1       1.366   3.269  19.237  0.00  0.00    +0.000 A 
ATOM     11  C   UNL     1       2.599   2.627  19.015  0.00  0.00    +0.000 A 
BRANCH   6  13
ATOM     12  C   UNL     1       5.235   1.175  21.020  0.00  0.00    +0.000 C 
ATOM     13  O   UNL     1       4.684   1.847  19.884  0.00  0.00    +0.000 OA
ENDBRANCH   6  13
ENDBRANCH   5  11
ENDBRANCH   1   5
BRANCH   2  14
ATOM     14  C   UNL     1       5.865   4.200  16.321  0.00  0.00    +0.000 C 
BRANCH  14  15
ATOM     15  C   UNL     1       6.531   5.257  17.165  0.00  0.00    +0.000 A 
ATOM     16  C   UNL     1       6.915   6.479  16.594  0.00  0.00    +0.000 A 
ATOM     17  C   UNL     1       7.654   7.406  17.331  0.00  0.00    +0.000 A 
ATOM     18  C   UNL     1       8.009   7.124  18.649  0.00  0.00    +0.000 A 
ATOM     19  C   UNL     1       7.602   5.928  19.240  0.00  0.00    +0.000 A 
ATOM     20  C   UNL     1       6.868   5.006  18.498  0.00  0.00    +0.000 A 
BRANCH  20  21
ATOM     21  O   UNL     1       6.481   3.818  19.059  0.00  0.00    +0.000 OA
ATOM     22  H   UNL     1       6.931   3.100  18.582  0.00  0.00    +0.000 HD
ENDBRANCH  20  21
ENDBRANCH  14  15
ENDBRANCH   2  14
TORSDOF 6
ENDMDL
MODEL 8
REMARK VINA RESULT:      -7.0      5.418      7.902
REMARK  Name = 
REMARK  7 active torsions:
REMARK  status: ('A' for Active; 'I' for Inactive)
REMARK    1  A    between atoms: C_1  and  O_2
REMARK    2  A    between atoms: O_2  and  C_3
REMARK    3  A    between atoms: C_8  and  C_9
REMARK    4  A    between atoms: C_9  and  N_10
REMARK    5  A    between atoms: C_11  and  C_13
REMARK    6  A    between atoms: C_13  and  C_14
REMARK    7  A    between atoms: C_19  and  O_20
REMARK                            x       y       z     vdW  Elec       q    Type
REMARK                         _______ _______ _______ _____ _____    ______ ____
ROOT
ATOM      1  N   UNL     1       5.709   5.282  17.758  0.00  0.00    +0.000 N 
ATOM      2  C   UNL     1       6.925   4.991  17.184  0.00  0.00    +0.000 C 
ATOM      3  O   UNL     1       7.703   4.156  17.638  0.00  0.00    +0.000 OA
ATOM      4  H   UNL     1       5.139   6.009  17.350  0.00  0.00    +0.000 HD
ENDROOT
BRANCH   1   5
ATOM      5  C   UNL     1       5.219   4.614  18.952  0.00  0.00    +0.000 C 
BRANCH   5  11
ATOM      6  C   UNL     1       2.739   4.718  18.236  0.00  0.00    +0.000 A 
ATOM      7  C   UNL     1       1.507   4.052  18.113  0.00  0.00    +0.000 A 
ATOM      8  C   UNL     1       1.364   2.714  18.462  0.00  0.00    +0.000 A 
ATOM      9  C   UNL     1       2.454   2.010  18.940  0.00  0.00    +0.000 A 
ATOM     10  C   UNL     1       3.684   2.658  19.076  0.00  0.00    +0.000 A 
ATOM     11  C   UNL     1       3.845   4.016  18.746  0.00  0.00    +0.000 A 
BRANCH   6  13
ATOM     12  C   UNL     1       2.484   6.972  18.926  0.00  0.00    +0.000 C 
ATOM     13  O   UNL     1       2.897   6.046  17.916  0.00  0.00    +0.000 OA
ENDBRANCH   6  13
ENDBRANCH   5  11
ENDBRANCH   1   5
BRANCH   2  14
ATOM     14  C   UNL     1       7.268   5.799  15.940  0.00  0.00    +0.000 C 
BRANCH  14  15
ATOM     15  C   UNL     1       6.844   5.083  14.683  0.00  0.00    +0.000 A 
ATOM     16  C   UNL     1       5.704   4.266  14.685  0.00  0.00    +0.000 A 
ATOM     17  C   UNL     1       5.383   3.493  13.567  0.00  0.00    +0.000 A 
ATOM     18  C   UNL     1       6.193   3.536  12.434  0.00  0.00    +0.000 A 
ATOM     19  C   UNL     1       7.309   4.373  12.405  0.00  0.00    +0.000 A 
ATOM     20  C   UNL     1       7.626   5.139  13.525  0.00  0.00    +0.000 A 
BRANCH  20  21
ATOM     21  O   UNL     1       8.731   5.947  13.519  0.00  0.00    +0.000 OA
ATOM     22  H   UNL     1       9.495   5.410  13.250  0.00  0.00    +0.000 HD
ENDBRANCH  20  21
ENDBRANCH  14  15
ENDBRANCH   2  14
TORSDOF 6
ENDMDL
MODEL 9
REMARK VINA RESULT:      -7.0      4.403      8.537
REMARK  Name = 
REMARK  7 active torsions:
REMARK  status: ('A' for Active; 'I' for Inactive)
REMARK    1  A    between atoms: C_1  and  O_2
REMARK    2  A    between atoms: O_2  and  C_3
REMARK    3  A    between atoms: C_8  and  C_9
REMARK    4  A    between atoms: C_9  and  N_10
REMARK    5  A    between atoms: C_11  and  C_13
REMARK    6  A    between atoms: C_13  and  C_14
REMARK    7  A    between atoms: C_19  and  O_20
REMARK                            x       y       z     vdW  Elec       q    Type
REMARK                         _______ _______ _______ _____ _____    ______ ____
ROOT
ATOM      1  N   UNL     1       4.068   2.590  17.197  0.00  0.00    +0.000 N 
ATOM      2  C   UNL     1       4.574   3.812  16.816  0.00  0.00    +0.000 C 
ATOM      3  O   UNL     1       3.894   4.833  16.753  0.00  0.00    +0.000 OA
ATOM      4  H   UNL     1       4.680   1.786  17.188  0.00  0.00    +0.000 HD
ENDROOT
BRANCH   1   5
ATOM      5  C   UNL     1       2.681   2.394  17.578  0.00  0.00    +0.000 C 
BRANCH   5  11
ATOM      6  C   UNL     1       3.282   2.398  20.091  0.00  0.00    +0.000 A 
ATOM      7  C   UNL     1       2.927   2.772  21.399  0.00  0.00    +0.000 A 
ATOM      8  C   UNL     1       1.771   3.498  21.661  0.00  0.00    +0.000 A 
ATOM      9  C   UNL     1       0.943   3.870  20.617  0.00  0.00    +0.000 A 
ATOM     10  C   UNL     1       1.277   3.501  19.312  0.00  0.00    +0.000 A 
ATOM     11  C   UNL     1       2.432   2.750  19.027  0.00  0.00    +0.000 A 
BRANCH   6  13
ATOM     12  C   UNL     1       5.250   1.384  20.937  0.00  0.00    +0.000 C 
ATOM     13  O   UNL     1       4.410   1.663  19.813  0.00  0.00    +0.000 OA
ENDBRANCH   6  13
ENDBRANCH   5  11
ENDBRANCH   1   5
BRANCH   2  14
ATOM     14  C   UNL     1       6.051   3.820  16.448  0.00  0.00    +0.000 C 
BRANCH  14  15
ATOM     15  C   UNL     1       6.789   4.933  17.148  0.00  0.00    +0.000 A 
ATOM     16  C   UNL     1       7.506   4.673  18.325  0.00  0.00    +0.000 A 
ATOM     17  C   UNL     1       8.077   5.719  19.054  0.00  0.00    +0.000 A 
ATOM     18  C   UNL     1       7.944   7.033  18.608  0.00  0.00    +0.000 A 
ATOM     19  C   UNL     1       7.265   7.301  17.419  0.00  0.00    +0.000 A 
ATOM     20  C   UNL     1       6.695   6.253  16.698  0.00  0.00    +0.000 A 
BRANCH  20  21
ATOM     21  O   UNL     1       6.006   6.504  15.542  0.00  0.00    +0.000 OA
ATOM     22  H   UNL     1       6.558   7.074  14.981  0.00  0.00    +0.000 HD
ENDBRANCH  20  21
ENDBRANCH  14  15
ENDBRANCH   2  14
TORSDOF 6
ENDMDL
