MODEL 1
REMARK VINA RESULT:      -6.3      0.000      0.000
REMARK  Name = 
REMARK  5 active torsions:
REMARK  status: ('A' for Active; 'I' for Inactive)
REMARK    1  A    between atoms: C_2  and  O_3
REMARK    2  A    between atoms: C_2  and  C_4
REMARK    3  A    between atoms: C_5  and  C_6
REMARK    4  A    between atoms: C_8  and  O_9
REMARK    5  A    between atoms: C_10  and  O_11
REMARK                            x       y       z     vdW  Elec       q    Type
REMARK                         _______ _______ _______ _____ _____    ______ ____
ROOT
ATOM      1  C   UNL     1       5.927   4.388  16.368  0.00  0.00    +0.000 A 
ATOM      2  C   UNL     1       6.749   4.716  17.458  0.00  0.00    +0.000 A 
ATOM      3  C   UNL     1       6.178   5.051  18.683  0.00  0.00    +0.000 A 
ATOM      4  C   UNL     1       4.795   5.059  18.850  0.00  0.00    +0.000 A 
ATOM      5  C   UNL     1       3.969   4.728  17.782  0.00  0.00    +0.000 A 
ATOM      6 BR   UNL     1       2.081   4.712  17.956  0.00  0.00    +0.000 Br
ATOM      7  C   UNL     1       4.532   4.387  16.546  0.00  0.00    +0.000 A 
ENDROOT
BRANCH   1   9
ATOM      8  C   UNL     1       5.903   3.928  13.927  0.00  0.00    +0.000 C 
ATOM      9  C   UNL     1       6.563   4.000  15.094  0.00  0.00    +0.000 C 
BRANCH   8  11
ATOM     10  O   UNL     1       7.241   4.362  12.039  0.00  0.00    +0.000 OA
ATOM     11  C   UNL     1       6.472   3.600  12.605  0.00  0.00    +0.000 C 
BRANCH  11  12
ATOM     12  O   UNL     1       6.068   2.439  12.063  0.00  0.00    +0.000 OA
ATOM     13  H   UNL     1       6.754   1.936  11.590  0.00  0.00    +0.000 HD
ENDBRANCH  11  12
ENDBRANCH   8  11
ENDBRANCH   1   9
BRANCH   3  14
ATOM     14  O   UNL     1       6.945   5.380  19.768  0.00  0.00    +0.000 OA
ATOM     15  H   UNL     1       6.609   4.901  20.547  0.00  0.00    +0.000 HD
ENDBRANCH   3  14
BRANCH   4  16
ATOM     16  O   UNL     1       4.284   5.387  20.075  0.00  0.00    +0.000 OA
ATOM     17  H   UNL     1       4.983   5.150  20.716  0.00  0.00    +0.000 HD
ENDBRANCH   4  16
TORSDOF 5
ENDMDL
MODEL 2
REMARK VINA RESULT:      -6.3      2.853      5.904
REMARK  Name = 
REMARK  5 active torsions:
REMARK  status: ('A' for Active; 'I' for Inactive)
REMARK    1  A    between atoms: C_2  and  O_3
REMARK    2  A    between atoms: C_2  and  C_4
REMARK    3  A    between atoms: C_5  and  C_6
REMARK    4  A    between atoms: C_8  and  O_9
REMARK    5  A    between atoms: C_10  and  O_11
REMARK                            x       y       z     vdW  Elec       q    Type
REMARK                         _______ _______ _______ _____ _____    ______ ____
ROOT
ATOM      1  C   UNL     1       4.114   3.905  18.266  0.00  0.00    +0.000 A 
ATOM      2  C   UNL     1       5.192   4.326  19.062  0.00  0.00    +0.000 A 
ATOM      3  C   UNL     1       6.397   4.686  18.465  0.00  0.00    +0.000 A 
ATOM      4  C   UNL     1       6.551   4.644  17.081  0.00  0.00    +0.000 A 
ATOM      5  C   UNL     1       5.490   4.237  16.280  0.00  0.00    +0.000 A 
ATOM      6 BR   UNL     1       5.642   4.171  14.392  0.00  0.00    +0.000 Br
ATOM      7  C   UNL     1       4.273   3.875  16.870  0.00  0.00    +0.000 A 
ENDROOT
BRANCH   1   9
ATOM      8  C   UNL     1       2.734   3.263  20.228  0.00  0.00    +0.000 C 
ATOM      9  C   UNL     1       2.838   3.566  18.925  0.00  0.00    +0.000 C 
BRANCH   8  11
ATOM     10  O   UNL     1       1.530   2.538  22.119  0.00  0.00    +0.000 OA
ATOM     11  C   UNL     1       1.495   2.964  20.974  0.00  0.00    +0.000 C 
BRANCH  11  12
ATOM     12  O   UNL     1       0.346   3.160  20.306  0.00  0.00    +0.000 OA
ATOM     13  H   UNL     1       0.415   3.710  19.506  0.00  0.00    +0.000 HD
ENDBRANCH  11  12
ENDBRANCH   8  11
ENDBRANCH   1   9
BRANCH   3  14
ATOM     14  O   UNL     1       7.472   5.099  19.206  0.00  0.00    +0.000 OA
ATOM     15  H   UNL     1       7.493   4.593  20.037  0.00  0.00    +0.000 HD
ENDBRANCH   3  14
BRANCH   4  16
ATOM     16  O   UNL     1       7.753   5.016  16.544  0.00  0.00    +0.000 OA
ATOM     17  H   UNL     1       7.994   4.294  15.930  0.00  0.00    +0.000 HD
ENDBRANCH   4  16
TORSDOF 5
ENDMDL
MODEL 3
REMARK VINA RESULT:      -6.1      2.207      2.915
REMARK  Name = 
REMARK  5 active torsions:
REMARK  status: ('A' for Active; 'I' for Inactive)
REMARK    1  A    between atoms: C_2  and  O_3
REMARK    2  A    between atoms: C_2  and  C_4
REMARK    3  A    between atoms: C_5  and  C_6
REMARK    4  A    between atoms: C_8  and  O_9
REMARK    5  A    between atoms: C_10  and  O_11
REMARK                            x       y       z     vdW  Elec       q    Type
REMARK                         _______ _______ _______ _____ _____    ______ ____
ROOT
ATOM      1  C   UNL     1       3.849   5.176  17.442  0.00  0.00    +0.000 A 
ATOM      2  C   UNL     1       3.653   6.227  18.352  0.00  0.00    +0.000 A 
ATOM      3  C   UNL     1       2.725   6.092  19.382  0.00  0.00    +0.000 A 
ATOM      4  C   UNL     1       1.989   4.918  19.531  0.00  0.00    +0.000 A 
ATOM      5  C   UNL     1       2.178   3.866  18.643  0.00  0.00    +0.000 A 
ATOM      6 BR   UNL     1       1.211   2.244  18.806  0.00  0.00    +0.000 Br
ATOM      7  C   UNL     1       3.111   3.991  17.605  0.00  0.00    +0.000 A 
ENDROOT
BRANCH   1   9
ATOM      8  C   UNL     1       5.610   4.324  15.912  0.00  0.00    +0.000 C 
ATOM      9  C   UNL     1       4.866   5.336  16.385  0.00  0.00    +0.000 C 
BRANCH   8  11
ATOM     10  O   UNL     1       7.518   5.203  14.847  0.00  0.00    +0.000 OA
ATOM     11  C   UNL     1       6.608   4.389  14.825  0.00  0.00    +0.000 C 
BRANCH  11  12
ATOM     12  O   UNL     1       6.429   3.524  13.812  0.00  0.00    +0.000 OA
ATOM     13  H   UNL     1       6.226   2.609  14.073  0.00  0.00    +0.000 HD
ENDBRANCH  11  12
ENDBRANCH   8  11
ENDBRANCH   1   9
BRANCH   3  14
ATOM     14  O   UNL     1       2.503   7.094  20.287  0.00  0.00    +0.000 OA
ATOM     15  H   UNL     1       2.158   7.873  19.814  0.00  0.00    +0.000 HD
ENDBRANCH   3  14
BRANCH   4  16
ATOM     16  O   UNL     1       1.096   4.832  20.563  0.00  0.00    +0.000 OA
ATOM     17  H   UNL     1       0.462   5.561  20.416  0.00  0.00    +0.000 HD
ENDBRANCH   4  16
TORSDOF 5
ENDMDL
MODEL 4
REMARK VINA RESULT:      -6.1      2.961      5.702
REMARK  Name = 
REMARK  5 active torsions:
REMARK  status: ('A' for Active; 'I' for Inactive)
REMARK    1  A    between atoms: C_2  and  O_3
REMARK    2  A    between atoms: C_2  and  C_4
REMARK    3  A    between atoms: C_5  and  C_6
REMARK    4  A    between atoms: C_8  and  O_9
REMARK    5  A    between atoms: C_10  and  O_11
REMARK                            x       y       z     vdW  Elec       q    Type
REMARK                         _______ _______ _______ _____ _____    ______ ____
ROOT
ATOM      1  C   UNL     1       4.254   4.836  17.463  0.00  0.00    +0.000 A 
ATOM      2  C   UNL     1       4.572   3.986  16.391  0.00  0.00    +0.000 A 
ATOM      3  C   UNL     1       5.731   4.205  15.651  0.00  0.00    +0.000 A 
ATOM      4  C   UNL     1       6.592   5.255  15.963  0.00  0.00    +0.000 A 
ATOM      5  C   UNL     1       6.295   6.099  17.027  0.00  0.00    +0.000 A 
ATOM      6 BR   UNL     1       7.436   7.536  17.502  0.00  0.00    +0.000 Br
ATOM      7  C   UNL     1       5.133   5.887  17.779  0.00  0.00    +0.000 A 
ENDROOT
BRANCH   1   9
ATOM      8  C   UNL     1       2.274   3.467  18.075  0.00  0.00    +0.000 C 
ATOM      9  C   UNL     1       3.039   4.556  18.252  0.00  0.00    +0.000 C 
BRANCH   8  11
ATOM     10  O   UNL     1       0.329   2.201  18.470  0.00  0.00    +0.000 OA
ATOM     11  C   UNL     1       1.078   3.087  18.851  0.00  0.00    +0.000 C 
BRANCH  11  12
ATOM     12  O   UNL     1       0.856   3.793  19.973  0.00  0.00    +0.000 OA
ATOM     13  H   UNL     1       0.181   3.429  20.571  0.00  0.00    +0.000 HD
ENDBRANCH  11  12
ENDBRANCH   8  11
ENDBRANCH   1   9
BRANCH   3  14
ATOM     14  O   UNL     1       6.074   3.401  14.598  0.00  0.00    +0.000 OA
ATOM     15  H   UNL     1       5.420   2.683  14.524  0.00  0.00    +0.000 HD
ENDBRANCH   3  14
BRANCH   4  16
ATOM     16  O   UNL     1       7.722   5.422  15.211  0.00  0.00    +0.000 OA
ATOM     17  H   UNL     1       8.231   6.122  15.665  0.00  0.00    +0.000 HD
ENDBRANCH   4  16
TORSDOF 5
ENDMDL
MODEL 5
REMARK VINA RESULT:      -6.1      1.387      1.410
REMARK  Name = 
REMARK  5 active torsions:
REMARK  status: ('A' for Active; 'I' for Inactive)
REMARK    1  A    between atoms: C_2  and  O_3
REMARK    2  A    between atoms: C_2  and  C_4
REMARK    3  A    between atoms: C_5  and  C_6
REMARK    4  A    between atoms: C_8  and  O_9
REMARK    5  A    between atoms: C_10  and  O_11
REMARK                            x       y       z     vdW  Elec       q    Type
REMARK                         _______ _______ _______ _____ _____    ______ ____
ROOT
ATOM      1  C   UNL     1       5.555   5.232  15.991  0.00  0.00    +0.000 A 
ATOM      2  C   UNL     1       5.884   4.312  16.999  0.00  0.00    +0.000 A 
ATOM      3  C   UNL     1       5.351   4.461  18.277  0.00  0.00    +0.000 A 
ATOM      4  C   UNL     1       4.484   5.511  18.573  0.00  0.00    +0.000 A 
ATOM      5  C   UNL     1       4.143   6.425  17.583  0.00  0.00    +0.000 A 
ATOM      6 BR   UNL     1       2.960   7.865  17.927  0.00  0.00    +0.000 Br
ATOM      7  C   UNL     1       4.671   6.283  16.293  0.00  0.00    +0.000 A 
ENDROOT
BRANCH   1   9
ATOM      8  C   UNL     1       6.017   3.865  13.970  0.00  0.00    +0.000 C 
ATOM      9  C   UNL     1       6.106   5.026  14.638  0.00  0.00    +0.000 C 
BRANCH   8  11
ATOM     10  O   UNL     1       7.233   4.369  12.017  0.00  0.00    +0.000 OA
ATOM     11  C   UNL     1       6.493   3.591  12.600  0.00  0.00    +0.000 C 
BRANCH  11  12
ATOM     12  O   UNL     1       6.038   2.459  12.035  0.00  0.00    +0.000 OA
ATOM     13  H   UNL     1       5.082   2.303  12.122  0.00  0.00    +0.000 HD
ENDBRANCH  11  12
ENDBRANCH   8  11
ENDBRANCH   1   9
BRANCH   3  14
ATOM     14  O   UNL     1       5.650   3.588  19.288  0.00  0.00    +0.000 OA
ATOM     15  H   UNL     1       4.964   2.898  19.320  0.00  0.00    +0.000 HD
ENDBRANCH   3  14
BRANCH   4  16
ATOM     16  O   UNL     1       3.981   5.609  19.841  0.00  0.00    +0.000 OA
ATOM     17  H   UNL     1       3.065   5.929  19.729  0.00  0.00    +0.000 HD
ENDBRANCH   4  16
TORSDOF 5
ENDMDL
MODEL 6
REMARK VINA RESULT:      -6.1      2.167      2.560
REMARK  Name = 
REMARK  5 active torsions:
REMARK  status: ('A' for Active; 'I' for Inactive)
REMARK    1  A    between atoms: C_2  and  O_3
REMARK    2  A    between atoms: C_2  and  C_4
REMARK    3  A    between atoms: C_5  and  C_6
REMARK    4  A    between atoms: C_8  and  O_9
REMARK    5  A    between atoms: C_10  and  O_11
REMARK                            x       y       z     vdW  Elec       q    Type
REMARK                         _______ _______ _______ _____ _____    ______ ____
ROOT
ATOM      1  C   UNL     1       5.865   4.757  15.834  0.00  0.00    +0.000 A 
ATOM      2  C   UNL     1       5.442   3.891  16.855  0.00  0.00    +0.000 A 
ATOM      3  C   UNL     1       5.763   4.171  18.181  0.00  0.00    +0.000 A 
ATOM      4  C   UNL     1       6.495   5.309  18.515  0.00  0.00    +0.000 A 
ATOM      5  C   UNL     1       6.913   6.179  17.515  0.00  0.00    +0.000 A 
ATOM      6 BR   UNL     1       7.902   7.747  17.914  0.00  0.00    +0.000 Br
ATOM      7  C   UNL     1       6.594   5.908  16.178  0.00  0.00    +0.000 A 
ENDROOT
BRANCH   1   9
ATOM      8  C   UNL     1       6.142   3.591  13.658  0.00  0.00    +0.000 C 
ATOM      9  C   UNL     1       5.477   4.452  14.443  0.00  0.00    +0.000 C 
BRANCH   8  11
ATOM     10  O   UNL     1       4.729   3.520  11.776  0.00  0.00    +0.000 OA
ATOM     11  C   UNL     1       5.793   3.192  12.281  0.00  0.00    +0.000 C 
BRANCH  11  12
ATOM     12  O   UNL     1       6.697   2.431  11.641  0.00  0.00    +0.000 OA
ATOM     13  H   UNL     1       6.641   2.441  10.670  0.00  0.00    +0.000 HD
ENDBRANCH  11  12
ENDBRANCH   8  11
ENDBRANCH   1   9
BRANCH   3  14
ATOM     14  O   UNL     1       5.373   3.351  19.205  0.00  0.00    +0.000 OA
ATOM     15  H   UNL     1       6.164   2.947  19.603  0.00  0.00    +0.000 HD
ENDBRANCH   3  14
BRANCH   4  16
ATOM     16  O   UNL     1       6.777   5.543  19.832  0.00  0.00    +0.000 OA
ATOM     17  H   UNL     1       7.706   5.261  19.950  0.00  0.00    +0.000 HD
ENDBRANCH   4  16
TORSDOF 5
ENDMDL
MODEL 7
REMARK VINA RESULT:      -6.1      3.049      6.204
REMARK  Name = 
REMARK  5 active torsions:
REMARK  status: ('A' for Active; 'I' for Inactive)
REMARK    1  A    between atoms: C_2  and  O_3
REMARK    2  A    between atoms: C_2  and  C_4
REMARK    3  A    between atoms: C_5  and  C_6
REMARK    4  A    between atoms: C_8  and  O_9
REMARK    5  A    between atoms: C_10  and  O_11
REMARK                            x       y       z     vdW  Elec       q    Type
REMARK                         _______ _______ _______ _____ _____    ______ ____
ROOT
ATOM      1  C   UNL     1       4.229   4.011  18.201  0.00  0.00    +0.000 A 
ATOM      2  C   UNL     1       4.221   3.918  16.800  0.00  0.00    +0.000 A 
ATOM      3  C   UNL     1       5.277   4.448  16.063  0.00  0.00    +0.000 A 
ATOM      4  C   UNL     1       6.353   5.066  16.696  0.00  0.00    +0.000 A 
ATOM      5  C   UNL     1       6.378   5.158  18.083  0.00  0.00    +0.000 A 
ATOM      6 BR   UNL     1       7.822   5.978  18.997  0.00  0.00    +0.000 Br
ATOM      7  C   UNL     1       5.323   4.626  18.835  0.00  0.00    +0.000 A 
ENDROOT
BRANCH   1   9
ATOM      8  C   UNL     1       2.828   3.715  20.231  0.00  0.00    +0.000 C 
ATOM      9  C   UNL     1       3.114   3.407  18.956  0.00  0.00    +0.000 C 
BRANCH   8  11
ATOM     10  O   UNL     1       1.882   2.767  22.168  0.00  0.00    +0.000 OA
ATOM     11  C   UNL     1       1.706   3.198  21.038  0.00  0.00    +0.000 C 
BRANCH  11  12
ATOM     12  O   UNL     1       0.501   3.205  20.443  0.00  0.00    +0.000 OA
ATOM     13  H   UNL     1      -0.116   3.890  20.754  0.00  0.00    +0.000 HD
ENDBRANCH  11  12
ENDBRANCH   8  11
ENDBRANCH   1   9
BRANCH   3  14
ATOM     14  O   UNL     1       5.305   4.381  14.696  0.00  0.00    +0.000 OA
ATOM     15  H   UNL     1       5.910   5.066  14.360  0.00  0.00    +0.000 HD
ENDBRANCH   3  14
BRANCH   4  16
ATOM     16  O   UNL     1       7.369   5.562  15.927  0.00  0.00    +0.000 OA
ATOM     17  H   UNL     1       7.013   5.588  15.017  0.00  0.00    +0.000 HD
ENDBRANCH   4  16
TORSDOF 5
ENDMDL
MODEL 8
REMARK VINA RESULT:      -6.1      2.531      3.432
REMARK  Name = 
REMARK  5 active torsions:
REMARK  status: ('A' for Active; 'I' for Inactive)
REMARK    1  A    between atoms: C_2  and  O_3
REMARK    2  A    between atoms: C_2  and  C_4
REMARK    3  A    between atoms: C_5  and  C_6
REMARK    4  A    between atoms: C_8  and  O_9
REMARK    5  A    between atoms: C_10  and  O_11
REMARK                            x       y       z     vdW  Elec       q    Type
REMARK                         _______ _______ _______ _____ _____    ______ ____
ROOT
ATOM      1  C   UNL     1       3.701   4.595  17.448  0.00  0.00    +0.000 A 
ATOM      2  C   UNL     1       3.124   3.315  17.410  0.00  0.00    +0.000 A 
ATOM      3  C   UNL     1       2.121   2.977  18.317  0.00  0.00    +0.000 A 
ATOM      4  C   UNL     1       1.672   3.898  19.261  0.00  0.00    +0.000 A 
ATOM      5  C   UNL     1       2.228   5.171  19.305  0.00  0.00    +0.000 A 
ATOM      6 BR   UNL     1       1.646   6.465  20.562  0.00  0.00    +0.000 Br
ATOM      7  C   UNL     1       3.235   5.521  18.397  0.00  0.00    +0.000 A 
ENDROOT
BRANCH   1   9
ATOM      8  C   UNL     1       5.520   4.022  15.857  0.00  0.00    +0.000 C 
ATOM      9  C   UNL     1       4.734   4.934  16.451  0.00  0.00    +0.000 C 
BRANCH   8  11
ATOM     10  O   UNL     1       7.370   5.156  14.942  0.00  0.00    +0.000 OA
ATOM     11  C   UNL     1       6.537   4.271  14.817  0.00  0.00    +0.000 C 
BRANCH  11  12
ATOM     12  O   UNL     1       6.466   3.488  13.727  0.00  0.00    +0.000 OA
ATOM     13  H   UNL     1       6.989   2.669  13.764  0.00  0.00    +0.000 HD
ENDBRANCH  11  12
ENDBRANCH   8  11
ENDBRANCH   1   9
BRANCH   3  14
ATOM     14  O   UNL     1       1.536   1.740  18.315  0.00  0.00    +0.000 OA
ATOM     15  H   UNL     1       0.603   1.834  18.577  0.00  0.00    +0.000 HD
ENDBRANCH   3  14
BRANCH   4  16
ATOM     16  O   UNL     1       0.679   3.520  20.123  0.00  0.00    +0.000 OA
ATOM     17  H   UNL     1      -0.097   4.058  19.871  0.00  0.00    +0.000 HD
ENDBRANCH   4  16
TORSDOF 5
ENDMDL
MODEL 9
REMARK VINA RESULT:      -6.0      3.688      5.714
REMARK  Name = 
REMARK  5 active torsions:
REMARK  status: ('A' for Active; 'I' for Inactive)
REMARK    1  A    between atoms: C_2  and  O_3
REMARK    2  A    between atoms: C_2  and  C_4
REMARK    3  A    between atoms: C_5  and  C_6
REMARK    4  A    between atoms: C_8  and  O_9
REMARK    5  A    between atoms: C_10  and  O_11
REMARK                            x       y       z     vdW  Elec       q    Type
REMARK                         _______ _______ _______ _____ _____    ______ ____
ROOT
ATOM      1  C   UNL     1       3.297   6.180  18.078  0.00  0.00    +0.000 A 
ATOM      2  C   UNL     1       4.650   5.809  18.139  0.00  0.00    +0.000 A 
ATOM      3  C   UNL     1       4.997   4.481  18.374  0.00  0.00    +0.000 A 
ATOM      4  C   UNL     1       4.017   3.505  18.543  0.00  0.00    +0.000 A 
ATOM      5  C   UNL     1       2.673   3.856  18.476  0.00  0.00    +0.000 A 
ATOM      6 BR   UNL     1       1.299   2.567  18.688  0.00  0.00    +0.000 Br
ATOM      7  C   UNL     1       2.314   5.188  18.238  0.00  0.00    +0.000 A 
ENDROOT
BRANCH   1   9
ATOM      8  C   UNL     1       1.826   8.178  18.192  0.00  0.00    +0.000 C 
ATOM      9  C   UNL     1       2.962   7.588  17.790  0.00  0.00    +0.000 C 
BRANCH   8  11
ATOM     10  O   UNL     1       0.342  10.000  18.337  0.00  0.00    +0.000 OA
ATOM     11  C   UNL     1       1.439   9.588  17.992  0.00  0.00    +0.000 C 
BRANCH  11  12
ATOM     12  O   UNL     1       2.350  10.367  17.385  0.00  0.00    +0.000 OA
ATOM     13  H   UNL     1       2.015  10.910  16.651  0.00  0.00    +0.000 HD
ENDBRANCH  11  12
ENDBRANCH   8  11
ENDBRANCH   1   9
BRANCH   3  14
ATOM     14  O   UNL     1       6.303   4.079  18.444  0.00  0.00    +0.000 OA
ATOM     15  H   UNL     1       6.672   4.052  17.544  0.00  0.00    +0.000 HD
ENDBRANCH   3  14
BRANCH   4  16
ATOM     16  O   UNL     1       4.409   2.213  18.763  0.00  0.00    +0.000 OA
ATOM     17  H   UNL     1       5.260   2.120  18.291  0.00  0.00    +0.000 HD
ENDBRANCH   4  16
TORSDOF 5
ENDMDL
