MODEL 1
REMARK VINA RESULT:      -8.7      0.000      0.000
REMARK  Name = 
REMARK  5 active torsions:
REMARK  status: ('A' for Active; 'I' for Inactive)
REMARK    1  A    between atoms: C_2  and  C_14
REMARK    2  A    between atoms: N_3  and  C_4
REMARK    3  A    between atoms: C_4  and  C_5
REMARK    4  A    between atoms: C_5  and  O_6
REMARK    5  A    between atoms: C_20  and  O_21
REMARK                            x       y       z     vdW  Elec       q    Type
REMARK                         _______ _______ _______ _____ _____    ______ ____
ROOT
ATOM      1  O   UNL     1       4.254   5.726  17.244  0.00  0.00    +0.000 OA
ATOM      2  C   UNL     1       3.840   5.879  18.388  0.00  0.00    +0.000 C 
ATOM      3  N   UNL     1       4.132   5.009  19.406  0.00  0.00    +0.000 N 
ATOM      4  H   UNL     1       3.818   5.209  20.350  0.00  0.00    +0.000 HD
ENDROOT
BRANCH   2   5
ATOM      5  C   UNL     1       2.970   7.038  18.764  0.00  0.00    +0.000 A 
ATOM      6  C   UNL     1       2.881   8.024  17.858  0.00  0.00    +0.000 A 
ATOM      7  C   UNL     1       2.012   9.172  18.129  0.00  0.00    +0.000 A 
ATOM      8  O   UNL     1       1.884  10.078  17.316  0.00  0.00    +0.000 OA
ATOM      9  C   UNL     1       1.307   9.170  19.416  0.00  0.00    +0.000 A 
ATOM     10  C   UNL     1       0.469  10.237  19.756  0.00  0.00    +0.000 A 
ATOM     11  C   UNL     1      -0.174  10.215  20.987  0.00  0.00    +0.000 A 
ATOM     12  C   UNL     1       0.007   9.152  21.867  0.00  0.00    +0.000 A 
ATOM     13  C   UNL     1       0.841   8.085  21.516  0.00  0.00    +0.000 A 
ATOM     14  C   UNL     1       1.495   8.092  20.284  0.00  0.00    +0.000 A 
ATOM     15  O   UNL     1       2.304   7.021  19.981  0.00  0.00    +0.000 OA
BRANCH  11  16
ATOM     16  O   UNL     1      -0.999  11.230  21.370  0.00  0.00    +0.000 OA
ATOM     17  H   UNL     1      -1.918  10.920  21.342  0.00  0.00    +0.000 HD
ENDBRANCH  11  16
ENDBRANCH   2   5
BRANCH   3  18
ATOM     18  C   UNL     1       4.936   3.817  19.183  0.00  0.00    +0.000 C 
BRANCH  18  19
ATOM     19  C   UNL     1       4.188   2.507  19.539  0.00  0.00    +0.000 C 
ATOM     20  C   UNL     1       3.026   2.783  20.517  0.00  0.00    +0.000 C 
ATOM     21  C   UNL     1       1.848   3.505  19.864  0.00  0.00    +0.000 C 
ATOM     22  C   UNL     1       1.378   2.794  18.603  0.00  0.00    +0.000 C 
ATOM     23  F   UNL     1       0.418   3.535  17.999  0.00  0.00    +0.000 F 
ATOM     24  F   UNL     1       0.795   1.619  18.957  0.00  0.00    +0.000 F 
ATOM     25  C   UNL     1       2.503   2.513  17.622  0.00  0.00    +0.000 C 
ATOM     26  C   UNL     1       3.650   1.768  18.299  0.00  0.00    +0.000 C 
BRANCH  19  27
ATOM     27  O   UNL     1       5.126   1.629  20.181  0.00  0.00    +0.000 OA
ATOM     28  H   UNL     1       4.809   0.714  20.079  0.00  0.00    +0.000 HD
ENDBRANCH  19  27
ENDBRANCH  18  19
ENDBRANCH   3  18
TORSDOF 5
ENDMDL
MODEL 2
REMARK VINA RESULT:      -8.7      1.668      2.413
REMARK  Name = 
REMARK  5 active torsions:
REMARK  status: ('A' for Active; 'I' for Inactive)
REMARK    1  A    between atoms: C_2  and  C_14
REMARK    2  A    between atoms: N_3  and  C_4
REMARK    3  A    between atoms: C_4  and  C_5
REMARK    4  A    between atoms: C_5  and  O_6
REMARK    5  A    between atoms: C_20  and  O_21
REMARK                            x       y       z     vdW  Elec       q    Type
REMARK                         _______ _______ _______ _____ _____    ______ ____
ROOT
ATOM      1  O   UNL     1       2.554   8.486  17.151  0.00  0.00    +0.000 OA
ATOM      2  C   UNL     1       2.153   8.214  18.277  0.00  0.00    +0.000 C 
ATOM      3  N   UNL     1       2.330   6.981  18.851  0.00  0.00    +0.000 N 
ATOM      4  H   UNL     1       2.036   6.821  19.809  0.00  0.00    +0.000 HD
ENDROOT
BRANCH   2   5
ATOM      5  C   UNL     1       1.429   9.217  19.121  0.00  0.00    +0.000 A 
ATOM      6  C   UNL     1       1.263  10.432  18.577  0.00  0.00    +0.000 A 
ATOM      7  C   UNL     1       0.523  11.456  19.318  0.00  0.00    +0.000 A 
ATOM      8  O   UNL     1       0.328  12.568  18.845  0.00  0.00    +0.000 OA
ATOM      9  C   UNL     1       0.028  11.073  20.645  0.00  0.00    +0.000 A 
ATOM     10  C   UNL     1      -0.677  11.999  21.423  0.00  0.00    +0.000 A 
ATOM     11  C   UNL     1      -1.121  11.614  22.681  0.00  0.00    +0.000 A 
ATOM     12  C   UNL     1      -0.874  10.331  23.162  0.00  0.00    +0.000 A 
ATOM     13  C   UNL     1      -0.175   9.409  22.375  0.00  0.00    +0.000 A 
ATOM     14  C   UNL     1       0.279   9.781  21.110  0.00  0.00    +0.000 A 
ATOM     15  O   UNL     1       0.960   8.841  20.372  0.00  0.00    +0.000 OA
BRANCH  11  16
ATOM     16  O   UNL     1      -1.809  12.476  23.481  0.00  0.00    +0.000 OA
ATOM     17  H   UNL     1      -1.349  12.555  24.332  0.00  0.00    +0.000 HD
ENDBRANCH  11  16
ENDBRANCH   2   5
BRANCH   3  18
ATOM     18  C   UNL     1       2.985   5.895  18.137  0.00  0.00    +0.000 C 
BRANCH  18  19
ATOM     19  C   UNL     1       3.458   4.755  19.075  0.00  0.00    +0.000 C 
ATOM     20  C   UNL     1       2.478   4.565  20.252  0.00  0.00    +0.000 C 
ATOM     21  C   UNL     1       1.152   3.930  19.833  0.00  0.00    +0.000 C 
ATOM     22  C   UNL     1       1.364   2.642  19.051  0.00  0.00    +0.000 C 
ATOM     23  F   UNL     1       0.171   2.185  18.601  0.00  0.00    +0.000 F 
ATOM     24  F   UNL     1       1.848   1.694  19.895  0.00  0.00    +0.000 F 
ATOM     25  C   UNL     1       2.324   2.803  17.885  0.00  0.00    +0.000 C 
ATOM     26  C   UNL     1       3.645   3.414  18.341  0.00  0.00    +0.000 C 
BRANCH  19  27
ATOM     27  O   UNL     1       4.739   5.131  19.606  0.00  0.00    +0.000 OA
ATOM     28  H   UNL     1       4.601   5.553  20.472  0.00  0.00    +0.000 HD
ENDBRANCH  19  27
ENDBRANCH  18  19
ENDBRANCH   3  18
TORSDOF 5
ENDMDL
MODEL 3
REMARK VINA RESULT:      -8.6      1.988      3.467
REMARK  Name = 
REMARK  5 active torsions:
REMARK  status: ('A' for Active; 'I' for Inactive)
REMARK    1  A    between atoms: C_2  and  C_14
REMARK    2  A    between atoms: N_3  and  C_4
REMARK    3  A    between atoms: C_4  and  C_5
REMARK    4  A    between atoms: C_5  and  O_6
REMARK    5  A    between atoms: C_20  and  O_21
REMARK                            x       y       z     vdW  Elec       q    Type
REMARK                         _______ _______ _______ _____ _____    ______ ____
ROOT
ATOM      1  O   UNL     1       2.078   8.996  18.148  0.00  0.00    +0.000 OA
ATOM      2  C   UNL     1       1.713   8.508  19.212  0.00  0.00    +0.000 C 
ATOM      3  N   UNL     1       2.009   7.220  19.579  0.00  0.00    +0.000 N 
ATOM      4  H   UNL     1       1.739   6.879  20.495  0.00  0.00    +0.000 HD
ENDROOT
BRANCH   2   5
ATOM      5  C   UNL     1       0.903   9.287  20.202  0.00  0.00    +0.000 A 
ATOM      6  C   UNL     1       1.111   8.991  21.493  0.00  0.00    +0.000 A 
ATOM      7  C   UNL     1       0.393   9.741  22.527  0.00  0.00    +0.000 A 
ATOM      8  O   UNL     1       0.575   9.519  23.716  0.00  0.00    +0.000 OA
ATOM      9  C   UNL     1      -0.543  10.770  22.057  0.00  0.00    +0.000 A 
ATOM     10  C   UNL     1      -1.277  11.521  22.981  0.00  0.00    +0.000 A 
ATOM     11  C   UNL     1      -2.167  12.477  22.508  0.00  0.00    +0.000 A 
ATOM     12  C   UNL     1      -2.325  12.689  21.141  0.00  0.00    +0.000 A 
ATOM     13  C   UNL     1      -1.581  11.938  20.224  0.00  0.00    +0.000 A 
ATOM     14  C   UNL     1      -0.685  10.974  20.683  0.00  0.00    +0.000 A 
ATOM     15  O   UNL     1       0.026  10.261  19.745  0.00  0.00    +0.000 OA
BRANCH  11  16
ATOM     16  O   UNL     1      -2.909  13.235  23.363  0.00  0.00    +0.000 OA
ATOM     17  H   UNL     1      -2.655  14.167  23.265  0.00  0.00    +0.000 HD
ENDBRANCH  11  16
ENDBRANCH   2   5
BRANCH   3  18
ATOM     18  C   UNL     1       2.758   6.331  18.703  0.00  0.00    +0.000 C 
BRANCH  18  19
ATOM     19  C   UNL     1       3.321   5.090  19.441  0.00  0.00    +0.000 C 
ATOM     20  C   UNL     1       2.388   4.661  20.593  0.00  0.00    +0.000 C 
ATOM     21  C   UNL     1       1.088   4.021  20.106  0.00  0.00    +0.000 C 
ATOM     22  C   UNL     1       1.349   2.885  19.128  0.00  0.00    +0.000 C 
ATOM     23  F   UNL     1       0.170   2.433  18.636  0.00  0.00    +0.000 F 
ATOM     24  F   UNL     1       1.909   1.848  19.804  0.00  0.00    +0.000 F 
ATOM     25  C   UNL     1       2.265   3.282  17.983  0.00  0.00    +0.000 C 
ATOM     26  C   UNL     1       3.562   3.893  18.503  0.00  0.00    +0.000 C 
BRANCH  19  27
ATOM     27  O   UNL     1       4.594   5.455  19.999  0.00  0.00    +0.000 OA
ATOM     28  H   UNL     1       5.241   5.517  19.273  0.00  0.00    +0.000 HD
ENDBRANCH  19  27
ENDBRANCH  18  19
ENDBRANCH   3  18
TORSDOF 5
ENDMDL
MODEL 4
REMARK VINA RESULT:      -8.6      2.158      3.569
REMARK  Name = 
REMARK  5 active torsions:
REMARK  status: ('A' for Active; 'I' for Inactive)
REMARK    1  A    between atoms: C_2  and  C_14
REMARK    2  A    between atoms: N_3  and  C_4
REMARK    3  A    between atoms: C_4  and  C_5
REMARK    4  A    between atoms: C_5  and  O_6
REMARK    5  A    between atoms: C_20  and  O_21
REMARK                            x       y       z     vdW  Elec       q    Type
REMARK                         _______ _______ _______ _____ _____    ______ ____
ROOT
ATOM      1  O   UNL     1       2.594   7.596  19.135  0.00  0.00    +0.000 OA
ATOM      2  C   UNL     1       1.934   7.435  20.156  0.00  0.00    +0.000 C 
ATOM      3  N   UNL     1       1.916   6.252  20.849  0.00  0.00    +0.000 N 
ATOM      4  H   UNL     1       1.403   6.184  21.722  0.00  0.00    +0.000 HD
ENDROOT
BRANCH   2   5
ATOM      5  C   UNL     1       1.084   8.527  20.728  0.00  0.00    +0.000 A 
ATOM      6  C   UNL     1       1.044   8.600  22.066  0.00  0.00    +0.000 A 
ATOM      7  C   UNL     1       0.273   9.669  22.705  0.00  0.00    +0.000 A 
ATOM      8  O   UNL     1       0.233   9.785  23.923  0.00  0.00    +0.000 OA
ATOM      9  C   UNL     1      -0.435  10.590  21.808  0.00  0.00    +0.000 A 
ATOM     10  C   UNL     1      -1.204  11.631  22.340  0.00  0.00    +0.000 A 
ATOM     11  C   UNL     1      -1.876  12.478  21.468  0.00  0.00    +0.000 A 
ATOM     12  C   UNL     1      -1.786  12.299  20.090  0.00  0.00    +0.000 A 
ATOM     13  C   UNL     1      -1.008  11.260  19.566  0.00  0.00    +0.000 A 
ATOM     14  C   UNL     1      -0.329  10.401  20.429  0.00  0.00    +0.000 A 
ATOM     15  O   UNL     1       0.425   9.395  19.869  0.00  0.00    +0.000 OA
BRANCH  11  16
ATOM     16  O   UNL     1      -2.641  13.505  21.932  0.00  0.00    +0.000 OA
ATOM     17  H   UNL     1      -2.250  13.848  22.752  0.00  0.00    +0.000 HD
ENDBRANCH  11  16
ENDBRANCH   2   5
BRANCH   3  18
ATOM     18  C   UNL     1       2.664   5.090  20.393  0.00  0.00    +0.000 C 
BRANCH  18  19
ATOM     19  C   UNL     1       1.759   3.991  19.779  0.00  0.00    +0.000 C 
ATOM     20  C   UNL     1       1.551   4.228  18.268  0.00  0.00    +0.000 C 
ATOM     21  C   UNL     1       2.799   3.935  17.435  0.00  0.00    +0.000 C 
ATOM     22  C   UNL     1       3.359   2.551  17.726  0.00  0.00    +0.000 C 
ATOM     23  F   UNL     1       4.526   2.387  17.058  0.00  0.00    +0.000 F 
ATOM     24  F   UNL     1       2.499   1.620  17.236  0.00  0.00    +0.000 F 
ATOM     25  C   UNL     1       3.576   2.293  19.207  0.00  0.00    +0.000 C 
ATOM     26  C   UNL     1       2.305   2.569  20.005  0.00  0.00    +0.000 C 
BRANCH  19  27
ATOM     27  O   UNL     1       0.482   4.064  20.432  0.00  0.00    +0.000 OA
ATOM     28  H   UNL     1      -0.158   4.460  19.813  0.00  0.00    +0.000 HD
ENDBRANCH  19  27
ENDBRANCH  18  19
ENDBRANCH   3  18
TORSDOF 5
ENDMDL
MODEL 5
REMARK VINA RESULT:      -8.5      2.104      3.810
REMARK  Name = 
REMARK  5 active torsions:
REMARK  status: ('A' for Active; 'I' for Inactive)
REMARK    1  A    between atoms: C_2  and  C_14
REMARK    2  A    between atoms: N_3  and  C_4
REMARK    3  A    between atoms: C_4  and  C_5
REMARK    4  A    between atoms: C_5  and  O_6
REMARK    5  A    between atoms: C_20  and  O_21
REMARK                            x       y       z     vdW  Elec       q    Type
REMARK                         _______ _______ _______ _____ _____    ______ ____
ROOT
ATOM      1  O   UNL     1       2.085   8.424  18.403  0.00  0.00    +0.000 OA
ATOM      2  C   UNL     1       1.856   8.157  19.577  0.00  0.00    +0.000 C 
ATOM      3  N   UNL     1       2.360   7.042  20.197  0.00  0.00    +0.000 N 
ATOM      4  H   UNL     1       2.194   6.894  21.186  0.00  0.00    +0.000 HD
ENDROOT
BRANCH   2   5
ATOM      5  C   UNL     1       0.997   9.034  20.434  0.00  0.00    +0.000 A 
ATOM      6  C   UNL     1       1.106   8.851  21.758  0.00  0.00    +0.000 A 
ATOM      7  C   UNL     1       0.334   9.701  22.667  0.00  0.00    +0.000 A 
ATOM      8  O   UNL     1       0.426   9.582  23.882  0.00  0.00    +0.000 OA
ATOM      9  C   UNL     1      -0.543  10.699  22.043  0.00  0.00    +0.000 A 
ATOM     10  C   UNL     1      -1.324  11.541  22.842  0.00  0.00    +0.000 A 
ATOM     11  C   UNL     1      -2.155  12.466  22.225  0.00  0.00    +0.000 A 
ATOM     12  C   UNL     1      -2.212  12.558  20.836  0.00  0.00    +0.000 A 
ATOM     13  C   UNL     1      -1.422  11.717  20.045  0.00  0.00    +0.000 A 
ATOM     14  C   UNL     1      -0.583  10.782  20.650  0.00  0.00    +0.000 A 
ATOM     15  O   UNL     1       0.176   9.978  19.832  0.00  0.00    +0.000 OA
BRANCH  11  16
ATOM     16  O   UNL     1      -2.939  13.308  22.955  0.00  0.00    +0.000 OA
ATOM     17  H   UNL     1      -3.071  12.932  23.840  0.00  0.00    +0.000 HD
ENDBRANCH  11  16
ENDBRANCH   2   5
BRANCH   3  18
ATOM     18  C   UNL     1       3.183   6.078  19.480  0.00  0.00    +0.000 C 
BRANCH  18  19
ATOM     19  C   UNL     1       2.362   4.901  18.895  0.00  0.00    +0.000 C 
ATOM     20  C   UNL     1       3.269   3.688  18.600  0.00  0.00    +0.000 C 
ATOM     21  C   UNL     1       3.751   2.976  19.864  0.00  0.00    +0.000 C 
ATOM     22  C   UNL     1       2.594   2.615  20.785  0.00  0.00    +0.000 C 
ATOM     23  F   UNL     1       3.080   2.098  21.939  0.00  0.00    +0.000 F 
ATOM     24  F   UNL     1       1.861   1.632  20.199  0.00  0.00    +0.000 F 
ATOM     25  C   UNL     1       1.686   3.793  21.092  0.00  0.00    +0.000 C 
ATOM     26  C   UNL     1       1.203   4.464  19.810  0.00  0.00    +0.000 C 
BRANCH  19  27
ATOM     27  O   UNL     1       1.782   5.346  17.659  0.00  0.00    +0.000 OA
ATOM     28  H   UNL     1       2.139   4.799  16.937  0.00  0.00    +0.000 HD
ENDBRANCH  19  27
ENDBRANCH  18  19
ENDBRANCH   3  18
TORSDOF 5
ENDMDL
MODEL 6
REMARK VINA RESULT:      -8.5      1.701      2.481
REMARK  Name = 
REMARK  5 active torsions:
REMARK  status: ('A' for Active; 'I' for Inactive)
REMARK    1  A    between atoms: C_2  and  C_14
REMARK    2  A    between atoms: N_3  and  C_4
REMARK    3  A    between atoms: C_4  and  C_5
REMARK    4  A    between atoms: C_5  and  O_6
REMARK    5  A    between atoms: C_20  and  O_21
REMARK                            x       y       z     vdW  Elec       q    Type
REMARK                         _______ _______ _______ _____ _____    ______ ____
ROOT
ATOM      1  O   UNL     1       3.030   7.598  17.835  0.00  0.00    +0.000 OA
ATOM      2  C   UNL     1       2.619   7.543  18.989  0.00  0.00    +0.000 C 
ATOM      3  N   UNL     1       2.983   6.547  19.859  0.00  0.00    +0.000 N 
ATOM      4  H   UNL     1       2.666   6.576  20.822  0.00  0.00    +0.000 HD
ENDROOT
BRANCH   2   5
ATOM      5  C   UNL     1       1.675   8.565  19.541  0.00  0.00    +0.000 A 
ATOM      6  C   UNL     1       1.241   9.492  18.675  0.00  0.00    +0.000 A 
ATOM      7  C   UNL     1       0.278  10.501  19.124  0.00  0.00    +0.000 A 
ATOM      8  O   UNL     1      -0.161  11.348  18.357  0.00  0.00    +0.000 OA
ATOM      9  C   UNL     1      -0.132  10.433  20.532  0.00  0.00    +0.000 A 
ATOM     10  C   UNL     1      -1.038  11.368  21.042  0.00  0.00    +0.000 A 
ATOM     11  C   UNL     1      -1.396  11.289  22.382  0.00  0.00    +0.000 A 
ATOM     12  C   UNL     1      -0.867  10.297  23.204  0.00  0.00    +0.000 A 
ATOM     13  C   UNL     1       0.034   9.361  22.683  0.00  0.00    +0.000 A 
ATOM     14  C   UNL     1       0.404   9.428  21.340  0.00  0.00    +0.000 A 
ATOM     15  O   UNL     1       1.291   8.486  20.872  0.00  0.00    +0.000 OA
BRANCH  11  16
ATOM     16  O   UNL     1      -2.272  12.175  22.932  0.00  0.00    +0.000 OA
ATOM     17  H   UNL     1      -2.098  13.060  22.571  0.00  0.00    +0.000 HD
ENDBRANCH  11  16
ENDBRANCH   2   5
BRANCH   3  18
ATOM     18  C   UNL     1       3.866   5.465  19.452  0.00  0.00    +0.000 C 
BRANCH  18  19
ATOM     19  C   UNL     1       3.126   4.333  18.696  0.00  0.00    +0.000 C 
ATOM     20  C   UNL     1       3.678   2.948  19.095  0.00  0.00    +0.000 C 
ATOM     21  C   UNL     1       3.280   2.526  20.509  0.00  0.00    +0.000 C 
ATOM     22  C   UNL     1       1.777   2.627  20.726  0.00  0.00    +0.000 C 
ATOM     23  F   UNL     1       1.489   2.360  22.023  0.00  0.00    +0.000 F 
ATOM     24  F   UNL     1       1.164   1.664  19.988  0.00  0.00    +0.000 F 
ATOM     25  C   UNL     1       1.208   3.982  20.343  0.00  0.00    +0.000 C 
ATOM     26  C   UNL     1       1.602   4.360  18.918  0.00  0.00    +0.000 C 
BRANCH  19  27
ATOM     27  O   UNL     1       3.353   4.526  17.291  0.00  0.00    +0.000 OA
ATOM     28  H   UNL     1       4.172   4.059  17.045  0.00  0.00    +0.000 HD
ENDBRANCH  19  27
ENDBRANCH  18  19
ENDBRANCH   3  18
TORSDOF 5
ENDMDL
MODEL 7
REMARK VINA RESULT:      -8.5      1.658      2.083
REMARK  Name = 
REMARK  5 active torsions:
REMARK  status: ('A' for Active; 'I' for Inactive)
REMARK    1  A    between atoms: C_2  and  C_14
REMARK    2  A    between atoms: N_3  and  C_4
REMARK    3  A    between atoms: C_4  and  C_5
REMARK    4  A    between atoms: C_5  and  O_6
REMARK    5  A    between atoms: C_20  and  O_21
REMARK                            x       y       z     vdW  Elec       q    Type
REMARK                         _______ _______ _______ _____ _____    ______ ____
ROOT
ATOM      1  O   UNL     1       4.299   5.798  19.168  0.00  0.00    +0.000 OA
ATOM      2  C   UNL     1       3.149   6.006  18.799  0.00  0.00    +0.000 C 
ATOM      3  N   UNL     1       2.424   5.094  18.076  0.00  0.00    +0.000 N 
ATOM      4  H   UNL     1       1.455   5.284  17.845  0.00  0.00    +0.000 HD
ENDROOT
BRANCH   2   5
ATOM      5  C   UNL     1       2.440   7.288  19.109  0.00  0.00    +0.000 A 
ATOM      6  C   UNL     1       2.437   8.208  18.134  0.00  0.00    +0.000 A 
ATOM      7  C   UNL     1       1.724   9.471  18.340  0.00  0.00    +0.000 A 
ATOM      8  O   UNL     1       1.676  10.325  17.464  0.00  0.00    +0.000 OA
ATOM      9  C   UNL     1       1.071   9.649  19.642  0.00  0.00    +0.000 A 
ATOM     10  C   UNL     1       0.381  10.833  19.922  0.00  0.00    +0.000 A 
ATOM     11  C   UNL     1      -0.215  10.980  21.168  0.00  0.00    +0.000 A 
ATOM     12  C   UNL     1      -0.131   9.969  22.122  0.00  0.00    +0.000 A 
ATOM     13  C   UNL     1       0.554   8.784  21.830  0.00  0.00    +0.000 A 
ATOM     14  C   UNL     1       1.159   8.622  20.584  0.00  0.00    +0.000 A 
ATOM     15  O   UNL     1       1.821   7.441  20.342  0.00  0.00    +0.000 OA
BRANCH  11  16
ATOM     16  O   UNL     1      -0.897  12.114  21.495  0.00  0.00    +0.000 OA
ATOM     17  H   UNL     1      -1.116  12.090  22.441  0.00  0.00    +0.000 HD
ENDBRANCH  11  16
ENDBRANCH   2   5
BRANCH   3  18
ATOM     18  C   UNL     1       2.994   3.817  17.669  0.00  0.00    +0.000 C 
BRANCH  18  19
ATOM     19  C   UNL     1       2.280   2.604  18.317  0.00  0.00    +0.000 C 
ATOM     20  C   UNL     1       3.205   1.894  19.328  0.00  0.00    +0.000 C 
ATOM     21  C   UNL     1       3.421   2.696  20.612  0.00  0.00    +0.000 C 
ATOM     22  C   UNL     1       2.102   3.119  21.241  0.00  0.00    +0.000 C 
ATOM     23  F   UNL     1       2.347   3.925  22.303  0.00  0.00    +0.000 F 
ATOM     24  F   UNL     1       1.478   2.016  21.730  0.00  0.00    +0.000 F 
ATOM     25  C   UNL     1       1.174   3.823  20.267  0.00  0.00    +0.000 C 
ATOM     26  C   UNL     1       0.959   2.985  19.010  0.00  0.00    +0.000 C 
BRANCH  19  27
ATOM     27  O   UNL     1       1.957   1.677  17.268  0.00  0.00    +0.000 OA
ATOM     28  H   UNL     1       1.411   2.140  16.607  0.00  0.00    +0.000 HD
ENDBRANCH  19  27
ENDBRANCH  18  19
ENDBRANCH   3  18
TORSDOF 5
ENDMDL
MODEL 8
REMARK VINA RESULT:      -8.4      2.025      2.889
REMARK  Name = 
REMARK  5 active torsions:
REMARK  status: ('A' for Active; 'I' for Inactive)
REMARK    1  A    between atoms: C_2  and  C_14
REMARK    2  A    between atoms: N_3  and  C_4
REMARK    3  A    between atoms: C_4  and  C_5
REMARK    4  A    between atoms: C_5  and  O_6
REMARK    5  A    between atoms: C_20  and  O_21
REMARK                            x       y       z     vdW  Elec       q    Type
REMARK                         _______ _______ _______ _____ _____    ______ ____
ROOT
ATOM      1  O   UNL     1       2.847   7.431  18.806  0.00  0.00    +0.000 OA
ATOM      2  C   UNL     1       2.102   7.452  19.780  0.00  0.00    +0.000 C 
ATOM      3  N   UNL     1       1.961   6.386  20.630  0.00  0.00    +0.000 N 
ATOM      4  H   UNL     1       1.380   6.471  21.457  0.00  0.00    +0.000 HD
ENDROOT
BRANCH   2   5
ATOM      5  C   UNL     1       1.277   8.655  20.116  0.00  0.00    +0.000 A 
ATOM      6  C   UNL     1       1.132   9.561  19.137  0.00  0.00    +0.000 A 
ATOM      7  C   UNL     1       0.301  10.744  19.370  0.00  0.00    +0.000 A 
ATOM      8  O   UNL     1       0.123  11.579  18.494  0.00  0.00    +0.000 OA
ATOM      9  C   UNL     1      -0.308  10.865  20.700  0.00  0.00    +0.000 A 
ATOM     10  C   UNL     1      -1.105  11.973  21.007  0.00  0.00    +0.000 A 
ATOM     11  C   UNL     1      -1.655  12.068  22.278  0.00  0.00    +0.000 A 
ATOM     12  C   UNL     1      -1.421  11.081  23.232  0.00  0.00    +0.000 A 
ATOM     13  C   UNL     1      -0.629   9.972  22.915  0.00  0.00    +0.000 A 
ATOM     14  C   UNL     1      -0.068   9.862  21.643  0.00  0.00    +0.000 A 
ATOM     15  O   UNL     1       0.703   8.755  21.375  0.00  0.00    +0.000 OA
BRANCH  11  16
ATOM     16  O   UNL     1      -2.437  13.127  22.631  0.00  0.00    +0.000 OA
ATOM     17  H   UNL     1      -3.368  12.896  22.486  0.00  0.00    +0.000 HD
ENDBRANCH  11  16
ENDBRANCH   2   5
BRANCH   3  18
ATOM     18  C   UNL     1       2.673   5.136  20.410  0.00  0.00    +0.000 C 
BRANCH  18  19
ATOM     19  C   UNL     1       1.774   4.029  19.802  0.00  0.00    +0.000 C 
ATOM     20  C   UNL     1       1.531   4.277  18.299  0.00  0.00    +0.000 C 
ATOM     21  C   UNL     1       2.767   4.014  17.438  0.00  0.00    +0.000 C 
ATOM     22  C   UNL     1       3.357   2.637  17.702  0.00  0.00    +0.000 C 
ATOM     23  F   UNL     1       4.512   2.500  17.009  0.00  0.00    +0.000 F 
ATOM     24  F   UNL     1       2.502   1.697  17.219  0.00  0.00    +0.000 F 
ATOM     25  C   UNL     1       3.607   2.367  19.176  0.00  0.00    +0.000 C 
ATOM     26  C   UNL     1       2.348   2.613  20.002  0.00  0.00    +0.000 C 
BRANCH  19  27
ATOM     27  O   UNL     1       0.509   4.072  20.481  0.00  0.00    +0.000 OA
ATOM     28  H   UNL     1      -0.185   3.798  19.855  0.00  0.00    +0.000 HD
ENDBRANCH  19  27
ENDBRANCH  18  19
ENDBRANCH   3  18
TORSDOF 5
ENDMDL
MODEL 9
REMARK VINA RESULT:      -8.3      1.885      3.250
REMARK  Name = 
REMARK  5 active torsions:
REMARK  status: ('A' for Active; 'I' for Inactive)
REMARK    1  A    between atoms: C_2  and  C_14
REMARK    2  A    between atoms: N_3  and  C_4
REMARK    3  A    between atoms: C_4  and  C_5
REMARK    4  A    between atoms: C_5  and  O_6
REMARK    5  A    between atoms: C_20  and  O_21
REMARK                            x       y       z     vdW  Elec       q    Type
REMARK                         _______ _______ _______ _____ _____    ______ ____
ROOT
ATOM      1  O   UNL     1       3.012   7.831  17.845  0.00  0.00    +0.000 OA
ATOM      2  C   UNL     1       2.432   7.758  18.923  0.00  0.00    +0.000 C 
ATOM      3  N   UNL     1       2.674   6.759  19.830  0.00  0.00    +0.000 N 
ATOM      4  H   UNL     1       2.215   6.773  20.734  0.00  0.00    +0.000 HD
ENDROOT
BRANCH   2   5
ATOM      5  C   UNL     1       1.401   8.763  19.334  0.00  0.00    +0.000 A 
ATOM      6  C   UNL     1       1.383   9.086  20.636  0.00  0.00    +0.000 A 
ATOM      7  C   UNL     1       0.435  10.097  21.112  0.00  0.00    +0.000 A 
ATOM      8  O   UNL     1       0.405  10.439  22.287  0.00  0.00    +0.000 OA
ATOM      9  C   UNL     1      -0.463  10.676  20.106  0.00  0.00    +0.000 A 
ATOM     10  C   UNL     1      -1.407  11.638  20.483  0.00  0.00    +0.000 A 
ATOM     11  C   UNL     1      -2.254  12.158  19.513  0.00  0.00    +0.000 A 
ATOM     12  C   UNL     1      -2.168  11.734  18.189  0.00  0.00    +0.000 A 
ATOM     13  C   UNL     1      -1.216  10.777  17.820  0.00  0.00    +0.000 A 
ATOM     14  C   UNL     1      -0.359  10.245  18.783  0.00  0.00    +0.000 A 
ATOM     15  O   UNL     1       0.561   9.307  18.373  0.00  0.00    +0.000 OA
BRANCH  11  16
ATOM     16  O   UNL     1      -3.193  13.095  19.825  0.00  0.00    +0.000 OA
ATOM     17  H   UNL     1      -3.745  12.762  20.551  0.00  0.00    +0.000 HD
ENDBRANCH  11  16
ENDBRANCH   2   5
BRANCH   3  18
ATOM     18  C   UNL     1       3.624   5.691  19.553  0.00  0.00    +0.000 C 
BRANCH  18  19
ATOM     19  C   UNL     1       3.003   4.526  18.742  0.00  0.00    +0.000 C 
ATOM     20  C   UNL     1       3.673   3.183  19.102  0.00  0.00    +0.000 C 
ATOM     21  C   UNL     1       3.291   2.674  20.492  0.00  0.00    +0.000 C 
ATOM     22  C   UNL     1       1.782   2.630  20.683  0.00  0.00    +0.000 C 
ATOM     23  F   UNL     1       1.498   2.290  21.963  0.00  0.00    +0.000 F 
ATOM     24  F   UNL     1       1.272   1.643  19.899  0.00  0.00    +0.000 F 
ATOM     25  C   UNL     1       1.097   3.941  20.336  0.00  0.00    +0.000 C 
ATOM     26  C   UNL     1       1.479   4.406  18.934  0.00  0.00    +0.000 C 
BRANCH  19  27
ATOM     27  O   UNL     1       3.235   4.791  17.349  0.00  0.00    +0.000 OA
ATOM     28  H   UNL     1       2.682   4.184  16.825  0.00  0.00    +0.000 HD
ENDBRANCH  19  27
ENDBRANCH  18  19
ENDBRANCH   3  18
TORSDOF 5
ENDMDL
