MODEL 1
REMARK VINA RESULT:      -7.9      0.000      0.000
REMARK  Name = 
REMARK  10 active torsions:
REMARK  status: ('A' for Active; 'I' for Inactive)
REMARK    1  A    between atoms: C_1  and  C_2
REMARK    2  A    between atoms: C_5  and  S_6
REMARK    3  A    between atoms: S_6  and  N_9
REMARK    4  A    between atoms: C_11  and  C_12
REMARK    5  A    between atoms: C_12  and  C_14
REMARK    6  A    between atoms: N_16  and  C_17
REMARK    7  A    between atoms: C_17  and  C_18
REMARK    8  A    between atoms: N_20  and  C_21
REMARK    9  A    between atoms: C_21  and  C_22
REMARK   10  A    between atoms: C_22  and  O_24
REMARK                            x       y       z     vdW  Elec       q    Type
REMARK                         _______ _______ _______ _____ _____    ______ ____
ROOT
ATOM      1  N   UNL     1       0.124  11.944  19.782  0.00  0.00    +0.000 N 
ATOM      2  C   UNL     1       1.219  11.126  19.639  0.00  0.00    +0.000 A 
ATOM      3  C   UNL     1       0.887  10.094  18.777  0.00  0.00    +0.000 A 
ATOM      4  C   UNL     1      -0.471  10.341  18.364  0.00  0.00    +0.000 A 
ATOM      5  C   UNL     1      -1.360   9.655  17.505  0.00  0.00    +0.000 A 
ATOM      6  C   UNL     1      -2.639  10.166  17.265  0.00  0.00    +0.000 A 
ATOM      7  C   UNL     1      -3.044  11.354  17.858  0.00  0.00    +0.000 A 
ATOM      8  C   UNL     1      -2.190  12.058  18.711  0.00  0.00    +0.000 A 
ATOM      9  C   UNL     1      -0.909  11.534  18.966  0.00  0.00    +0.000 A 
ENDROOT
BRANCH   1  10
ATOM     10  S   UNL     1       0.139  13.337  20.771  0.00  0.00    +0.000 S 
ATOM     11  O   UNL     1      -0.222  14.436  19.892  0.00  0.00    +0.000 OA
ATOM     12  O   UNL     1       1.397  13.335  21.492  0.00  0.00    +0.000 OA
BRANCH  10  17
ATOM     13  C   UNL     1      -4.473  12.415  24.612  0.00  0.00    +0.000 C 
ATOM     14  C   UNL     1      -3.333  12.639  23.662  0.00  0.00    +0.000 A 
ATOM     15  C   UNL     1      -2.385  11.635  23.431  0.00  0.00    +0.000 A 
ATOM     16  C   UNL     1      -1.315  11.856  22.562  0.00  0.00    +0.000 A 
ATOM     17  C   UNL     1      -1.185  13.091  21.923  0.00  0.00    +0.000 A 
ATOM     18  C   UNL     1      -2.138  14.095  22.122  0.00  0.00    +0.000 A 
ATOM     19  C   UNL     1      -3.205  13.867  22.996  0.00  0.00    +0.000 A 
ENDBRANCH  10  17
ENDBRANCH   1  10
BRANCH   3  20
ATOM     20  C   UNL     1       1.751   8.977  18.372  0.00  0.00    +0.000 C 
ATOM     21  O   UNL     1       2.288   8.934  17.264  0.00  0.00    +0.000 OA
BRANCH  20  22
ATOM     22  C   UNL     1       2.064   7.808  19.336  0.00  0.00    +0.000 C 
ATOM     23  O   UNL     1       1.683   7.820  20.499  0.00  0.00    +0.000 OA
ATOM     24  N   UNL     1       2.826   6.789  18.797  0.00  0.00    +0.000 N 
ATOM     25  H   UNL     1       3.148   6.869  17.832  0.00  0.00    +0.000 HD
BRANCH  24  26
ATOM     26  C   UNL     1       3.267   5.675  19.611  0.00  0.00    +0.000 C 
BRANCH  26  27
ATOM     27  C   UNL     1       4.336   4.822  18.923  0.00  0.00    +0.000 C 
ATOM     28  O   UNL     1       4.182   3.631  18.664  0.00  0.00    +0.000 OA
ATOM     29  N   UNL     1       5.488   5.507  18.612  0.00  0.00    +0.000 N 
ATOM     30  H   UNL     1       5.590   6.495  18.834  0.00  0.00    +0.000 HD
BRANCH  29  31
ATOM     31  C   UNL     1       6.608   4.852  17.960  0.00  0.00    +0.000 C 
BRANCH  31  32
ATOM     32  C   UNL     1       6.796   5.379  16.545  0.00  0.00    +0.000 C 
ATOM     33  O   UNL     1       7.575   6.277  16.248  0.00  0.00    +0.000 OA
BRANCH  32  34
ATOM     34  O   UNL     1       6.015   4.762  15.629  0.00  0.00    +0.000 OA
ATOM     35  H   UNL     1       6.174   5.040  14.706  0.00  0.00    +0.000 HD
ENDBRANCH  32  34
ENDBRANCH  31  32
ENDBRANCH  29  31
ENDBRANCH  26  27
ENDBRANCH  24  26
ENDBRANCH  20  22
ENDBRANCH   3  20
TORSDOF 9
ENDMDL
MODEL 2
REMARK VINA RESULT:      -7.8      0.124      1.032
REMARK  Name = 
REMARK  10 active torsions:
REMARK  status: ('A' for Active; 'I' for Inactive)
REMARK    1  A    between atoms: C_1  and  C_2
REMARK    2  A    between atoms: C_5  and  S_6
REMARK    3  A    between atoms: S_6  and  N_9
REMARK    4  A    between atoms: C_11  and  C_12
REMARK    5  A    between atoms: C_12  and  C_14
REMARK    6  A    between atoms: N_16  and  C_17
REMARK    7  A    between atoms: C_17  and  C_18
REMARK    8  A    between atoms: N_20  and  C_21
REMARK    9  A    between atoms: C_21  and  C_22
REMARK   10  A    between atoms: C_22  and  O_24
REMARK                            x       y       z     vdW  Elec       q    Type
REMARK                         _______ _______ _______ _____ _____    ______ ____
ROOT
ATOM      1  N   UNL     1       0.080  11.903  19.747  0.00  0.00    +0.000 N 
ATOM      2  C   UNL     1       1.185  11.096  19.616  0.00  0.00    +0.000 A 
ATOM      3  C   UNL     1       0.880  10.071  18.737  0.00  0.00    +0.000 A 
ATOM      4  C   UNL     1      -0.473  10.310  18.301  0.00  0.00    +0.000 A 
ATOM      5  C   UNL     1      -1.339   9.625  17.418  0.00  0.00    +0.000 A 
ATOM      6  C   UNL     1      -2.618  10.127  17.159  0.00  0.00    +0.000 A 
ATOM      7  C   UNL     1      -3.045  11.305  17.756  0.00  0.00    +0.000 A 
ATOM      8  C   UNL     1      -2.214  12.007  18.633  0.00  0.00    +0.000 A 
ATOM      9  C   UNL     1      -0.933  11.492  18.907  0.00  0.00    +0.000 A 
ENDROOT
BRANCH   1  10
ATOM     10  S   UNL     1       0.063  13.285  20.752  0.00  0.00    +0.000 S 
ATOM     11  O   UNL     1      -0.275  14.393  19.875  0.00  0.00    +0.000 OA
ATOM     12  O   UNL     1       1.300  13.278  21.508  0.00  0.00    +0.000 OA
BRANCH  10  17
ATOM     13  C   UNL     1      -4.510  12.474  24.663  0.00  0.00    +0.000 C 
ATOM     14  C   UNL     1      -3.380  12.678  23.696  0.00  0.00    +0.000 A 
ATOM     15  C   UNL     1      -3.258  13.875  22.980  0.00  0.00    +0.000 A 
ATOM     16  C   UNL     1      -2.215  14.052  22.068  0.00  0.00    +0.000 A 
ATOM     17  C   UNL     1      -1.293  13.024  21.862  0.00  0.00    +0.000 A 
ATOM     18  C   UNL     1      -1.386  11.833  22.589  0.00  0.00    +0.000 A 
ATOM     19  C   UNL     1      -2.433  11.663  23.499  0.00  0.00    +0.000 A 
ENDBRANCH  10  17
ENDBRANCH   1  10
BRANCH   3  20
ATOM     20  C   UNL     1       1.762   8.966  18.336  0.00  0.00    +0.000 C 
ATOM     21  O   UNL     1       2.305   8.931  17.231  0.00  0.00    +0.000 OA
BRANCH  20  22
ATOM     22  C   UNL     1       2.087   7.802  19.302  0.00  0.00    +0.000 C 
ATOM     23  O   UNL     1       1.672   7.794  20.454  0.00  0.00    +0.000 OA
ATOM     24  N   UNL     1       2.897   6.813  18.779  0.00  0.00    +0.000 N 
ATOM     25  H   UNL     1       3.243   6.910  17.825  0.00  0.00    +0.000 HD
BRANCH  24  26
ATOM     26  C   UNL     1       3.353   5.709  19.599  0.00  0.00    +0.000 C 
BRANCH  26  27
ATOM     27  C   UNL     1       4.429   4.864  18.913  0.00  0.00    +0.000 C 
ATOM     28  O   UNL     1       4.279   3.676  18.641  0.00  0.00    +0.000 OA
ATOM     29  N   UNL     1       5.584   5.553  18.622  0.00  0.00    +0.000 N 
ATOM     30  H   UNL     1       5.683   6.538  18.856  0.00  0.00    +0.000 HD
BRANCH  29  31
ATOM     31  C   UNL     1       6.712   4.904  17.976  0.00  0.00    +0.000 C 
BRANCH  31  32
ATOM     32  C   UNL     1       6.667   5.115  16.469  0.00  0.00    +0.000 C 
ATOM     33  O   UNL     1       5.944   4.480  15.711  0.00  0.00    +0.000 OA
BRANCH  32  34
ATOM     34  O   UNL     1       7.510   6.078  16.032  0.00  0.00    +0.000 OA
ATOM     35  H   UNL     1       8.376   6.097  16.484  0.00  0.00    +0.000 HD
ENDBRANCH  32  34
ENDBRANCH  31  32
ENDBRANCH  29  31
ENDBRANCH  26  27
ENDBRANCH  24  26
ENDBRANCH  20  22
ENDBRANCH   3  20
TORSDOF 9
ENDMDL
MODEL 3
REMARK VINA RESULT:      -7.8      3.393      9.555
REMARK  Name = 
REMARK  10 active torsions:
REMARK  status: ('A' for Active; 'I' for Inactive)
REMARK    1  A    between atoms: C_1  and  C_2
REMARK    2  A    between atoms: C_5  and  S_6
REMARK    3  A    between atoms: S_6  and  N_9
REMARK    4  A    between atoms: C_11  and  C_12
REMARK    5  A    between atoms: C_12  and  C_14
REMARK    6  A    between atoms: N_16  and  C_17
REMARK    7  A    between atoms: C_17  and  C_18
REMARK    8  A    between atoms: N_20  and  C_21
REMARK    9  A    between atoms: C_21  and  C_22
REMARK   10  A    between atoms: C_22  and  O_24
REMARK                            x       y       z     vdW  Elec       q    Type
REMARK                         _______ _______ _______ _____ _____    ______ ____
ROOT
ATOM      1  N   UNL     1       4.074   5.157  18.555  0.00  0.00    +0.000 N 
ATOM      2  C   UNL     1       3.755   6.453  18.876  0.00  0.00    +0.000 A 
ATOM      3  C   UNL     1       2.557   6.453  19.571  0.00  0.00    +0.000 A 
ATOM      4  C   UNL     1       2.167   5.071  19.692  0.00  0.00    +0.000 A 
ATOM      5  C   UNL     1       1.057   4.428  20.285  0.00  0.00    +0.000 A 
ATOM      6  C   UNL     1       0.964   3.033  20.274  0.00  0.00    +0.000 A 
ATOM      7  C   UNL     1       1.964   2.267  19.692  0.00  0.00    +0.000 A 
ATOM      8  C   UNL     1       3.077   2.871  19.098  0.00  0.00    +0.000 A 
ATOM      9  C   UNL     1       3.160   4.276  19.093  0.00  0.00    +0.000 A 
ENDROOT
BRANCH   1  10
ATOM     10  S   UNL     1       5.490   4.743  17.692  0.00  0.00    +0.000 S 
ATOM     11  O   UNL     1       5.073   4.625  16.305  0.00  0.00    +0.000 OA
ATOM     12  O   UNL     1       6.104   3.630  18.389  0.00  0.00    +0.000 OA
BRANCH  10  17
ATOM     13  C   UNL     1       9.015   9.649  18.309  0.00  0.00    +0.000 C 
ATOM     14  C   UNL     1       8.144   8.435  18.160  0.00  0.00    +0.000 A 
ATOM     15  C   UNL     1       8.373   7.290  18.934  0.00  0.00    +0.000 A 
ATOM     16  C   UNL     1       7.572   6.157  18.777  0.00  0.00    +0.000 A 
ATOM     17  C   UNL     1       6.541   6.163  17.835  0.00  0.00    +0.000 A 
ATOM     18  C   UNL     1       6.283   7.307  17.074  0.00  0.00    +0.000 A 
ATOM     19  C   UNL     1       7.090   8.436  17.235  0.00  0.00    +0.000 A 
ENDBRANCH  10  17
ENDBRANCH   1  10
BRANCH   3  20
ATOM     20  C   UNL     1       1.835   7.629  20.076  0.00  0.00    +0.000 C 
ATOM     21  O   UNL     1       1.603   7.788  21.275  0.00  0.00    +0.000 OA
BRANCH  20  22
ATOM     22  C   UNL     1       1.359   8.753  19.126  0.00  0.00    +0.000 C 
ATOM     23  O   UNL     1       1.490   8.663  17.913  0.00  0.00    +0.000 OA
ATOM     24  N   UNL     1       0.818   9.861  19.751  0.00  0.00    +0.000 N 
ATOM     25  H   UNL     1       0.783   9.886  20.770  0.00  0.00    +0.000 HD
BRANCH  24  26
ATOM     26  C   UNL     1       0.413  11.025  18.990  0.00  0.00    +0.000 C 
BRANCH  26  27
ATOM     27  C   UNL     1      -1.098  11.084  18.753  0.00  0.00    +0.000 C 
ATOM     28  O   UNL     1      -1.833  11.905  19.297  0.00  0.00    +0.000 OA
ATOM     29  N   UNL     1      -1.566  10.137  17.871  0.00  0.00    +0.000 N 
ATOM     30  H   UNL     1      -0.937   9.469  17.432  0.00  0.00    +0.000 HD
BRANCH  29  31
ATOM     31  C   UNL     1      -2.976  10.045  17.534  0.00  0.00    +0.000 C 
BRANCH  31  32
ATOM     32  C   UNL     1      -3.352  11.088  16.491  0.00  0.00    +0.000 C 
ATOM     33  O   UNL     1      -4.432  11.666  16.462  0.00  0.00    +0.000 OA
BRANCH  32  34
ATOM     34  O   UNL     1      -2.377  11.323  15.584  0.00  0.00    +0.000 OA
ATOM     35  H   UNL     1      -2.062  12.247  15.556  0.00  0.00    +0.000 HD
ENDBRANCH  32  34
ENDBRANCH  31  32
ENDBRANCH  29  31
ENDBRANCH  26  27
ENDBRANCH  24  26
ENDBRANCH  20  22
ENDBRANCH   3  20
TORSDOF 9
ENDMDL
MODEL 4
REMARK VINA RESULT:      -7.7      3.023     10.236
REMARK  Name = 
REMARK  10 active torsions:
REMARK  status: ('A' for Active; 'I' for Inactive)
REMARK    1  A    between atoms: C_1  and  C_2
REMARK    2  A    between atoms: C_5  and  S_6
REMARK    3  A    between atoms: S_6  and  N_9
REMARK    4  A    between atoms: C_11  and  C_12
REMARK    5  A    between atoms: C_12  and  C_14
REMARK    6  A    between atoms: N_16  and  C_17
REMARK    7  A    between atoms: C_17  and  C_18
REMARK    8  A    between atoms: N_20  and  C_21
REMARK    9  A    between atoms: C_21  and  C_22
REMARK   10  A    between atoms: C_22  and  O_24
REMARK                            x       y       z     vdW  Elec       q    Type
REMARK                         _______ _______ _______ _____ _____    ______ ____
ROOT
ATOM      1  N   UNL     1       4.873   5.849  18.249  0.00  0.00    +0.000 N 
ATOM      2  C   UNL     1       4.259   7.067  18.091  0.00  0.00    +0.000 A 
ATOM      3  C   UNL     1       2.976   6.984  18.605  0.00  0.00    +0.000 A 
ATOM      4  C   UNL     1       2.842   5.647  19.125  0.00  0.00    +0.000 A 
ATOM      5  C   UNL     1       1.785   4.960  19.765  0.00  0.00    +0.000 A 
ATOM      6  C   UNL     1       1.964   3.644  20.200  0.00  0.00    +0.000 A 
ATOM      7  C   UNL     1       3.181   3.003  20.019  0.00  0.00    +0.000 A 
ATOM      8  C   UNL     1       4.248   3.654  19.392  0.00  0.00    +0.000 A 
ATOM      9  C   UNL     1       4.062   4.973  18.938  0.00  0.00    +0.000 A 
ENDROOT
BRANCH   1  10
ATOM     10  S   UNL     1       6.476   5.552  17.737  0.00  0.00    +0.000 S 
ATOM     11  O   UNL     1       6.953   4.468  18.579  0.00  0.00    +0.000 OA
ATOM     12  O   UNL     1       7.157   6.831  17.704  0.00  0.00    +0.000 OA
BRANCH  10  17
ATOM     13  C   UNL     1       5.990   3.318  12.112  0.00  0.00    +0.000 C 
ATOM     14  C   UNL     1       6.108   3.868  13.504  0.00  0.00    +0.000 A 
ATOM     15  C   UNL     1       5.125   3.601  14.465  0.00  0.00    +0.000 A 
ATOM     16  C   UNL     1       5.230   4.131  15.752  0.00  0.00    +0.000 A 
ATOM     17  C   UNL     1       6.320   4.940  16.082  0.00  0.00    +0.000 A 
ATOM     18  C   UNL     1       7.324   5.193  15.142  0.00  0.00    +0.000 A 
ATOM     19  C   UNL     1       7.210   4.661  13.854  0.00  0.00    +0.000 A 
ENDBRANCH  10  17
ENDBRANCH   1  10
BRANCH   3  20
ATOM     20  C   UNL     1       1.962   8.048  18.611  0.00  0.00    +0.000 C 
ATOM     21  O   UNL     1       1.414   8.434  17.578  0.00  0.00    +0.000 OA
BRANCH  20  22
ATOM     22  C   UNL     1       1.500   8.714  19.929  0.00  0.00    +0.000 C 
ATOM     23  O   UNL     1       1.482   8.095  20.985  0.00  0.00    +0.000 OA
ATOM     24  N   UNL     1       1.082  10.025  19.809  0.00  0.00    +0.000 N 
ATOM     25  H   UNL     1       1.081  10.462  18.888  0.00  0.00    +0.000 HD
BRANCH  24  26
ATOM     26  C   UNL     1       0.541  10.744  20.945  0.00  0.00    +0.000 C 
BRANCH  26  27
ATOM     27  C   UNL     1      -0.847  11.328  20.673  0.00  0.00    +0.000 C 
ATOM     28  O   UNL     1      -1.554  11.819  21.549  0.00  0.00    +0.000 OA
ATOM     29  N   UNL     1      -1.237  11.260  19.355  0.00  0.00    +0.000 N 
ATOM     30  H   UNL     1      -0.632  10.850  18.647  0.00  0.00    +0.000 HD
BRANCH  29  31
ATOM     31  C   UNL     1      -2.528  11.763  18.918  0.00  0.00    +0.000 C 
BRANCH  31  32
ATOM     32  C   UNL     1      -3.014  11.012  17.687  0.00  0.00    +0.000 C 
ATOM     33  O   UNL     1      -3.101   9.792  17.622  0.00  0.00    +0.000 OA
BRANCH  32  34
ATOM     34  O   UNL     1      -3.347  11.821  16.656  0.00  0.00    +0.000 OA
ATOM     35  H   UNL     1      -4.148  11.548  16.167  0.00  0.00    +0.000 HD
ENDBRANCH  32  34
ENDBRANCH  31  32
ENDBRANCH  29  31
ENDBRANCH  26  27
ENDBRANCH  24  26
ENDBRANCH  20  22
ENDBRANCH   3  20
TORSDOF 9
ENDMDL
MODEL 5
REMARK VINA RESULT:      -7.6      3.141     10.659
REMARK  Name = 
REMARK  10 active torsions:
REMARK  status: ('A' for Active; 'I' for Inactive)
REMARK    1  A    between atoms: C_1  and  C_2
REMARK    2  A    between atoms: C_5  and  S_6
REMARK    3  A    between atoms: S_6  and  N_9
REMARK    4  A    between atoms: C_11  and  C_12
REMARK    5  A    between atoms: C_12  and  C_14
REMARK    6  A    between atoms: N_16  and  C_17
REMARK    7  A    between atoms: C_17  and  C_18
REMARK    8  A    between atoms: N_20  and  C_21
REMARK    9  A    between atoms: C_21  and  C_22
REMARK   10  A    between atoms: C_22  and  O_24
REMARK                            x       y       z     vdW  Elec       q    Type
REMARK                         _______ _______ _______ _____ _____    ______ ____
ROOT
ATOM      1  N   UNL     1       5.110   5.785  17.419  0.00  0.00    +0.000 N 
ATOM      2  C   UNL     1       4.596   7.036  17.661  0.00  0.00    +0.000 A 
ATOM      3  C   UNL     1       3.250   6.909  17.957  0.00  0.00    +0.000 A 
ATOM      4  C   UNL     1       2.965   5.497  17.918  0.00  0.00    +0.000 A 
ATOM      5  C   UNL     1       1.788   4.742  18.127  0.00  0.00    +0.000 A 
ATOM      6  C   UNL     1       1.826   3.346  18.053  0.00  0.00    +0.000 A 
ATOM      7  C   UNL     1       3.019   2.689  17.783  0.00  0.00    +0.000 A 
ATOM      8  C   UNL     1       4.201   3.405  17.573  0.00  0.00    +0.000 A 
ATOM      9  C   UNL     1       4.158   4.811  17.630  0.00  0.00    +0.000 A 
ENDROOT
BRANCH   1  10
ATOM     10  S   UNL     1       6.751   5.525  17.019  0.00  0.00    +0.000 S 
ATOM     11  O   UNL     1       7.199   4.465  17.905  0.00  0.00    +0.000 OA
ATOM     12  O   UNL     1       7.399   6.822  17.013  0.00  0.00    +0.000 OA
BRANCH  10  17
ATOM     13  C   UNL     1       6.584   3.473  11.306  0.00  0.00    +0.000 C 
ATOM     14  C   UNL     1       6.627   3.984  12.717  0.00  0.00    +0.000 A 
ATOM     15  C   UNL     1       7.620   4.884  13.123  0.00  0.00    +0.000 A 
ATOM     16  C   UNL     1       7.667   5.340  14.442  0.00  0.00    +0.000 A 
ATOM     17  C   UNL     1       6.721   4.888  15.365  0.00  0.00    +0.000 A 
ATOM     18  C   UNL     1       5.707   4.011  14.969  0.00  0.00    +0.000 A 
ATOM     19  C   UNL     1       5.668   3.557  13.648  0.00  0.00    +0.000 A 
ENDBRANCH  10  17
ENDBRANCH   1  10
BRANCH   3  20
ATOM     20  C   UNL     1       2.308   7.999  18.248  0.00  0.00    +0.000 C 
ATOM     21  O   UNL     1       1.911   8.771  17.374  0.00  0.00    +0.000 OA
BRANCH  20  22
ATOM     22  C   UNL     1       1.732   8.210  19.668  0.00  0.00    +0.000 C 
ATOM     23  O   UNL     1       1.871   7.368  20.546  0.00  0.00    +0.000 OA
ATOM     24  N   UNL     1       1.030   9.387  19.849  0.00  0.00    +0.000 N 
ATOM     25  H   UNL     1       0.915  10.021  19.058  0.00  0.00    +0.000 HD
BRANCH  24  26
ATOM     26  C   UNL     1       0.363   9.674  21.102  0.00  0.00    +0.000 C 
BRANCH  26  27
ATOM     27  C   UNL     1      -0.206  11.094  21.161  0.00  0.00    +0.000 C 
ATOM     28  O   UNL     1      -0.094  11.822  22.144  0.00  0.00    +0.000 OA
ATOM     29  N   UNL     1      -0.852  11.489  20.012  0.00  0.00    +0.000 N 
ATOM     30  H   UNL     1      -0.929  10.868  19.211  0.00  0.00    +0.000 HD
BRANCH  29  31
ATOM     31  C   UNL     1      -1.456  12.805  19.896  0.00  0.00    +0.000 C 
BRANCH  31  32
ATOM     32  C   UNL     1      -2.953  12.739  20.166  0.00  0.00    +0.000 C 
ATOM     33  O   UNL     1      -3.454  12.887  21.274  0.00  0.00    +0.000 OA
BRANCH  32  34
ATOM     34  O   UNL     1      -3.692  12.499  19.060  0.00  0.00    +0.000 OA
ATOM     35  H   UNL     1      -3.191  12.524  18.221  0.00  0.00    +0.000 HD
ENDBRANCH  32  34
ENDBRANCH  31  32
ENDBRANCH  29  31
ENDBRANCH  26  27
ENDBRANCH  24  26
ENDBRANCH  20  22
ENDBRANCH   3  20
TORSDOF 9
ENDMDL
MODEL 6
REMARK VINA RESULT:      -7.6      3.859      9.144
REMARK  Name = 
REMARK  10 active torsions:
REMARK  status: ('A' for Active; 'I' for Inactive)
REMARK    1  A    between atoms: C_1  and  C_2
REMARK    2  A    between atoms: C_5  and  S_6
REMARK    3  A    between atoms: S_6  and  N_9
REMARK    4  A    between atoms: C_11  and  C_12
REMARK    5  A    between atoms: C_12  and  C_14
REMARK    6  A    between atoms: N_16  and  C_17
REMARK    7  A    between atoms: C_17  and  C_18
REMARK    8  A    between atoms: N_20  and  C_21
REMARK    9  A    between atoms: C_21  and  C_22
REMARK   10  A    between atoms: C_22  and  O_24
REMARK                            x       y       z     vdW  Elec       q    Type
REMARK                         _______ _______ _______ _____ _____    ______ ____
ROOT
ATOM      1  N   UNL     1      -0.172  10.383  20.129  0.00  0.00    +0.000 N 
ATOM      2  C   UNL     1      -1.296  10.118  19.386  0.00  0.00    +0.000 A 
ATOM      3  C   UNL     1      -1.627  11.254  18.667  0.00  0.00    +0.000 A 
ATOM      4  C   UNL     1      -0.617  12.233  18.983  0.00  0.00    +0.000 A 
ATOM      5  C   UNL     1      -0.405  13.569  18.574  0.00  0.00    +0.000 A 
ATOM      6  C   UNL     1       0.711  14.276  19.034  0.00  0.00    +0.000 A 
ATOM      7  C   UNL     1       1.623  13.671  19.886  0.00  0.00    +0.000 A 
ATOM      8  C   UNL     1       1.444  12.350  20.309  0.00  0.00    +0.000 A 
ATOM      9  C   UNL     1       0.312  11.645  19.860  0.00  0.00    +0.000 A 
ENDROOT
BRANCH   1  10
ATOM     10  S   UNL     1       0.550   9.221  21.153  0.00  0.00    +0.000 S 
ATOM     11  O   UNL     1      -0.544   8.387  21.620  0.00  0.00    +0.000 OA
ATOM     12  O   UNL     1       1.396   9.940  22.086  0.00  0.00    +0.000 OA
BRANCH  10  17
ATOM     13  C   UNL     1       3.929   5.839  17.408  0.00  0.00    +0.000 C 
ATOM     14  C   UNL     1       3.092   6.677  18.331  0.00  0.00    +0.000 A 
ATOM     15  C   UNL     1       2.689   7.966  17.960  0.00  0.00    +0.000 A 
ATOM     16  C   UNL     1       1.927   8.748  18.830  0.00  0.00    +0.000 A 
ATOM     17  C   UNL     1       1.572   8.245  20.084  0.00  0.00    +0.000 A 
ATOM     18  C   UNL     1       1.944   6.950  20.459  0.00  0.00    +0.000 A 
ATOM     19  C   UNL     1       2.708   6.174  19.582  0.00  0.00    +0.000 A 
ENDBRANCH  10  17
ENDBRANCH   1  10
BRANCH   3  20
ATOM     20  C   UNL     1      -2.778  11.421  17.769  0.00  0.00    +0.000 C 
ATOM     21  O   UNL     1      -2.661  11.383  16.543  0.00  0.00    +0.000 OA
BRANCH  20  22
ATOM     22  C   UNL     1      -4.210  11.617  18.320  0.00  0.00    +0.000 C 
ATOM     23  O   UNL     1      -5.120  10.856  18.017  0.00  0.00    +0.000 OA
ATOM     24  N   UNL     1      -4.381  12.719  19.135  0.00  0.00    +0.000 N 
ATOM     25  H   UNL     1      -3.587  13.336  19.306  0.00  0.00    +0.000 HD
BRANCH  24  26
ATOM     26  C   UNL     1      -5.688  13.073  19.649  0.00  0.00    +0.000 C 
BRANCH  26  27
ATOM     27  C   UNL     1      -5.943  12.524  21.054  0.00  0.00    +0.000 C 
ATOM     28  O   UNL     1      -6.455  11.427  21.265  0.00  0.00    +0.000 OA
ATOM     29  N   UNL     1      -5.544  13.365  22.068  0.00  0.00    +0.000 N 
ATOM     30  H   UNL     1      -5.120  14.268  21.867  0.00  0.00    +0.000 HD
BRANCH  29  31
ATOM     31  C   UNL     1      -5.715  13.006  23.464  0.00  0.00    +0.000 C 
BRANCH  31  32
ATOM     32  C   UNL     1      -4.375  12.686  24.110  0.00  0.00    +0.000 C 
ATOM     33  O   UNL     1      -3.304  12.728  23.518  0.00  0.00    +0.000 OA
BRANCH  32  34
ATOM     34  O   UNL     1      -4.470  12.345  25.415  0.00  0.00    +0.000 OA
ATOM     35  H   UNL     1      -5.356  12.039  25.692  0.00  0.00    +0.000 HD
ENDBRANCH  32  34
ENDBRANCH  31  32
ENDBRANCH  29  31
ENDBRANCH  26  27
ENDBRANCH  24  26
ENDBRANCH  20  22
ENDBRANCH   3  20
TORSDOF 9
ENDMDL
MODEL 7
REMARK VINA RESULT:      -7.5      3.273     10.514
REMARK  Name = 
REMARK  10 active torsions:
REMARK  status: ('A' for Active; 'I' for Inactive)
REMARK    1  A    between atoms: C_1  and  C_2
REMARK    2  A    between atoms: C_5  and  S_6
REMARK    3  A    between atoms: S_6  and  N_9
REMARK    4  A    between atoms: C_11  and  C_12
REMARK    5  A    between atoms: C_12  and  C_14
REMARK    6  A    between atoms: N_16  and  C_17
REMARK    7  A    between atoms: C_17  and  C_18
REMARK    8  A    between atoms: N_20  and  C_21
REMARK    9  A    between atoms: C_21  and  C_22
REMARK   10  A    between atoms: C_22  and  O_24
REMARK                            x       y       z     vdW  Elec       q    Type
REMARK                         _______ _______ _______ _____ _____    ______ ____
ROOT
ATOM      1  N   UNL     1       5.043   5.799  17.504  0.00  0.00    +0.000 N 
ATOM      2  C   UNL     1       4.590   7.081  17.693  0.00  0.00    +0.000 A 
ATOM      3  C   UNL     1       3.228   7.035  17.936  0.00  0.00    +0.000 A 
ATOM      4  C   UNL     1       2.867   5.640  17.920  0.00  0.00    +0.000 A 
ATOM      5  C   UNL     1       1.644   4.955  18.099  0.00  0.00    +0.000 A 
ATOM      6  C   UNL     1       1.608   3.558  18.061  0.00  0.00    +0.000 A 
ATOM      7  C   UNL     1       2.772   2.831  17.858  0.00  0.00    +0.000 A 
ATOM      8  C   UNL     1       4.000   3.476  17.679  0.00  0.00    +0.000 A 
ATOM      9  C   UNL     1       4.032   4.883  17.700  0.00  0.00    +0.000 A 
ENDROOT
BRANCH   1  10
ATOM     10  S   UNL     1       6.682   5.440  17.179  0.00  0.00    +0.000 S 
ATOM     11  O   UNL     1       6.993   4.284  18.002  0.00  0.00    +0.000 OA
ATOM     12  O   UNL     1       7.425   6.678  17.314  0.00  0.00    +0.000 OA
BRANCH  10  17
ATOM     13  C   UNL     1       6.855   3.582  11.401  0.00  0.00    +0.000 C 
ATOM     14  C   UNL     1       6.811   4.038  12.830  0.00  0.00    +0.000 A 
ATOM     15  C   UNL     1       5.890   3.486  13.729  0.00  0.00    +0.000 A 
ATOM     16  C   UNL     1       5.841   3.928  15.053  0.00  0.00    +0.000 A 
ATOM     17  C   UNL     1       6.710   4.935  15.481  0.00  0.00    +0.000 A 
ATOM     18  C   UNL     1       7.653   5.476  14.602  0.00  0.00    +0.000 A 
ATOM     19  C   UNL     1       7.695   5.030  13.278  0.00  0.00    +0.000 A 
ENDBRANCH  10  17
ENDBRANCH   1  10
BRANCH   3  20
ATOM     20  C   UNL     1       2.336   8.182  18.160  0.00  0.00    +0.000 C 
ATOM     21  O   UNL     1       2.052   8.975  17.261  0.00  0.00    +0.000 OA
BRANCH  20  22
ATOM     22  C   UNL     1       1.673   8.432  19.535  0.00  0.00    +0.000 C 
ATOM     23  O   UNL     1       1.863   7.680  20.482  0.00  0.00    +0.000 OA
ATOM     24  N   UNL     1       0.837   9.530  19.594  0.00  0.00    +0.000 N 
ATOM     25  H   UNL     1       0.690  10.086  18.751  0.00  0.00    +0.000 HD
BRANCH  24  26
ATOM     26  C   UNL     1       0.083   9.832  20.793  0.00  0.00    +0.000 C 
BRANCH  26  27
ATOM     27  C   UNL     1       0.123  11.317  21.163  0.00  0.00    +0.000 C 
ATOM     28  O   UNL     1      -0.087  11.732  22.300  0.00  0.00    +0.000 OA
ATOM     29  N   UNL     1       0.421  12.151  20.110  0.00  0.00    +0.000 N 
ATOM     30  H   UNL     1       0.593  11.782  19.178  0.00  0.00    +0.000 HD
BRANCH  29  31
ATOM     31  C   UNL     1       0.495  13.591  20.281  0.00  0.00    +0.000 C 
BRANCH  31  32
ATOM     32  C   UNL     1      -0.781  14.262  19.793  0.00  0.00    +0.000 C 
ATOM     33  O   UNL     1      -1.852  14.204  20.384  0.00  0.00    +0.000 OA
BRANCH  32  34
ATOM     34  O   UNL     1      -0.628  14.937  18.631  0.00  0.00    +0.000 OA
ATOM     35  H   UNL     1      -1.375  15.522  18.399  0.00  0.00    +0.000 HD
ENDBRANCH  32  34
ENDBRANCH  31  32
ENDBRANCH  29  31
ENDBRANCH  26  27
ENDBRANCH  24  26
ENDBRANCH  20  22
ENDBRANCH   3  20
TORSDOF 9
ENDMDL
MODEL 8
REMARK VINA RESULT:      -7.5      3.138     10.304
REMARK  Name = 
REMARK  10 active torsions:
REMARK  status: ('A' for Active; 'I' for Inactive)
REMARK    1  A    between atoms: C_1  and  C_2
REMARK    2  A    between atoms: C_5  and  S_6
REMARK    3  A    between atoms: S_6  and  N_9
REMARK    4  A    between atoms: C_11  and  C_12
REMARK    5  A    between atoms: C_12  and  C_14
REMARK    6  A    between atoms: N_16  and  C_17
REMARK    7  A    between atoms: C_17  and  C_18
REMARK    8  A    between atoms: N_20  and  C_21
REMARK    9  A    between atoms: C_21  and  C_22
REMARK   10  A    between atoms: C_22  and  O_24
REMARK                            x       y       z     vdW  Elec       q    Type
REMARK                         _______ _______ _______ _____ _____    ______ ____
ROOT
ATOM      1  N   UNL     1       4.916   5.875  17.795  0.00  0.00    +0.000 N 
ATOM      2  C   UNL     1       4.437   7.162  17.822  0.00  0.00    +0.000 A 
ATOM      3  C   UNL     1       3.085   7.123  18.117  0.00  0.00    +0.000 A 
ATOM      4  C   UNL     1       2.759   5.733  18.307  0.00  0.00    +0.000 A 
ATOM      5  C   UNL     1       1.559   5.055  18.623  0.00  0.00    +0.000 A 
ATOM      6  C   UNL     1       1.557   3.666  18.780  0.00  0.00    +0.000 A 
ATOM      7  C   UNL     1       2.732   2.941  18.638  0.00  0.00    +0.000 A 
ATOM      8  C   UNL     1       3.936   3.579  18.328  0.00  0.00    +0.000 A 
ATOM      9  C   UNL     1       3.934   4.975  18.152  0.00  0.00    +0.000 A 
ENDROOT
BRANCH   1  10
ATOM     10  S   UNL     1       6.552   5.507  17.465  0.00  0.00    +0.000 S 
ATOM     11  O   UNL     1       6.892   4.422  18.370  0.00  0.00    +0.000 OA
ATOM     12  O   UNL     1       7.283   6.759  17.486  0.00  0.00    +0.000 OA
BRANCH  10  17
ATOM     13  C   UNL     1       6.486   3.451  11.752  0.00  0.00    +0.000 C 
ATOM     14  C   UNL     1       6.504   3.963  13.163  0.00  0.00    +0.000 A 
ATOM     15  C   UNL     1       7.507   4.840  13.594  0.00  0.00    +0.000 A 
ATOM     16  C   UNL     1       7.530   5.297  14.913  0.00  0.00    +0.000 A 
ATOM     17  C   UNL     1       6.550   4.869  15.812  0.00  0.00    +0.000 A 
ATOM     18  C   UNL     1       5.527   4.014  15.391  0.00  0.00    +0.000 A 
ATOM     19  C   UNL     1       5.512   3.560  14.069  0.00  0.00    +0.000 A 
ENDBRANCH  10  17
ENDBRANCH   1  10
BRANCH   3  20
ATOM     20  C   UNL     1       2.174   8.272  18.212  0.00  0.00    +0.000 C 
ATOM     21  O   UNL     1       1.791   8.887  17.215  0.00  0.00    +0.000 OA
BRANCH  20  22
ATOM     22  C   UNL     1       1.613   8.747  19.573  0.00  0.00    +0.000 C 
ATOM     23  O   UNL     1       1.617   8.017  20.555  0.00  0.00    +0.000 OA
ATOM     24  N   UNL     1       1.085  10.024  19.578  0.00  0.00    +0.000 N 
ATOM     25  H   UNL     1       1.074  10.558  18.709  0.00  0.00    +0.000 HD
BRANCH  24  26
ATOM     26  C   UNL     1       0.447  10.564  20.761  0.00  0.00    +0.000 C 
BRANCH  26  27
ATOM     27  C   UNL     1      -0.914  11.199  20.465  0.00  0.00    +0.000 C 
ATOM     28  O   UNL     1      -1.589  11.771  21.317  0.00  0.00    +0.000 OA
ATOM     29  N   UNL     1      -1.318  11.079  19.155  0.00  0.00    +0.000 N 
ATOM     30  H   UNL     1      -0.739  10.603  18.467  0.00  0.00    +0.000 HD
BRANCH  29  31
ATOM     31  C   UNL     1      -2.586  11.620  18.699  0.00  0.00    +0.000 C 
BRANCH  31  32
ATOM     32  C   UNL     1      -3.120  10.826  17.515  0.00  0.00    +0.000 C 
ATOM     33  O   UNL     1      -3.501  11.335  16.468  0.00  0.00    +0.000 OA
BRANCH  32  34
ATOM     34  O   UNL     1      -3.138   9.490  17.723  0.00  0.00    +0.000 OA
ATOM     35  H   UNL     1      -2.466   8.991  17.219  0.00  0.00    +0.000 HD
ENDBRANCH  32  34
ENDBRANCH  31  32
ENDBRANCH  29  31
ENDBRANCH  26  27
ENDBRANCH  24  26
ENDBRANCH  20  22
ENDBRANCH   3  20
TORSDOF 9
ENDMDL
MODEL 9
REMARK VINA RESULT:      -7.5      1.305      1.809
REMARK  Name = 
REMARK  10 active torsions:
REMARK  status: ('A' for Active; 'I' for Inactive)
REMARK    1  A    between atoms: C_1  and  C_2
REMARK    2  A    between atoms: C_5  and  S_6
REMARK    3  A    between atoms: S_6  and  N_9
REMARK    4  A    between atoms: C_11  and  C_12
REMARK    5  A    between atoms: C_12  and  C_14
REMARK    6  A    between atoms: N_16  and  C_17
REMARK    7  A    between atoms: C_17  and  C_18
REMARK    8  A    between atoms: N_20  and  C_21
REMARK    9  A    between atoms: C_21  and  C_22
REMARK   10  A    between atoms: C_22  and  O_24
REMARK                            x       y       z     vdW  Elec       q    Type
REMARK                         _______ _______ _______ _____ _____    ______ ____
ROOT
ATOM      1  N   UNL     1      -0.470  11.919  20.533  0.00  0.00    +0.000 N 
ATOM      2  C   UNL     1       0.469  10.998  20.930  0.00  0.00    +0.000 A 
ATOM      3  C   UNL     1       0.442   9.933  20.047  0.00  0.00    +0.000 A 
ATOM      4  C   UNL     1      -0.549  10.263  19.054  0.00  0.00    +0.000 A 
ATOM      5  C   UNL     1      -1.032   9.590  17.909  0.00  0.00    +0.000 A 
ATOM      6  C   UNL     1      -1.999  10.190  17.097  0.00  0.00    +0.000 A 
ATOM      7  C   UNL     1      -2.485  11.454  17.401  0.00  0.00    +0.000 A 
ATOM      8  C   UNL     1      -2.028  12.148  18.525  0.00  0.00    +0.000 A 
ATOM      9  C   UNL     1      -1.068  11.536  19.352  0.00  0.00    +0.000 A 
ENDROOT
BRANCH   1  10
ATOM     10  S   UNL     1      -0.738  13.382  21.374  0.00  0.00    +0.000 S 
ATOM     11  O   UNL     1      -0.840  14.403  20.345  0.00  0.00    +0.000 OA
ATOM     12  O   UNL     1       0.266  13.465  22.417  0.00  0.00    +0.000 OA
BRANCH  10  17
ATOM     13  C   UNL     1      -6.187  12.865  24.004  0.00  0.00    +0.000 C 
ATOM     14  C   UNL     1      -4.841  12.996  23.352  0.00  0.00    +0.000 A 
ATOM     15  C   UNL     1      -4.685  13.737  22.174  0.00  0.00    +0.000 A 
ATOM     16  C   UNL     1      -3.434  13.839  21.562  0.00  0.00    +0.000 A 
ATOM     17  C   UNL     1      -2.332  13.190  22.124  0.00  0.00    +0.000 A 
ATOM     18  C   UNL     1      -2.466  12.469  23.314  0.00  0.00    +0.000 A 
ATOM     19  C   UNL     1      -3.722  12.370  23.920  0.00  0.00    +0.000 A 
ENDBRANCH  10  17
ENDBRANCH   1  10
BRANCH   3  20
ATOM     20  C   UNL     1       1.260   8.713  20.116  0.00  0.00    +0.000 C 
ATOM     21  O   UNL     1       1.271   7.990  21.113  0.00  0.00    +0.000 OA
BRANCH  20  22
ATOM     22  C   UNL     1       2.123   8.251  18.919  0.00  0.00    +0.000 C 
ATOM     23  O   UNL     1       2.386   9.007  17.992  0.00  0.00    +0.000 OA
ATOM     24  N   UNL     1       2.533   6.932  18.964  0.00  0.00    +0.000 N 
ATOM     25  H   UNL     1       2.236   6.349  19.746  0.00  0.00    +0.000 HD
BRANCH  24  26
ATOM     26  C   UNL     1       3.273   6.342  17.867  0.00  0.00    +0.000 C 
BRANCH  26  27
ATOM     27  C   UNL     1       4.735   6.062  18.219  0.00  0.00    +0.000 C 
ATOM     28  O   UNL     1       5.081   5.474  19.240  0.00  0.00    +0.000 OA
ATOM     29  N   UNL     1       5.636   6.524  17.286  0.00  0.00    +0.000 N 
ATOM     30  H   UNL     1       5.324   7.006  16.447  0.00  0.00    +0.000 HD
BRANCH  29  31
ATOM     31  C   UNL     1       7.067   6.349  17.462  0.00  0.00    +0.000 C 
BRANCH  31  32
ATOM     32  C   UNL     1       7.483   4.921  17.137  0.00  0.00    +0.000 C 
ATOM     33  O   UNL     1       7.718   4.520  16.003  0.00  0.00    +0.000 OA
BRANCH  32  34
ATOM     34  O   UNL     1       7.570   4.122  18.224  0.00  0.00    +0.000 OA
ATOM     35  H   UNL     1       6.802   4.167  18.825  0.00  0.00    +0.000 HD
ENDBRANCH  32  34
ENDBRANCH  31  32
ENDBRANCH  29  31
ENDBRANCH  26  27
ENDBRANCH  24  26
ENDBRANCH  20  22
ENDBRANCH   3  20
TORSDOF 9
ENDMDL
