MODEL 1
REMARK VINA RESULT:      -7.6      0.000      0.000
REMARK  Name = 
REMARK  7 active torsions:
REMARK  status: ('A' for Active; 'I' for Inactive)
REMARK    1  A    between atoms: C_1  and  C_2
REMARK    2  A    between atoms: C_4  and  C_5
REMARK    3  A    between atoms: C_6  and  S_7
REMARK    4  A    between atoms: S_7  and  N_10
REMARK    5  A    between atoms: N_10  and  C_11
REMARK    6  A    between atoms: C_11  and  C_12
REMARK    7  A    between atoms: C_19  and  C_20
REMARK                            x       y       z     vdW  Elec       q    Type
REMARK                         _______ _______ _______ _____ _____    ______ ____
ROOT
ATOM      1  C   UNL     1       4.942   1.597  20.319  0.00  0.00    +0.000 C 
ATOM      2  C   UNL     1       4.121   2.824  20.085  0.00  0.00    +0.000 A 
ATOM      3  N   UNL     1       2.795   2.812  20.424  0.00  0.00    +0.000 N 
ATOM      4  C   UNL     1       2.178   3.974  20.042  0.00  0.00    +0.000 A 
ATOM      5  C   UNL     1       0.732   4.177  20.314  0.00  0.00    +0.000 C 
ATOM      6  C   UNL     1       3.144   4.779  19.450  0.00  0.00    +0.000 A 
ATOM      7  C   UNL     1       4.398   4.068  19.505  0.00  0.00    +0.000 A 
ATOM      8  H   UNL     1       2.327   2.036  20.875  0.00  0.00    +0.000 HD
ENDROOT
BRANCH   7   9
ATOM      9  C   UNL     1       5.684   4.476  18.926  0.00  0.00    +0.000 C 
ATOM     10  O   UNL     1       6.570   4.918  19.655  0.00  0.00    +0.000 OA
ATOM     11  N   UNL     1       5.808   4.451  17.543  0.00  0.00    +0.000 N 
ATOM     12  C   UNL     1       6.969   5.002  16.877  0.00  0.00    +0.000 C 
ATOM     13  C   UNL     1       6.439   5.308  15.486  0.00  0.00    +0.000 C 
ATOM     14  C   UNL     1       5.410   4.203  15.227  0.00  0.00    +0.000 C 
ATOM     15  C   UNL     1       5.097   3.604  16.599  0.00  0.00    +0.000 C 
ENDBRANCH   7   9
BRANCH   6  16
ATOM     16  S   UNL     1       2.878   6.389  18.814  0.00  0.00    +0.000 S 
ATOM     17  O   UNL     1       4.200   6.862  18.466  0.00  0.00    +0.000 OA
ATOM     18  O   UNL     1       1.857   6.221  17.806  0.00  0.00    +0.000 OA
BRANCH  16  19
ATOM     19  N   UNL     1       2.266   7.398  20.031  0.00  0.00    +0.000 NA
ATOM     20  H   UNL     1       2.977   7.573  20.746  0.00  0.00    +0.000 HD
BRANCH  19  21
ATOM     21  C   UNL     1       1.520   8.596  19.584  0.00  0.00    +0.000 C 
BRANCH  21  22
ATOM     22  C   UNL     1       0.795   9.340  20.693  0.00  0.00    +0.000 A 
ATOM     23  C   UNL     1       0.554   8.719  21.933  0.00  0.00    +0.000 A 
ATOM     24  C   UNL     1      -0.127   9.383  22.959  0.00  0.00    +0.000 A 
ATOM     25  C   UNL     1      -0.601  10.677  22.766  0.00  0.00    +0.000 A 
ATOM     26  C   UNL     1      -0.418  11.296  21.532  0.00  0.00    +0.000 A 
ATOM     27  C   UNL     1       0.261  10.631  20.501  0.00  0.00    +0.000 A 
ATOM     28 CL   UNL     1       0.387  11.460  18.986  0.00  0.00    +0.000 Cl
ENDBRANCH  21  22
ENDBRANCH  19  21
ENDBRANCH  16  19
ENDBRANCH   6  16
TORSDOF 5
ENDMDL
MODEL 2
REMARK VINA RESULT:      -7.4      2.118      3.096
REMARK  Name = 
REMARK  7 active torsions:
REMARK  status: ('A' for Active; 'I' for Inactive)
REMARK    1  A    between atoms: C_1  and  C_2
REMARK    2  A    between atoms: C_4  and  C_5
REMARK    3  A    between atoms: C_6  and  S_7
REMARK    4  A    between atoms: S_7  and  N_10
REMARK    5  A    between atoms: N_10  and  C_11
REMARK    6  A    between atoms: C_11  and  C_12
REMARK    7  A    between atoms: C_19  and  C_20
REMARK                            x       y       z     vdW  Elec       q    Type
REMARK                         _______ _______ _______ _____ _____    ______ ____
ROOT
ATOM      1  C   UNL     1       5.101   3.378  16.030  0.00  0.00    +0.000 C 
ATOM      2  C   UNL     1       4.240   3.502  17.245  0.00  0.00    +0.000 A 
ATOM      3  N   UNL     1       3.560   2.401  17.694  0.00  0.00    +0.000 N 
ATOM      4  C   UNL     1       2.742   2.722  18.744  0.00  0.00    +0.000 A 
ATOM      5  C   UNL     1       1.909   1.675  19.389  0.00  0.00    +0.000 C 
ATOM      6  C   UNL     1       2.910   4.077  19.000  0.00  0.00    +0.000 A 
ATOM      7  C   UNL     1       3.893   4.578  18.071  0.00  0.00    +0.000 A 
ATOM      8  H   UNL     1       3.634   1.477  17.286  0.00  0.00    +0.000 HD
ENDROOT
BRANCH   7   9
ATOM      9  C   UNL     1       4.334   5.967  17.897  0.00  0.00    +0.000 C 
ATOM     10  O   UNL     1       3.556   6.802  17.440  0.00  0.00    +0.000 OA
ATOM     11  N   UNL     1       5.666   6.262  18.155  0.00  0.00    +0.000 N 
ATOM     12  C   UNL     1       6.230   7.557  17.841  0.00  0.00    +0.000 C 
ATOM     13  C   UNL     1       7.712   7.250  17.707  0.00  0.00    +0.000 C 
ATOM     14  C   UNL     1       7.956   6.133  18.726  0.00  0.00    +0.000 C 
ATOM     15  C   UNL     1       6.571   5.576  19.063  0.00  0.00    +0.000 C 
ENDBRANCH   7   9
BRANCH   6  16
ATOM     16  S   UNL     1       2.109   4.982  20.268  0.00  0.00    +0.000 S 
ATOM     17  O   UNL     1       0.699   4.846  19.974  0.00  0.00    +0.000 OA
ATOM     18  O   UNL     1       2.668   4.464  21.496  0.00  0.00    +0.000 OA
BRANCH  16  19
ATOM     19  N   UNL     1       2.512   6.624  20.150  0.00  0.00    +0.000 NA
ATOM     20  H   UNL     1       2.595   6.906  19.169  0.00  0.00    +0.000 HD
BRANCH  19  21
ATOM     21  C   UNL     1       1.745   7.557  21.006  0.00  0.00    +0.000 C 
BRANCH  21  22
ATOM     22  C   UNL     1       1.043   8.676  20.253  0.00  0.00    +0.000 A 
ATOM     23  C   UNL     1       1.450   9.027  18.952  0.00  0.00    +0.000 A 
ATOM     24  C   UNL     1       0.826  10.065  18.251  0.00  0.00    +0.000 A 
ATOM     25  C   UNL     1      -0.206  10.790  18.839  0.00  0.00    +0.000 A 
ATOM     26  C   UNL     1      -0.594  10.493  20.143  0.00  0.00    +0.000 A 
ATOM     27  C   UNL     1       0.031   9.456  20.849  0.00  0.00    +0.000 A 
ATOM     28 CL   UNL     1      -0.480   9.202  22.483  0.00  0.00    +0.000 Cl
ENDBRANCH  21  22
ENDBRANCH  19  21
ENDBRANCH  16  19
ENDBRANCH   6  16
TORSDOF 5
ENDMDL
MODEL 3
REMARK VINA RESULT:      -7.4      3.566      8.802
REMARK  Name = 
REMARK  7 active torsions:
REMARK  status: ('A' for Active; 'I' for Inactive)
REMARK    1  A    between atoms: C_1  and  C_2
REMARK    2  A    between atoms: C_4  and  C_5
REMARK    3  A    between atoms: C_6  and  S_7
REMARK    4  A    between atoms: S_7  and  N_10
REMARK    5  A    between atoms: N_10  and  C_11
REMARK    6  A    between atoms: C_11  and  C_12
REMARK    7  A    between atoms: C_19  and  C_20
REMARK                            x       y       z     vdW  Elec       q    Type
REMARK                         _______ _______ _______ _____ _____    ______ ____
ROOT
ATOM      1  C   UNL     1      -0.711  12.928  18.251  0.00  0.00    +0.000 C 
ATOM      2  C   UNL     1      -0.074  11.699  18.816  0.00  0.00    +0.000 A 
ATOM      3  N   UNL     1       0.544  10.821  17.967  0.00  0.00    +0.000 N 
ATOM      4  C   UNL     1       0.973   9.706  18.638  0.00  0.00    +0.000 A 
ATOM      5  C   UNL     1       1.676   8.619  17.910  0.00  0.00    +0.000 C 
ATOM      6  C   UNL     1       0.638   9.875  19.976  0.00  0.00    +0.000 A 
ATOM      7  C   UNL     1       0.000  11.163  20.107  0.00  0.00    +0.000 A 
ATOM      8  H   UNL     1       0.648  10.964  16.970  0.00  0.00    +0.000 HD
ENDROOT
BRANCH   7   9
ATOM      9  C   UNL     1      -0.607  11.742  21.311  0.00  0.00    +0.000 C 
ATOM     10  O   UNL     1      -1.535  11.159  21.869  0.00  0.00    +0.000 OA
ATOM     11  N   UNL     1      -0.177  13.000  21.712  0.00  0.00    +0.000 N 
ATOM     12  C   UNL     1      -0.841  13.724  22.776  0.00  0.00    +0.000 C 
ATOM     13  C   UNL     1      -0.479  15.168  22.471  0.00  0.00    +0.000 C 
ATOM     14  C   UNL     1       0.930  15.082  21.875  0.00  0.00    +0.000 C 
ATOM     15  C   UNL     1       1.118  13.616  21.478  0.00  0.00    +0.000 C 
ENDBRANCH   7   9
BRANCH   6  16
ATOM     16  S   UNL     1       0.991   8.744  21.266  0.00  0.00    +0.000 S 
ATOM     17  O   UNL     1       1.640   9.545  22.281  0.00  0.00    +0.000 OA
ATOM     18  O   UNL     1      -0.267   8.084  21.529  0.00  0.00    +0.000 OA
BRANCH  16  19
ATOM     19  N   UNL     1       2.102   7.582  20.729  0.00  0.00    +0.000 NA
ATOM     20  H   UNL     1       3.012   7.717  21.178  0.00  0.00    +0.000 HD
BRANCH  19  21
ATOM     21  C   UNL     1       1.626   6.181  20.688  0.00  0.00    +0.000 C 
BRANCH  21  22
ATOM     22  C   UNL     1       2.657   5.176  20.200  0.00  0.00    +0.000 A 
ATOM     23  C   UNL     1       3.794   5.605  19.491  0.00  0.00    +0.000 A 
ATOM     24  C   UNL     1       4.745   4.693  19.021  0.00  0.00    +0.000 A 
ATOM     25  C   UNL     1       4.573   3.327  19.230  0.00  0.00    +0.000 A 
ATOM     26  C   UNL     1       3.432   2.874  19.887  0.00  0.00    +0.000 A 
ATOM     27  C   UNL     1       2.476   3.787  20.357  0.00  0.00    +0.000 A 
ATOM     28 CL   UNL     1       1.065   3.123  21.108  0.00  0.00    +0.000 Cl
ENDBRANCH  21  22
ENDBRANCH  19  21
ENDBRANCH  16  19
ENDBRANCH   6  16
TORSDOF 5
ENDMDL
MODEL 4
REMARK VINA RESULT:      -7.1      2.129      4.230
REMARK  Name = 
REMARK  7 active torsions:
REMARK  status: ('A' for Active; 'I' for Inactive)
REMARK    1  A    between atoms: C_1  and  C_2
REMARK    2  A    between atoms: C_4  and  C_5
REMARK    3  A    between atoms: C_6  and  S_7
REMARK    4  A    between atoms: S_7  and  N_10
REMARK    5  A    between atoms: N_10  and  C_11
REMARK    6  A    between atoms: C_11  and  C_12
REMARK    7  A    between atoms: C_19  and  C_20
REMARK                            x       y       z     vdW  Elec       q    Type
REMARK                         _______ _______ _______ _____ _____    ______ ____
ROOT
ATOM      1  C   UNL     1       4.003   1.469  18.022  0.00  0.00    +0.000 C 
ATOM      2  C   UNL     1       4.344   2.809  17.453  0.00  0.00    +0.000 A 
ATOM      3  N   UNL     1       4.826   2.886  16.174  0.00  0.00    +0.000 N 
ATOM      4  C   UNL     1       5.185   4.170  15.859  0.00  0.00    +0.000 A 
ATOM      5  C   UNL     1       5.733   4.484  14.515  0.00  0.00    +0.000 C 
ATOM      6  C   UNL     1       4.909   4.960  16.968  0.00  0.00    +0.000 A 
ATOM      7  C   UNL     1       4.336   4.106  17.981  0.00  0.00    +0.000 A 
ATOM      8  H   UNL     1       4.927   2.094  15.552  0.00  0.00    +0.000 HD
ENDROOT
BRANCH   7   9
ATOM      9  C   UNL     1       3.968   4.469  19.355  0.00  0.00    +0.000 C 
ATOM     10  O   UNL     1       4.778   5.057  20.069  0.00  0.00    +0.000 OA
ATOM     11  N   UNL     1       2.742   4.029  19.835  0.00  0.00    +0.000 N 
ATOM     12  C   UNL     1       2.373   4.184  21.226  0.00  0.00    +0.000 C 
ATOM     13  C   UNL     1       1.331   3.095  21.416  0.00  0.00    +0.000 C 
ATOM     14  C   UNL     1       0.616   3.021  20.063  0.00  0.00    +0.000 C 
ATOM     15  C   UNL     1       1.540   3.733  19.073  0.00  0.00    +0.000 C 
ENDBRANCH   7   9
BRANCH   6  16
ATOM     16  S   UNL     1       5.159   6.690  17.075  0.00  0.00    +0.000 S 
ATOM     17  O   UNL     1       6.508   6.829  17.578  0.00  0.00    +0.000 OA
ATOM     18  O   UNL     1       4.793   7.194  15.772  0.00  0.00    +0.000 OA
BRANCH  16  19
ATOM     19  N   UNL     1       4.103   7.357  18.221  0.00  0.00    +0.000 NA
ATOM     20  H   UNL     1       4.537   8.158  18.689  0.00  0.00    +0.000 HD
BRANCH  19  21
ATOM     21  C   UNL     1       2.703   7.569  17.787  0.00  0.00    +0.000 C 
BRANCH  21  22
ATOM     22  C   UNL     1       2.002   8.737  18.461  0.00  0.00    +0.000 A 
ATOM     23  C   UNL     1       1.959  10.000  17.841  0.00  0.00    +0.000 A 
ATOM     24  C   UNL     1       1.332  11.090  18.455  0.00  0.00    +0.000 A 
ATOM     25  C   UNL     1       0.750  10.951  19.711  0.00  0.00    +0.000 A 
ATOM     26  C   UNL     1       0.821   9.724  20.366  0.00  0.00    +0.000 A 
ATOM     27  C   UNL     1       1.451   8.630  19.754  0.00  0.00    +0.000 A 
ATOM     28 CL   UNL     1       1.539   7.166  20.672  0.00  0.00    +0.000 Cl
ENDBRANCH  21  22
ENDBRANCH  19  21
ENDBRANCH  16  19
ENDBRANCH   6  16
TORSDOF 5
ENDMDL
MODEL 5
REMARK VINA RESULT:      -7.1      1.112      1.561
REMARK  Name = 
REMARK  7 active torsions:
REMARK  status: ('A' for Active; 'I' for Inactive)
REMARK    1  A    between atoms: C_1  and  C_2
REMARK    2  A    between atoms: C_4  and  C_5
REMARK    3  A    between atoms: C_6  and  S_7
REMARK    4  A    between atoms: S_7  and  N_10
REMARK    5  A    between atoms: N_10  and  C_11
REMARK    6  A    between atoms: C_11  and  C_12
REMARK    7  A    between atoms: C_19  and  C_20
REMARK                            x       y       z     vdW  Elec       q    Type
REMARK                         _______ _______ _______ _____ _____    ______ ____
ROOT
ATOM      1  C   UNL     1       4.949   1.610  20.252  0.00  0.00    +0.000 C 
ATOM      2  C   UNL     1       4.114   2.833  20.046  0.00  0.00    +0.000 A 
ATOM      3  N   UNL     1       2.785   2.793  20.371  0.00  0.00    +0.000 N 
ATOM      4  C   UNL     1       2.156   3.957  20.017  0.00  0.00    +0.000 A 
ATOM      5  C   UNL     1       0.705   4.133  20.280  0.00  0.00    +0.000 C 
ATOM      6  C   UNL     1       3.116   4.792  19.457  0.00  0.00    +0.000 A 
ATOM      7  C   UNL     1       4.379   4.096  19.504  0.00  0.00    +0.000 A 
ATOM      8  H   UNL     1       2.322   1.998  20.795  0.00  0.00    +0.000 HD
ENDROOT
BRANCH   7   9
ATOM      9  C   UNL     1       5.664   4.537  18.949  0.00  0.00    +0.000 C 
ATOM     10  O   UNL     1       6.523   5.005  19.694  0.00  0.00    +0.000 OA
ATOM     11  N   UNL     1       5.817   4.512  17.570  0.00  0.00    +0.000 N 
ATOM     12  C   UNL     1       6.975   5.093  16.924  0.00  0.00    +0.000 C 
ATOM     13  C   UNL     1       6.465   5.381  15.522  0.00  0.00    +0.000 C 
ATOM     14  C   UNL     1       5.472   4.248  15.246  0.00  0.00    +0.000 C 
ATOM     15  C   UNL     1       5.148   3.644  16.614  0.00  0.00    +0.000 C 
ENDBRANCH   7   9
BRANCH   6  16
ATOM     16  S   UNL     1       2.834   6.416  18.865  0.00  0.00    +0.000 S 
ATOM     17  O   UNL     1       4.050   6.758  18.159  0.00  0.00    +0.000 OA
ATOM     18  O   UNL     1       1.567   6.339  18.174  0.00  0.00    +0.000 OA
BRANCH  16  19
ATOM     19  N   UNL     1       2.668   7.486  20.168  0.00  0.00    +0.000 NA
ATOM     20  H   UNL     1       3.229   8.329  20.017  0.00  0.00    +0.000 HD
BRANCH  19  21
ATOM     21  C   UNL     1       1.290   7.729  20.653  0.00  0.00    +0.000 C 
BRANCH  21  22
ATOM     22  C   UNL     1       0.774   9.138  20.412  0.00  0.00    +0.000 A 
ATOM     23  C   UNL     1       0.931   9.753  19.156  0.00  0.00    +0.000 A 
ATOM     24  C   UNL     1       0.477  11.055  18.922  0.00  0.00    +0.000 A 
ATOM     25  C   UNL     1      -0.128  11.783  19.942  0.00  0.00    +0.000 A 
ATOM     26  C   UNL     1      -0.252  11.215  21.208  0.00  0.00    +0.000 A 
ATOM     27  C   UNL     1       0.205   9.911  21.446  0.00  0.00    +0.000 A 
ATOM     28 CL   UNL     1       0.061   9.315  23.064  0.00  0.00    +0.000 Cl
ENDBRANCH  21  22
ENDBRANCH  19  21
ENDBRANCH  16  19
ENDBRANCH   6  16
TORSDOF 5
ENDMDL
MODEL 6
REMARK VINA RESULT:      -7.1      2.080      3.112
REMARK  Name = 
REMARK  7 active torsions:
REMARK  status: ('A' for Active; 'I' for Inactive)
REMARK    1  A    between atoms: C_1  and  C_2
REMARK    2  A    between atoms: C_4  and  C_5
REMARK    3  A    between atoms: C_6  and  S_7
REMARK    4  A    between atoms: S_7  and  N_10
REMARK    5  A    between atoms: N_10  and  C_11
REMARK    6  A    between atoms: C_11  and  C_12
REMARK    7  A    between atoms: C_19  and  C_20
REMARK                            x       y       z     vdW  Elec       q    Type
REMARK                         _______ _______ _______ _____ _____    ______ ____
ROOT
ATOM      1  C   UNL     1       5.971   3.917  15.187  0.00  0.00    +0.000 C 
ATOM      2  C   UNL     1       5.029   3.820  16.343  0.00  0.00    +0.000 A 
ATOM      3  N   UNL     1       4.477   2.606  16.651  0.00  0.00    +0.000 N 
ATOM      4  C   UNL     1       3.561   2.724  17.663  0.00  0.00    +0.000 A 
ATOM      5  C   UNL     1       2.839   1.525  18.160  0.00  0.00    +0.000 C 
ATOM      6  C   UNL     1       3.532   4.061  18.040  0.00  0.00    +0.000 A 
ATOM      7  C   UNL     1       4.494   4.765  17.227  0.00  0.00    +0.000 A 
ATOM      8  H   UNL     1       4.697   1.739  16.176  0.00  0.00    +0.000 HD
ENDROOT
BRANCH   7   9
ATOM      9  C   UNL     1       4.755   6.209  17.198  0.00  0.00    +0.000 C 
ATOM     10  O   UNL     1       3.932   6.969  16.692  0.00  0.00    +0.000 OA
ATOM     11  N   UNL     1       5.990   6.653  17.651  0.00  0.00    +0.000 N 
ATOM     12  C   UNL     1       6.404   8.031  17.495  0.00  0.00    +0.000 C 
ATOM     13  C   UNL     1       7.919   7.931  17.543  0.00  0.00    +0.000 C 
ATOM     14  C   UNL     1       8.187   6.778  18.515  0.00  0.00    +0.000 C 
ATOM     15  C   UNL     1       6.862   6.021  18.629  0.00  0.00    +0.000 C 
ENDBRANCH   7   9
BRANCH   6  16
ATOM     16  S   UNL     1       2.543   4.738  19.317  0.00  0.00    +0.000 S 
ATOM     17  O   UNL     1       1.342   3.933  19.310  0.00  0.00    +0.000 OA
ATOM     18  O   UNL     1       3.411   4.774  20.472  0.00  0.00    +0.000 OA
BRANCH  16  19
ATOM     19  N   UNL     1       2.107   6.330  18.929  0.00  0.00    +0.000 NA
ATOM     20  H   UNL     1       1.128   6.374  18.636  0.00  0.00    +0.000 HD
BRANCH  19  21
ATOM     21  C   UNL     1       2.524   7.382  19.883  0.00  0.00    +0.000 C 
BRANCH  21  22
ATOM     22  C   UNL     1       1.438   8.386  20.232  0.00  0.00    +0.000 A 
ATOM     23  C   UNL     1       0.725   8.279  21.440  0.00  0.00    +0.000 A 
ATOM     24  C   UNL     1      -0.289   9.185  21.770  0.00  0.00    +0.000 A 
ATOM     25  C   UNL     1      -0.630  10.209  20.890  0.00  0.00    +0.000 A 
ATOM     26  C   UNL     1       0.028  10.307  19.667  0.00  0.00    +0.000 A 
ATOM     27  C   UNL     1       1.042   9.399  19.333  0.00  0.00    +0.000 A 
ATOM     28 CL   UNL     1       1.759   9.567  17.767  0.00  0.00    +0.000 Cl
ENDBRANCH  21  22
ENDBRANCH  19  21
ENDBRANCH  16  19
ENDBRANCH   6  16
TORSDOF 5
ENDMDL
MODEL 7
REMARK VINA RESULT:      -7.0      1.912      3.979
REMARK  Name = 
REMARK  7 active torsions:
REMARK  status: ('A' for Active; 'I' for Inactive)
REMARK    1  A    between atoms: C_1  and  C_2
REMARK    2  A    between atoms: C_4  and  C_5
REMARK    3  A    between atoms: C_6  and  S_7
REMARK    4  A    between atoms: S_7  and  N_10
REMARK    5  A    between atoms: N_10  and  C_11
REMARK    6  A    between atoms: C_11  and  C_12
REMARK    7  A    between atoms: C_19  and  C_20
REMARK                            x       y       z     vdW  Elec       q    Type
REMARK                         _______ _______ _______ _____ _____    ______ ____
ROOT
ATOM      1  C   UNL     1       4.062   1.453  17.990  0.00  0.00    +0.000 C 
ATOM      2  C   UNL     1       4.434   2.777  17.404  0.00  0.00    +0.000 A 
ATOM      3  N   UNL     1       4.937   2.824  16.132  0.00  0.00    +0.000 N 
ATOM      4  C   UNL     1       5.323   4.096  15.801  0.00  0.00    +0.000 A 
ATOM      5  C   UNL     1       5.898   4.378  14.461  0.00  0.00    +0.000 C 
ATOM      6  C   UNL     1       5.042   4.910  16.892  0.00  0.00    +0.000 A 
ATOM      7  C   UNL     1       4.439   4.083  17.909  0.00  0.00    +0.000 A 
ATOM      8  H   UNL     1       5.035   2.020  15.525  0.00  0.00    +0.000 HD
ENDROOT
BRANCH   7   9
ATOM      9  C   UNL     1       4.055   4.476  19.270  0.00  0.00    +0.000 C 
ATOM     10  O   UNL     1       4.866   5.054  19.991  0.00  0.00    +0.000 OA
ATOM     11  N   UNL     1       2.810   4.074  19.734  0.00  0.00    +0.000 N 
ATOM     12  C   UNL     1       2.420   4.259  21.115  0.00  0.00    +0.000 C 
ATOM     13  C   UNL     1       1.347   3.199  21.302  0.00  0.00    +0.000 C 
ATOM     14  C   UNL     1       0.656   3.122  19.937  0.00  0.00    +0.000 C 
ATOM     15  C   UNL     1       1.615   3.796  18.954  0.00  0.00    +0.000 C 
ENDBRANCH   7   9
BRANCH   6  16
ATOM     16  S   UNL     1       5.319   6.637  16.973  0.00  0.00    +0.000 S 
ATOM     17  O   UNL     1       6.708   6.762  17.359  0.00  0.00    +0.000 OA
ATOM     18  O   UNL     1       4.850   7.144  15.704  0.00  0.00    +0.000 OA
BRANCH  16  19
ATOM     19  N   UNL     1       4.372   7.318  18.203  0.00  0.00    +0.000 NA
ATOM     20  H   UNL     1       4.847   8.122  18.622  0.00  0.00    +0.000 HD
BRANCH  19  21
ATOM     21  C   UNL     1       2.939   7.527  17.895  0.00  0.00    +0.000 C 
BRANCH  21  22
ATOM     22  C   UNL     1       2.130   8.134  19.030  0.00  0.00    +0.000 A 
ATOM     23  C   UNL     1       1.804   7.369  20.165  0.00  0.00    +0.000 A 
ATOM     24  C   UNL     1       1.046   7.906  21.211  0.00  0.00    +0.000 A 
ATOM     25  C   UNL     1       0.578   9.215  21.140  0.00  0.00    +0.000 A 
ATOM     26  C   UNL     1       0.847   9.977  20.006  0.00  0.00    +0.000 A 
ATOM     27  C   UNL     1       1.604   9.440  18.955  0.00  0.00    +0.000 A 
ATOM     28 CL   UNL     1       1.834  10.444  17.564  0.00  0.00    +0.000 Cl
ENDBRANCH  21  22
ENDBRANCH  19  21
ENDBRANCH  16  19
ENDBRANCH   6  16
TORSDOF 5
ENDMDL
MODEL 8
REMARK VINA RESULT:      -7.0      2.360      3.509
REMARK  Name = 
REMARK  7 active torsions:
REMARK  status: ('A' for Active; 'I' for Inactive)
REMARK    1  A    between atoms: C_1  and  C_2
REMARK    2  A    between atoms: C_4  and  C_5
REMARK    3  A    between atoms: C_6  and  S_7
REMARK    4  A    between atoms: S_7  and  N_10
REMARK    5  A    between atoms: N_10  and  C_11
REMARK    6  A    between atoms: C_11  and  C_12
REMARK    7  A    between atoms: C_19  and  C_20
REMARK                            x       y       z     vdW  Elec       q    Type
REMARK                         _______ _______ _______ _____ _____    ______ ____
ROOT
ATOM      1  C   UNL     1       6.697   3.965  15.385  0.00  0.00    +0.000 C 
ATOM      2  C   UNL     1       5.541   3.933  16.332  0.00  0.00    +0.000 A 
ATOM      3  N   UNL     1       4.936   2.736  16.604  0.00  0.00    +0.000 N 
ATOM      4  C   UNL     1       3.835   2.909  17.401  0.00  0.00    +0.000 A 
ATOM      5  C   UNL     1       3.025   1.738  17.823  0.00  0.00    +0.000 C 
ATOM      6  C   UNL     1       3.732   4.268  17.672  0.00  0.00    +0.000 A 
ATOM      7  C   UNL     1       4.839   4.928  17.024  0.00  0.00    +0.000 A 
ATOM      8  H   UNL     1       5.247   1.842  16.243  0.00  0.00    +0.000 HD
ENDROOT
BRANCH   7   9
ATOM      9  C   UNL     1       5.102   6.370  16.950  0.00  0.00    +0.000 C 
ATOM     10  O   UNL     1       4.359   7.094  16.291  0.00  0.00    +0.000 OA
ATOM     11  N   UNL     1       6.262   6.848  17.545  0.00  0.00    +0.000 N 
ATOM     12  C   UNL     1       6.694   8.219  17.370  0.00  0.00    +0.000 C 
ATOM     13  C   UNL     1       8.188   8.133  17.635  0.00  0.00    +0.000 C 
ATOM     14  C   UNL     1       8.316   7.038  18.700  0.00  0.00    +0.000 C 
ATOM     15  C   UNL     1       6.987   6.280  18.669  0.00  0.00    +0.000 C 
ENDBRANCH   7   9
BRANCH   6  16
ATOM     16  S   UNL     1       2.506   5.018  18.675  0.00  0.00    +0.000 S 
ATOM     17  O   UNL     1       1.260   4.453  18.205  0.00  0.00    +0.000 OA
ATOM     18  O   UNL     1       2.959   4.801  20.030  0.00  0.00    +0.000 OA
BRANCH  16  19
ATOM     19  N   UNL     1       2.465   6.687  18.387  0.00  0.00    +0.000 NA
ATOM     20  H   UNL     1       1.816   6.907  17.627  0.00  0.00    +0.000 HD
BRANCH  19  21
ATOM     21  C   UNL     1       2.355   7.562  19.576  0.00  0.00    +0.000 C 
BRANCH  21  22
ATOM     22  C   UNL     1       1.333   8.680  19.447  0.00  0.00    +0.000 A 
ATOM     23  C   UNL     1       1.037   9.236  18.189  0.00  0.00    +0.000 A 
ATOM     24  C   UNL     1       0.112  10.278  18.054  0.00  0.00    +0.000 A 
ATOM     25  C   UNL     1      -0.526  10.802  19.175  0.00  0.00    +0.000 A 
ATOM     26  C   UNL     1      -0.214  10.300  20.436  0.00  0.00    +0.000 A 
ATOM     27  C   UNL     1       0.715   9.259  20.574  0.00  0.00    +0.000 A 
ATOM     28 CL   UNL     1       1.079   8.745  22.187  0.00  0.00    +0.000 Cl
ENDBRANCH  21  22
ENDBRANCH  19  21
ENDBRANCH  16  19
ENDBRANCH   6  16
TORSDOF 5
ENDMDL
MODEL 9
REMARK VINA RESULT:      -7.0      3.623      8.267
REMARK  Name = 
REMARK  7 active torsions:
REMARK  status: ('A' for Active; 'I' for Inactive)
REMARK    1  A    between atoms: C_1  and  C_2
REMARK    2  A    between atoms: C_4  and  C_5
REMARK    3  A    between atoms: C_6  and  S_7
REMARK    4  A    between atoms: S_7  and  N_10
REMARK    5  A    between atoms: N_10  and  C_11
REMARK    6  A    between atoms: C_11  and  C_12
REMARK    7  A    between atoms: C_19  and  C_20
REMARK                            x       y       z     vdW  Elec       q    Type
REMARK                         _______ _______ _______ _____ _____    ______ ____
ROOT
ATOM      1  C   UNL     1       1.583   7.841  18.177  0.00  0.00    +0.000 C 
ATOM      2  C   UNL     1       2.825   7.030  17.992  0.00  0.00    +0.000 A 
ATOM      3  N   UNL     1       4.006   7.673  17.734  0.00  0.00    +0.000 N 
ATOM      4  C   UNL     1       5.011   6.776  17.486  0.00  0.00    +0.000 A 
ATOM      5  C   UNL     1       6.384   7.256  17.183  0.00  0.00    +0.000 C 
ATOM      6  C   UNL     1       4.468   5.503  17.607  0.00  0.00    +0.000 A 
ATOM      7  C   UNL     1       3.079   5.653  17.966  0.00  0.00    +0.000 A 
ATOM      8  H   UNL     1       4.116   8.679  17.704  0.00  0.00    +0.000 HD
ENDROOT
BRANCH   7   9
ATOM      9  C   UNL     1       2.073   4.595  18.115  0.00  0.00    +0.000 C 
ATOM     10  O   UNL     1       1.246   4.408  17.225  0.00  0.00    +0.000 OA
ATOM     11  N   UNL     1       2.026   3.911  19.323  0.00  0.00    +0.000 N 
ATOM     12  C   UNL     1       0.960   2.981  19.626  0.00  0.00    +0.000 C 
ATOM     13  C   UNL     1       0.959   2.959  21.145  0.00  0.00    +0.000 C 
ATOM     14  C   UNL     1       2.432   3.146  21.522  0.00  0.00    +0.000 C 
ATOM     15  C   UNL     1       3.113   3.684  20.262  0.00  0.00    +0.000 C 
ENDBRANCH   7   9
BRANCH   6  16
ATOM     16  S   UNL     1       5.343   3.998  17.415  0.00  0.00    +0.000 S 
ATOM     17  O   UNL     1       6.241   3.955  18.548  0.00  0.00    +0.000 OA
ATOM     18  O   UNL     1       4.316   2.997  17.239  0.00  0.00    +0.000 OA
BRANCH  16  19
ATOM     19  N   UNL     1       6.283   4.051  16.005  0.00  0.00    +0.000 NA
ATOM     20  H   UNL     1       6.702   3.137  15.815  0.00  0.00    +0.000 HD
BRANCH  19  21
ATOM     21  C   UNL     1       5.677   4.719  14.831  0.00  0.00    +0.000 C 
BRANCH  21  22
ATOM     22  C   UNL     1       5.985   4.057  13.498  0.00  0.00    +0.000 A 
ATOM     23  C   UNL     1       5.166   3.023  13.007  0.00  0.00    +0.000 A 
ATOM     24  C   UNL     1       5.444   2.390  11.790  0.00  0.00    +0.000 A 
ATOM     25  C   UNL     1       6.559   2.762  11.043  0.00  0.00    +0.000 A 
ATOM     26  C   UNL     1       7.411   3.750  11.531  0.00  0.00    +0.000 A 
ATOM     27  C   UNL     1       7.136   4.382  12.751  0.00  0.00    +0.000 A 
ATOM     28 CL   UNL     1       8.285   5.554  13.301  0.00  0.00    +0.000 Cl
ENDBRANCH  21  22
ENDBRANCH  19  21
ENDBRANCH  16  19
ENDBRANCH   6  16
TORSDOF 5
ENDMDL
