MODEL 1
REMARK VINA RESULT:      -5.1      0.000      0.000
REMARK  Name = 
REMARK  7 active torsions:
REMARK  status: ('A' for Active; 'I' for Inactive)
REMARK    1  A    between atoms: C_1  and  C_2
REMARK    2  A    between atoms: C_2  and  C_3
REMARK    3  A    between atoms: C_3  and  N_4
REMARK    4  A    between atoms: N_4  and  C_5
REMARK    5  A    between atoms: C_5  and  C_6
REMARK    6  A    between atoms: C_6  and  C_7
REMARK    7  A    between atoms: C_8  and  C_10
REMARK                            x       y       z     vdW  Elec       q    Type
REMARK                         _______ _______ _______ _____ _____    ______ ____
ROOT
ATOM      1  N   UNL     1       5.881   4.881  16.528  0.00  0.00    +0.000 N 
ATOM      2  C   UNL     1       7.098   5.081  17.226  0.00  0.00    +0.000 C 
ATOM      3  O   UNL     1       8.083   4.378  16.978  0.00  0.00    +0.000 OA
ENDROOT
BRANCH   2   4
ATOM      4  C   UNL     1       7.148   6.181  18.300  0.00  0.00    +0.000 C 
ATOM      5 CL   UNL     1       8.168   5.630  19.647  0.00  0.00    +0.000 Cl
ATOM      6 CL   UNL     1       7.792   7.697  17.621  0.00  0.00    +0.000 Cl
ENDBRANCH   2   4
BRANCH   1   7
ATOM      7  C   UNL     1       5.880   3.843  15.484  0.00  0.00    +0.000 C 
BRANCH   7   9
ATOM      8  C   UNL     1       6.194   3.542  12.964  0.00  0.00    +0.000 C 
ATOM      9  C   UNL     1       5.533   4.343  14.074  0.00  0.00    +0.000 C 
ENDBRANCH   7   9
ENDBRANCH   1   7
BRANCH   1  10
ATOM     10  C   UNL     1       4.772   5.845  16.638  0.00  0.00    +0.000 C 
BRANCH  10  11
ATOM     11  C   UNL     1       3.622   5.536  17.595  0.00  0.00    +0.000 C 
ATOM     12  C   UNL     1       2.965   6.818  18.092  0.00  0.00    +0.000 C 
ENDBRANCH  10  11
ENDBRANCH   1  10
TORSDOF 5
ENDMDL
MODEL 2
REMARK VINA RESULT:      -5.0      2.776      3.602
REMARK  Name = 
REMARK  7 active torsions:
REMARK  status: ('A' for Active; 'I' for Inactive)
REMARK    1  A    between atoms: C_1  and  C_2
REMARK    2  A    between atoms: C_2  and  C_3
REMARK    3  A    between atoms: C_3  and  N_4
REMARK    4  A    between atoms: N_4  and  C_5
REMARK    5  A    between atoms: C_5  and  C_6
REMARK    6  A    between atoms: C_6  and  C_7
REMARK    7  A    between atoms: C_8  and  C_10
REMARK                            x       y       z     vdW  Elec       q    Type
REMARK                         _______ _______ _______ _____ _____    ______ ____
ROOT
ATOM      1  N   UNL     1       5.697   5.268  16.784  0.00  0.00    +0.000 N 
ATOM      2  C   UNL     1       4.510   4.621  17.207  0.00  0.00    +0.000 C 
ATOM      3  O   UNL     1       4.319   3.430  16.940  0.00  0.00    +0.000 OA
ENDROOT
BRANCH   2   4
ATOM      4  C   UNL     1       3.471   5.445  17.989  0.00  0.00    +0.000 C 
ATOM      5 CL   UNL     1       1.857   4.756  17.710  0.00  0.00    +0.000 Cl
ATOM      6 CL   UNL     1       3.847   5.444  19.730  0.00  0.00    +0.000 Cl
ENDBRANCH   2   4
BRANCH   1   7
ATOM      7  C   UNL     1       6.683   4.441  16.068  0.00  0.00    +0.000 C 
BRANCH   7   9
ATOM      8  C   UNL     1       6.067   3.878  13.652  0.00  0.00    +0.000 C 
ATOM      9  C   UNL     1       6.858   4.783  14.582  0.00  0.00    +0.000 C 
ENDBRANCH   7   9
ENDBRANCH   1   7
BRANCH   1  10
ATOM     10  C   UNL     1       6.053   6.609  17.281  0.00  0.00    +0.000 C 
BRANCH  10  11
ATOM     11  C   UNL     1       7.443   6.827  17.878  0.00  0.00    +0.000 C 
ATOM     12  C   UNL     1       7.908   8.263  17.669  0.00  0.00    +0.000 C 
ENDBRANCH  10  11
ENDBRANCH   1  10
TORSDOF 5
ENDMDL
MODEL 3
REMARK VINA RESULT:      -4.9      3.340      4.809
REMARK  Name = 
REMARK  7 active torsions:
REMARK  status: ('A' for Active; 'I' for Inactive)
REMARK    1  A    between atoms: C_1  and  C_2
REMARK    2  A    between atoms: C_2  and  C_3
REMARK    3  A    between atoms: C_3  and  N_4
REMARK    4  A    between atoms: N_4  and  C_5
REMARK    5  A    between atoms: C_5  and  C_6
REMARK    6  A    between atoms: C_6  and  C_7
REMARK    7  A    between atoms: C_8  and  C_10
REMARK                            x       y       z     vdW  Elec       q    Type
REMARK                         _______ _______ _______ _____ _____    ______ ____
ROOT
ATOM      1  N   UNL     1       4.128   3.280  19.014  0.00  0.00    +0.000 N 
ATOM      2  C   UNL     1       5.225   4.161  18.847  0.00  0.00    +0.000 C 
ATOM      3  O   UNL     1       5.847   4.578  19.830  0.00  0.00    +0.000 OA
ENDROOT
BRANCH   2   4
ATOM      4  C   UNL     1       5.606   4.587  17.418  0.00  0.00    +0.000 C 
ATOM      5 CL   UNL     1       4.948   6.208  17.103  0.00  0.00    +0.000 Cl
ATOM      6 CL   UNL     1       7.375   4.591  17.211  0.00  0.00    +0.000 Cl
ENDBRANCH   2   4
BRANCH   1   7
ATOM      7  C   UNL     1       3.815   2.867  20.392  0.00  0.00    +0.000 C 
BRANCH   7   9
ATOM      8  C   UNL     1       1.490   2.732  21.447  0.00  0.00    +0.000 C 
ATOM      9  C   UNL     1       2.651   3.626  21.047  0.00  0.00    +0.000 C 
ENDBRANCH   7   9
ENDBRANCH   1   7
BRANCH   1  10
ATOM     10  C   UNL     1       3.521   2.592  17.861  0.00  0.00    +0.000 C 
BRANCH  10  11
ATOM     11  C   UNL     1       2.051   2.856  17.539  0.00  0.00    +0.000 C 
ATOM     12  C   UNL     1       1.728   4.342  17.639  0.00  0.00    +0.000 C 
ENDBRANCH  10  11
ENDBRANCH   1  10
TORSDOF 5
ENDMDL
MODEL 4
REMARK VINA RESULT:      -4.9      4.244      4.978
REMARK  Name = 
REMARK  7 active torsions:
REMARK  status: ('A' for Active; 'I' for Inactive)
REMARK    1  A    between atoms: C_1  and  C_2
REMARK    2  A    between atoms: C_2  and  C_3
REMARK    3  A    between atoms: C_3  and  N_4
REMARK    4  A    between atoms: N_4  and  C_5
REMARK    5  A    between atoms: C_5  and  C_6
REMARK    6  A    between atoms: C_6  and  C_7
REMARK    7  A    between atoms: C_8  and  C_10
REMARK                            x       y       z     vdW  Elec       q    Type
REMARK                         _______ _______ _______ _____ _____    ______ ____
ROOT
ATOM      1  N   UNL     1       3.299   4.557  18.480  0.00  0.00    +0.000 N 
ATOM      2  C   UNL     1       3.005   3.533  19.414  0.00  0.00    +0.000 C 
ATOM      3  O   UNL     1       3.888   2.750  19.780  0.00  0.00    +0.000 OA
ENDROOT
BRANCH   2   4
ATOM      4  C   UNL     1       1.564   3.420  19.940  0.00  0.00    +0.000 C 
ATOM      5 CL   UNL     1       0.623   2.393  18.835  0.00  0.00    +0.000 Cl
ATOM      6 CL   UNL     1       1.545   2.733  21.583  0.00  0.00    +0.000 Cl
ENDBRANCH   2   4
BRANCH   1   7
ATOM      7  C   UNL     1       4.696   4.657  18.024  0.00  0.00    +0.000 C 
BRANCH   7   9
ATOM      8  C   UNL     1       5.270   6.012  15.934  0.00  0.00    +0.000 C 
ATOM      9  C   UNL     1       4.881   4.657  16.500  0.00  0.00    +0.000 C 
ENDBRANCH   7   9
ENDBRANCH   1   7
BRANCH   1  10
ATOM     10  C   UNL     1       2.334   5.636  18.204  0.00  0.00    +0.000 C 
BRANCH  10  11
ATOM     11  C   UNL     1       2.557   7.003  18.850  0.00  0.00    +0.000 C 
ATOM     12  C   UNL     1       2.687   8.093  17.793  0.00  0.00    +0.000 C 
ENDBRANCH  10  11
ENDBRANCH   1  10
TORSDOF 5
ENDMDL
MODEL 5
REMARK VINA RESULT:      -4.8      2.600      3.476
REMARK  Name = 
REMARK  7 active torsions:
REMARK  status: ('A' for Active; 'I' for Inactive)
REMARK    1  A    between atoms: C_1  and  C_2
REMARK    2  A    between atoms: C_2  and  C_3
REMARK    3  A    between atoms: C_3  and  N_4
REMARK    4  A    between atoms: N_4  and  C_5
REMARK    5  A    between atoms: C_5  and  C_6
REMARK    6  A    between atoms: C_6  and  C_7
REMARK    7  A    between atoms: C_8  and  C_10
REMARK                            x       y       z     vdW  Elec       q    Type
REMARK                         _______ _______ _______ _____ _____    ______ ____
ROOT
ATOM      1  N   UNL     1       5.578   4.465  16.469  0.00  0.00    +0.000 N 
ATOM      2  C   UNL     1       4.600   3.957  17.359  0.00  0.00    +0.000 C 
ATOM      3  O   UNL     1       3.524   3.530  16.926  0.00  0.00    +0.000 OA
ENDROOT
BRANCH   2   4
ATOM      4  C   UNL     1       4.911   3.968  18.866  0.00  0.00    +0.000 C 
ATOM      5 CL   UNL     1       4.209   5.431  19.592  0.00  0.00    +0.000 Cl
ATOM      6 CL   UNL     1       4.251   2.514  19.656  0.00  0.00    +0.000 Cl
ENDBRANCH   2   4
BRANCH   1   7
ATOM      7  C   UNL     1       5.261   4.407  15.033  0.00  0.00    +0.000 C 
BRANCH   7   9
ATOM      8  C   UNL     1       6.024   3.546  12.750  0.00  0.00    +0.000 C 
ATOM      9  C   UNL     1       6.443   4.047  14.122  0.00  0.00    +0.000 C 
ENDBRANCH   7   9
ENDBRANCH   1   7
BRANCH   1  10
ATOM     10  C   UNL     1       6.946   4.763  16.931  0.00  0.00    +0.000 C 
BRANCH  10  11
ATOM     11  C   UNL     1       7.308   6.209  17.268  0.00  0.00    +0.000 C 
ATOM     12  C   UNL     1       7.818   6.325  18.699  0.00  0.00    +0.000 C 
ENDBRANCH  10  11
ENDBRANCH   1  10
TORSDOF 5
ENDMDL
MODEL 6
REMARK VINA RESULT:      -4.8      2.966      4.758
REMARK  Name = 
REMARK  7 active torsions:
REMARK  status: ('A' for Active; 'I' for Inactive)
REMARK    1  A    between atoms: C_1  and  C_2
REMARK    2  A    between atoms: C_2  and  C_3
REMARK    3  A    between atoms: C_3  and  N_4
REMARK    4  A    between atoms: N_4  and  C_5
REMARK    5  A    between atoms: C_5  and  C_6
REMARK    6  A    between atoms: C_6  and  C_7
REMARK    7  A    between atoms: C_8  and  C_10
REMARK                            x       y       z     vdW  Elec       q    Type
REMARK                         _______ _______ _______ _____ _____    ______ ____
ROOT
ATOM      1  N   UNL     1       3.618   4.682  17.612  0.00  0.00    +0.000 N 
ATOM      2  C   UNL     1       4.653   5.168  16.774  0.00  0.00    +0.000 C 
ATOM      3  O   UNL     1       4.722   6.370  16.501  0.00  0.00    +0.000 OA
ENDROOT
BRANCH   2   4
ATOM      4  C   UNL     1       5.669   4.157  16.212  0.00  0.00    +0.000 C 
ATOM      5 CL   UNL     1       5.697   4.291  14.439  0.00  0.00    +0.000 Cl
ATOM      6 CL   UNL     1       7.293   4.459  16.877  0.00  0.00    +0.000 Cl
ENDBRANCH   2   4
BRANCH   1   7
ATOM      7  C   UNL     1       2.686   5.681  18.159  0.00  0.00    +0.000 C 
BRANCH   7   9
ATOM      8  C   UNL     1       1.807   5.482  20.551  0.00  0.00    +0.000 C 
ATOM      9  C   UNL     1       2.898   6.021  19.641  0.00  0.00    +0.000 C 
ENDBRANCH   7   9
ENDBRANCH   1   7
BRANCH   1  10
ATOM     10  C   UNL     1       3.646   3.305  18.136  0.00  0.00    +0.000 C 
BRANCH  10  11
ATOM     11  C   UNL     1       2.569   2.323  17.678  0.00  0.00    +0.000 C 
ATOM     12  C   UNL     1       1.401   2.297  18.657  0.00  0.00    +0.000 C 
ENDBRANCH  10  11
ENDBRANCH   1  10
TORSDOF 5
ENDMDL
MODEL 7
REMARK VINA RESULT:      -4.8      3.563      4.912
REMARK  Name = 
REMARK  7 active torsions:
REMARK  status: ('A' for Active; 'I' for Inactive)
REMARK    1  A    between atoms: C_1  and  C_2
REMARK    2  A    between atoms: C_2  and  C_3
REMARK    3  A    between atoms: C_3  and  N_4
REMARK    4  A    between atoms: N_4  and  C_5
REMARK    5  A    between atoms: C_5  and  C_6
REMARK    6  A    between atoms: C_6  and  C_7
REMARK    7  A    between atoms: C_8  and  C_10
REMARK                            x       y       z     vdW  Elec       q    Type
REMARK                         _______ _______ _______ _____ _____    ______ ____
ROOT
ATOM      1  N   UNL     1       5.253   4.489  18.181  0.00  0.00    +0.000 N 
ATOM      2  C   UNL     1       3.967   4.177  18.688  0.00  0.00    +0.000 C 
ATOM      3  O   UNL     1       3.588   4.652  19.764  0.00  0.00    +0.000 OA
ENDROOT
BRANCH   2   4
ATOM      4  C   UNL     1       3.075   3.225  17.872  0.00  0.00    +0.000 C 
ATOM      5 CL   UNL     1       3.483   1.546  18.291  0.00  0.00    +0.000 Cl
ATOM      6 CL   UNL     1       1.353   3.539  18.201  0.00  0.00    +0.000 Cl
ENDBRANCH   2   4
BRANCH   1   7
ATOM      7  C   UNL     1       6.066   5.429  18.971  0.00  0.00    +0.000 C 
BRANCH   7   9
ATOM      8  C   UNL     1       7.893   7.028  18.173  0.00  0.00    +0.000 C 
ATOM      9  C   UNL     1       7.516   5.592  18.493  0.00  0.00    +0.000 C 
ENDBRANCH   7   9
ENDBRANCH   1   7
BRANCH   1  10
ATOM     10  C   UNL     1       5.638   4.126  16.806  0.00  0.00    +0.000 C 
BRANCH  10  11
ATOM     11  C   UNL     1       5.400   5.137  15.685  0.00  0.00    +0.000 C 
ATOM     12  C   UNL     1       6.407   4.950  14.557  0.00  0.00    +0.000 C 
ENDBRANCH  10  11
ENDBRANCH   1  10
TORSDOF 5
ENDMDL
MODEL 8
REMARK VINA RESULT:      -4.8      2.490      4.274
REMARK  Name = 
REMARK  7 active torsions:
REMARK  status: ('A' for Active; 'I' for Inactive)
REMARK    1  A    between atoms: C_1  and  C_2
REMARK    2  A    between atoms: C_2  and  C_3
REMARK    3  A    between atoms: C_3  and  N_4
REMARK    4  A    between atoms: N_4  and  C_5
REMARK    5  A    between atoms: C_5  and  C_6
REMARK    6  A    between atoms: C_6  and  C_7
REMARK    7  A    between atoms: C_8  and  C_10
REMARK                            x       y       z     vdW  Elec       q    Type
REMARK                         _______ _______ _______ _____ _____    ______ ____
ROOT
ATOM      1  N   UNL     1       4.467   5.164  18.773  0.00  0.00    +0.000 N 
ATOM      2  C   UNL     1       5.861   5.418  18.820  0.00  0.00    +0.000 C 
ATOM      3  O   UNL     1       6.477   5.327  19.887  0.00  0.00    +0.000 OA
ENDROOT
BRANCH   2   4
ATOM      4  C   UNL     1       6.571   5.822  17.516  0.00  0.00    +0.000 C 
ATOM      5 CL   UNL     1       7.714   7.139  17.862  0.00  0.00    +0.000 Cl
ATOM      6 CL   UNL     1       7.432   4.431  16.810  0.00  0.00    +0.000 Cl
ENDBRANCH   2   4
BRANCH   1   7
ATOM      7  C   UNL     1       3.828   4.748  20.032  0.00  0.00    +0.000 C 
BRANCH   7   9
ATOM      8  C   UNL     1       1.358   4.245  20.459  0.00  0.00    +0.000 C 
ATOM      9  C   UNL     1       2.419   5.314  20.261  0.00  0.00    +0.000 C 
ENDBRANCH   7   9
ENDBRANCH   1   7
BRANCH   1  10
ATOM     10  C   UNL     1       3.759   5.042  17.487  0.00  0.00    +0.000 C 
BRANCH  10  11
ATOM     11  C   UNL     1       3.712   3.677  16.801  0.00  0.00    +0.000 C 
ATOM     12  C   UNL     1       2.545   2.845  17.319  0.00  0.00    +0.000 C 
ENDBRANCH  10  11
ENDBRANCH   1  10
TORSDOF 5
ENDMDL
MODEL 9
REMARK VINA RESULT:      -4.8      1.757      3.757
REMARK  Name = 
REMARK  7 active torsions:
REMARK  status: ('A' for Active; 'I' for Inactive)
REMARK    1  A    between atoms: C_1  and  C_2
REMARK    2  A    between atoms: C_2  and  C_3
REMARK    3  A    between atoms: C_3  and  N_4
REMARK    4  A    between atoms: N_4  and  C_5
REMARK    5  A    between atoms: C_5  and  C_6
REMARK    6  A    between atoms: C_6  and  C_7
REMARK    7  A    between atoms: C_8  and  C_10
REMARK                            x       y       z     vdW  Elec       q    Type
REMARK                         _______ _______ _______ _____ _____    ______ ____
ROOT
ATOM      1  N   UNL     1       5.259   4.090  17.196  0.00  0.00    +0.000 N 
ATOM      2  C   UNL     1       5.832   4.835  18.256  0.00  0.00    +0.000 C 
ATOM      3  O   UNL     1       5.292   4.857  19.367  0.00  0.00    +0.000 OA
ENDROOT
BRANCH   2   4
ATOM      4  C   UNL     1       7.126   5.620  17.977  0.00  0.00    +0.000 C 
ATOM      5 CL   UNL     1       6.705   7.212  17.308  0.00  0.00    +0.000 Cl
ATOM      6 CL   UNL     1       8.079   5.813  19.470  0.00  0.00    +0.000 Cl
ENDBRANCH   2   4
BRANCH   1   7
ATOM      7  C   UNL     1       4.040   3.325  17.508  0.00  0.00    +0.000 C 
BRANCH   7   9
ATOM      8  C   UNL     1       1.588   3.619  18.167  0.00  0.00    +0.000 C 
ATOM      9  C   UNL     1       2.724   4.078  17.268  0.00  0.00    +0.000 C 
ENDBRANCH   7   9
ENDBRANCH   1   7
BRANCH   1  10
ATOM     10  C   UNL     1       5.996   3.862  15.940  0.00  0.00    +0.000 C 
BRANCH  10  11
ATOM     11  C   UNL     1       5.442   4.456  14.646  0.00  0.00    +0.000 C 
ATOM     12  C   UNL     1       6.090   3.809  13.427  0.00  0.00    +0.000 C 
ENDBRANCH  10  11
ENDBRANCH   1  10
TORSDOF 5
ENDMDL
