MODEL 1
REMARK VINA RESULT:      -6.6      0.000      0.000
REMARK  Name = 
REMARK  6 active torsions:
REMARK  status: ('A' for Active; 'I' for Inactive)
REMARK    1  A    between atoms: C_1  and  C_2
REMARK    2  A    between atoms: C_2  and  O_4
REMARK    3  A    between atoms: O_4  and  C_5
REMARK    4  A    between atoms: C_5  and  C_6
REMARK    5  A    between atoms: C_6  and  N_7
REMARK    6  A    between atoms: N_20  and  C_21
REMARK                            x       y       z     vdW  Elec       q    Type
REMARK                         _______ _______ _______ _____ _____    ______ ____
ROOT
ATOM      1  N   UNL     1      -3.716  10.022  16.172  0.00  0.00    +0.000 NA
ATOM      2  C   UNL     1      -2.708   9.665  17.197  0.00  0.00    +0.000 C 
ATOM      3  C   UNL     1      -2.051  10.855  17.927  0.00  0.00    +0.000 C 
ATOM      4  N   UNL     1      -3.043  11.813  18.435  0.00  0.00    +0.000 N 
ATOM      5  C   UNL     1      -3.010  12.253  19.750  0.00  0.00    +0.000 C 
ATOM      6  N   UNL     1      -4.058  12.188  20.510  0.00  0.00    +0.000 NA
ATOM      7  C   UNL     1      -4.132  12.610  21.848  0.00  0.00    +0.000 A 
ATOM      8  C   UNL     1      -5.386  13.109  22.231  0.00  0.00    +0.000 A 
ATOM      9  C   UNL     1      -5.636  13.502  23.542  0.00  0.00    +0.000 A 
ATOM     10 CL   UNL     1      -7.170  14.161  23.960  0.00  0.00    +0.000 Cl
ATOM     11  C   UNL     1      -4.649  13.376  24.510  0.00  0.00    +0.000 A 
ATOM     12  C   UNL     1      -3.405  12.852  24.156  0.00  0.00    +0.000 A 
ATOM     13  C   UNL     1      -3.118  12.469  22.829  0.00  0.00    +0.000 A 
ATOM     14  N   UNL     1      -1.794  12.104  22.506  0.00  0.00    +0.000 N 
ATOM     15  C   UNL     1      -1.215  10.981  23.237  0.00  0.00    +0.000 C 
ATOM     16  C   UNL     1      -1.132  12.640  21.448  0.00  0.00    +0.000 A 
ATOM     17  C   UNL     1       0.143  13.159  21.529  0.00  0.00    +0.000 A 
ATOM     18  S   UNL     1       0.614  13.915  20.071  0.00  0.00    +0.000 S 
ATOM     19  C   UNL     1      -0.869  13.507  19.327  0.00  0.00    +0.000 A 
ATOM     20  C   UNL     1      -1.715  12.790  20.158  0.00  0.00    +0.000 A 
ATOM     21  C   UNL     1      -4.207  12.097  17.590  0.00  0.00    +0.000 C 
ATOM     22  C   UNL     1      -4.739  10.855  16.847  0.00  0.00    +0.000 C 
ENDROOT
BRANCH   1  23
ATOM     23  C   UNL     1      -3.135  10.721  15.009  0.00  0.00    +0.000 C 
BRANCH  23  24
ATOM     24  C   UNL     1      -3.209   9.912  13.701  0.00  0.00    +0.000 C 
BRANCH  24  25
ATOM     25  O   UNL     1      -4.567   9.784  13.237  0.00  0.00    +0.000 OA
BRANCH  25  27
ATOM     26  C   UNL     1      -6.143   9.775  11.497  0.00  0.00    +0.000 C 
ATOM     27  C   UNL     1      -4.704   9.646  11.888  0.00  0.00    +0.000 C 
ATOM     28  O   UNL     1      -3.793   9.414  11.106  0.00  0.00    +0.000 OA
ENDBRANCH  25  27
ENDBRANCH  24  25
ENDBRANCH  23  24
ENDBRANCH   1  23
TORSDOF 4
ENDMDL
MODEL 2
REMARK VINA RESULT:      -6.0      6.450      8.244
REMARK  Name = 
REMARK  6 active torsions:
REMARK  status: ('A' for Active; 'I' for Inactive)
REMARK    1  A    between atoms: C_1  and  C_2
REMARK    2  A    between atoms: C_2  and  O_4
REMARK    3  A    between atoms: O_4  and  C_5
REMARK    4  A    between atoms: C_5  and  C_6
REMARK    5  A    between atoms: C_6  and  N_7
REMARK    6  A    between atoms: N_20  and  C_21
REMARK                            x       y       z     vdW  Elec       q    Type
REMARK                         _______ _______ _______ _____ _____    ______ ____
ROOT
ATOM      1  N   UNL     1       2.781   6.166  19.368  0.00  0.00    +0.000 NA
ATOM      2  C   UNL     1       2.113   7.079  20.324  0.00  0.00    +0.000 C 
ATOM      3  C   UNL     1       2.054   8.561  19.899  0.00  0.00    +0.000 C 
ATOM      4  N   UNL     1       1.550   8.729  18.530  0.00  0.00    +0.000 N 
ATOM      5  C   UNL     1       0.527   9.621  18.244  0.00  0.00    +0.000 C 
ATOM      6  N   UNL     1      -0.530   9.250  17.594  0.00  0.00    +0.000 NA
ATOM      7  C   UNL     1      -1.616  10.074  17.249  0.00  0.00    +0.000 A 
ATOM      8  C   UNL     1      -2.240   9.735  16.039  0.00  0.00    +0.000 A 
ATOM      9  C   UNL     1      -3.370  10.415  15.597  0.00  0.00    +0.000 A 
ATOM     10 CL   UNL     1      -4.075  10.008  14.080  0.00  0.00    +0.000 Cl
ATOM     11  C   UNL     1      -3.925  11.427  16.368  0.00  0.00    +0.000 A 
ATOM     12  C   UNL     1      -3.338  11.757  17.590  0.00  0.00    +0.000 A 
ATOM     13  C   UNL     1      -2.176  11.101  18.050  0.00  0.00    +0.000 A 
ATOM     14  N   UNL     1      -1.541  11.594  19.209  0.00  0.00    +0.000 N 
ATOM     15  C   UNL     1      -2.329  11.629  20.437  0.00  0.00    +0.000 C 
ATOM     16  C   UNL     1      -0.209  11.860  19.248  0.00  0.00    +0.000 A 
ATOM     17  C   UNL     1       0.319  13.039  19.727  0.00  0.00    +0.000 A 
ATOM     18  S   UNL     1       2.005  13.131  19.470  0.00  0.00    +0.000 S 
ATOM     19  C   UNL     1       2.026  11.576  18.760  0.00  0.00    +0.000 A 
ATOM     20  C   UNL     1       0.778  10.976  18.728  0.00  0.00    +0.000 A 
ATOM     21  C   UNL     1       1.981   7.753  17.524  0.00  0.00    +0.000 C 
ATOM     22  C   UNL     1       2.079   6.315  18.071  0.00  0.00    +0.000 C 
ENDROOT
BRANCH   1  23
ATOM     23  C   UNL     1       4.226   6.430  19.230  0.00  0.00    +0.000 C 
BRANCH  23  24
ATOM     24  C   UNL     1       5.087   5.154  19.190  0.00  0.00    +0.000 C 
BRANCH  24  25
ATOM     25  O   UNL     1       6.417   5.401  19.686  0.00  0.00    +0.000 OA
BRANCH  25  27
ATOM     26  C   UNL     1       7.911   6.776  18.509  0.00  0.00    +0.000 C 
ATOM     27  C   UNL     1       7.396   5.389  18.738  0.00  0.00    +0.000 C 
ATOM     28  O   UNL     1       7.778   4.400  18.129  0.00  0.00    +0.000 OA
ENDBRANCH  25  27
ENDBRANCH  24  25
ENDBRANCH  23  24
ENDBRANCH   1  23
TORSDOF 4
ENDMDL
MODEL 3
REMARK VINA RESULT:      -5.8      4.433      6.989
REMARK  Name = 
REMARK  6 active torsions:
REMARK  status: ('A' for Active; 'I' for Inactive)
REMARK    1  A    between atoms: C_1  and  C_2
REMARK    2  A    between atoms: C_2  and  O_4
REMARK    3  A    between atoms: O_4  and  C_5
REMARK    4  A    between atoms: C_5  and  C_6
REMARK    5  A    between atoms: C_6  and  N_7
REMARK    6  A    between atoms: N_20  and  C_21
REMARK                            x       y       z     vdW  Elec       q    Type
REMARK                         _______ _______ _______ _____ _____    ______ ____
ROOT
ATOM      1  N   UNL     1       0.938  14.732  19.897  0.00  0.00    +0.000 NA
ATOM      2  C   UNL     1       0.036  14.722  18.723  0.00  0.00    +0.000 C 
ATOM      3  C   UNL     1      -0.705  13.394  18.465  0.00  0.00    +0.000 C 
ATOM      4  N   UNL     1      -1.365  12.880  19.674  0.00  0.00    +0.000 N 
ATOM      5  C   UNL     1      -2.696  12.495  19.658  0.00  0.00    +0.000 C 
ATOM      6  N   UNL     1      -3.544  12.960  20.520  0.00  0.00    +0.000 NA
ATOM      7  C   UNL     1      -4.908  12.630  20.594  0.00  0.00    +0.000 A 
ATOM      8  C   UNL     1      -5.438  12.637  21.894  0.00  0.00    +0.000 A 
ATOM      9  C   UNL     1      -6.789  12.397  22.123  0.00  0.00    +0.000 A 
ATOM     10 CL   UNL     1      -7.390  12.359  23.735  0.00  0.00    +0.000 Cl
ATOM     11  C   UNL     1      -7.651  12.178  21.057  0.00  0.00    +0.000 A 
ATOM     12  C   UNL     1      -7.150  12.200  19.755  0.00  0.00    +0.000 A 
ATOM     13  C   UNL     1      -5.779  12.415  19.497  0.00  0.00    +0.000 A 
ATOM     14  N   UNL     1      -5.313  12.260  18.174  0.00  0.00    +0.000 N 
ATOM     15  C   UNL     1      -5.911  13.111  17.152  0.00  0.00    +0.000 C 
ATOM     16  C   UNL     1      -4.235  11.490  17.872  0.00  0.00    +0.000 A 
ATOM     17  C   UNL     1      -4.231  10.542  16.872  0.00  0.00    +0.000 A 
ATOM     18  S   UNL     1      -2.788   9.627  16.870  0.00  0.00    +0.000 S 
ATOM     19  C   UNL     1      -2.160  10.531  18.177  0.00  0.00    +0.000 A 
ATOM     20  C   UNL     1      -3.017  11.531  18.608  0.00  0.00    +0.000 A 
ATOM     21  C   UNL     1      -0.652  13.021  20.947  0.00  0.00    +0.000 C 
ATOM     22  C   UNL     1       0.118  14.351  21.072  0.00  0.00    +0.000 C 
ENDROOT
BRANCH   1  23
ATOM     23  C   UNL     1       2.102  13.838  19.741  0.00  0.00    +0.000 C 
BRANCH  23  24
ATOM     24  C   UNL     1       3.182  14.387  18.791  0.00  0.00    +0.000 C 
BRANCH  24  25
ATOM     25  O   UNL     1       4.004  15.374  19.442  0.00  0.00    +0.000 OA
BRANCH  25  27
ATOM     26  C   UNL     1       5.724  14.884  17.921  0.00  0.00    +0.000 C 
ATOM     27  C   UNL     1       4.957  15.943  18.650  0.00  0.00    +0.000 C 
ATOM     28  O   UNL     1       5.185  17.142  18.570  0.00  0.00    +0.000 OA
ENDBRANCH  25  27
ENDBRANCH  24  25
ENDBRANCH  23  24
ENDBRANCH   1  23
TORSDOF 4
ENDMDL
MODEL 4
REMARK VINA RESULT:      -5.8      4.483      7.517
REMARK  Name = 
REMARK  6 active torsions:
REMARK  status: ('A' for Active; 'I' for Inactive)
REMARK    1  A    between atoms: C_1  and  C_2
REMARK    2  A    between atoms: C_2  and  O_4
REMARK    3  A    between atoms: O_4  and  C_5
REMARK    4  A    between atoms: C_5  and  C_6
REMARK    5  A    between atoms: C_6  and  N_7
REMARK    6  A    between atoms: N_20  and  C_21
REMARK                            x       y       z     vdW  Elec       q    Type
REMARK                         _______ _______ _______ _____ _____    ______ ____
ROOT
ATOM      1  N   UNL     1       0.699  15.464  20.147  0.00  0.00    +0.000 NA
ATOM      2  C   UNL     1      -0.121  15.264  18.930  0.00  0.00    +0.000 C 
ATOM      3  C   UNL     1      -0.680  13.840  18.732  0.00  0.00    +0.000 C 
ATOM      4  N   UNL     1      -1.345  13.329  19.938  0.00  0.00    +0.000 N 
ATOM      5  C   UNL     1      -2.617  12.781  19.881  0.00  0.00    +0.000 C 
ATOM      6  N   UNL     1      -3.566  13.192  20.661  0.00  0.00    +0.000 NA
ATOM      7  C   UNL     1      -4.883  12.701  20.687  0.00  0.00    +0.000 A 
ATOM      8  C   UNL     1      -5.487  12.728  21.952  0.00  0.00    +0.000 A 
ATOM      9  C   UNL     1      -6.811  12.337  22.127  0.00  0.00    +0.000 A 
ATOM     10 CL   UNL     1      -7.501  12.331  23.704  0.00  0.00    +0.000 Cl
ATOM     11  C   UNL     1      -7.574  11.943  21.036  0.00  0.00    +0.000 A 
ATOM     12  C   UNL     1      -7.000  11.940  19.765  0.00  0.00    +0.000 A 
ATOM     13  C   UNL     1      -5.652  12.307  19.563  0.00  0.00    +0.000 A 
ATOM     14  N   UNL     1      -5.090  12.124  18.283  0.00  0.00    +0.000 N 
ATOM     15  C   UNL     1      -5.724  12.825  17.170  0.00  0.00    +0.000 C 
ATOM     16  C   UNL     1      -3.911  11.477  18.095  0.00  0.00    +0.000 A 
ATOM     17  C   UNL     1      -3.731  10.473  17.167  0.00  0.00    +0.000 A 
ATOM     18  S   UNL     1      -2.191   9.746  17.308  0.00  0.00    +0.000 S 
ATOM     19  C   UNL     1      -1.758  10.806  18.577  0.00  0.00    +0.000 A 
ATOM     20  C   UNL     1      -2.754  11.717  18.889  0.00  0.00    +0.000 A 
ATOM     21  C   UNL     1      -0.734  13.641  21.234  0.00  0.00    +0.000 C 
ATOM     22  C   UNL     1      -0.139  15.062  21.301  0.00  0.00    +0.000 C 
ENDROOT
BRANCH   1  23
ATOM     23  C   UNL     1       1.970  14.714  20.118  0.00  0.00    +0.000 C 
BRANCH  23  24
ATOM     24  C   UNL     1       2.860  14.956  21.351  0.00  0.00    +0.000 C 
BRANCH  24  25
ATOM     25  O   UNL     1       3.743  13.842  21.590  0.00  0.00    +0.000 OA
BRANCH  25  27
ATOM     26  C   UNL     1       5.987  14.526  21.676  0.00  0.00    +0.000 C 
ATOM     27  C   UNL     1       4.774  14.098  22.443  0.00  0.00    +0.000 C 
ATOM     28  O   UNL     1       4.736  13.963  23.658  0.00  0.00    +0.000 OA
ENDBRANCH  25  27
ENDBRANCH  24  25
ENDBRANCH  23  24
ENDBRANCH   1  23
TORSDOF 4
ENDMDL
MODEL 5
REMARK VINA RESULT:      -5.7      5.164      8.413
REMARK  Name = 
REMARK  6 active torsions:
REMARK  status: ('A' for Active; 'I' for Inactive)
REMARK    1  A    between atoms: C_1  and  C_2
REMARK    2  A    between atoms: C_2  and  O_4
REMARK    3  A    between atoms: O_4  and  C_5
REMARK    4  A    between atoms: C_5  and  C_6
REMARK    5  A    between atoms: C_6  and  N_7
REMARK    6  A    between atoms: N_20  and  C_21
REMARK                            x       y       z     vdW  Elec       q    Type
REMARK                         _______ _______ _______ _____ _____    ______ ____
ROOT
ATOM      1  N   UNL     1      -1.100  16.550  22.717  0.00  0.00    +0.000 NA
ATOM      2  C   UNL     1       0.039  15.674  22.358  0.00  0.00    +0.000 C 
ATOM      3  C   UNL     1      -0.213  14.159  22.509  0.00  0.00    +0.000 C 
ATOM      4  N   UNL     1      -1.464  13.735  21.864  0.00  0.00    +0.000 N 
ATOM      5  C   UNL     1      -1.492  12.660  20.989  0.00  0.00    +0.000 C 
ATOM      6  N   UNL     1      -2.007  12.766  19.804  0.00  0.00    +0.000 NA
ATOM      7  C   UNL     1      -2.091  11.741  18.848  0.00  0.00    +0.000 A 
ATOM      8  C   UNL     1      -3.219  11.813  18.017  0.00  0.00    +0.000 A 
ATOM      9  C   UNL     1      -3.408  10.908  16.977  0.00  0.00    +0.000 A 
ATOM     10 CL   UNL     1      -4.832  10.994  16.014  0.00  0.00    +0.000 Cl
ATOM     11  C   UNL     1      -2.458   9.929  16.721  0.00  0.00    +0.000 A 
ATOM     12  C   UNL     1      -1.313   9.860  17.516  0.00  0.00    +0.000 A 
ATOM     13  C   UNL     1      -1.110  10.750  18.592  0.00  0.00    +0.000 A 
ATOM     14  N   UNL     1      -0.017  10.522  19.455  0.00  0.00    +0.000 N 
ATOM     15  C   UNL     1       1.315  10.520  18.858  0.00  0.00    +0.000 C 
ATOM     16  C   UNL     1      -0.156  10.482  20.806  0.00  0.00    +0.000 A 
ATOM     17  C   UNL     1       0.358   9.476  21.596  0.00  0.00    +0.000 A 
ATOM     18  S   UNL     1      -0.146   9.626  23.222  0.00  0.00    +0.000 S 
ATOM     19  C   UNL     1      -1.011  11.057  22.869  0.00  0.00    +0.000 A 
ATOM     20  C   UNL     1      -0.913  11.438  21.540  0.00  0.00    +0.000 A 
ATOM     21  C   UNL     1      -2.621  14.628  21.975  0.00  0.00    +0.000 C 
ATOM     22  C   UNL     1      -2.250  16.122  21.886  0.00  0.00    +0.000 C 
ENDROOT
BRANCH   1  23
ATOM     23  C   UNL     1      -1.431  16.508  24.155  0.00  0.00    +0.000 C 
BRANCH  23  24
ATOM     24  C   UNL     1      -2.516  17.519  24.570  0.00  0.00    +0.000 C 
BRANCH  24  25
ATOM     25  O   UNL     1      -3.527  16.899  25.388  0.00  0.00    +0.000 OA
BRANCH  25  27
ATOM     26  C   UNL     1      -5.456  16.379  24.156  0.00  0.00    +0.000 C 
ATOM     27  C   UNL     1      -4.802  17.306  25.134  0.00  0.00    +0.000 C 
ATOM     28  O   UNL     1      -5.332  18.304  25.601  0.00  0.00    +0.000 OA
ENDBRANCH  25  27
ENDBRANCH  24  25
ENDBRANCH  23  24
ENDBRANCH   1  23
TORSDOF 4
ENDMDL
MODEL 6
REMARK VINA RESULT:      -5.7      3.940      6.589
REMARK  Name = 
REMARK  6 active torsions:
REMARK  status: ('A' for Active; 'I' for Inactive)
REMARK    1  A    between atoms: C_1  and  C_2
REMARK    2  A    between atoms: C_2  and  O_4
REMARK    3  A    between atoms: O_4  and  C_5
REMARK    4  A    between atoms: C_5  and  C_6
REMARK    5  A    between atoms: C_6  and  N_7
REMARK    6  A    between atoms: N_20  and  C_21
REMARK                            x       y       z     vdW  Elec       q    Type
REMARK                         _______ _______ _______ _____ _____    ______ ____
ROOT
ATOM      1  N   UNL     1       0.784  14.361  20.092  0.00  0.00    +0.000 NA
ATOM      2  C   UNL     1      -0.068  14.475  18.885  0.00  0.00    +0.000 C 
ATOM      3  C   UNL     1      -0.833  13.196  18.489  0.00  0.00    +0.000 C 
ATOM      4  N   UNL     1      -1.557  12.604  19.623  0.00  0.00    +0.000 N 
ATOM      5  C   UNL     1      -2.896  12.263  19.522  0.00  0.00    +0.000 C 
ATOM      6  N   UNL     1      -3.767  12.681  20.386  0.00  0.00    +0.000 NA
ATOM      7  C   UNL     1      -5.142  12.388  20.378  0.00  0.00    +0.000 A 
ATOM      8  C   UNL     1      -5.725  12.304  21.651  0.00  0.00    +0.000 A 
ATOM      9  C   UNL     1      -7.090  12.087  21.805  0.00  0.00    +0.000 A 
ATOM     10 CL   UNL     1      -7.760  11.935  23.383  0.00  0.00    +0.000 Cl
ATOM     11  C   UNL     1      -7.912  11.983  20.691  0.00  0.00    +0.000 A 
ATOM     12  C   UNL     1      -7.357  12.096  19.417  0.00  0.00    +0.000 A 
ATOM     13  C   UNL     1      -5.971  12.290  19.232  0.00  0.00    +0.000 A 
ATOM     14  N   UNL     1      -5.453  12.230  17.921  0.00  0.00    +0.000 N 
ATOM     15  C   UNL     1      -5.985  13.181  16.950  0.00  0.00    +0.000 C 
ATOM     16  C   UNL     1      -4.385  11.456  17.599  0.00  0.00    +0.000 A 
ATOM     17  C   UNL     1      -4.364  10.594  16.523  0.00  0.00    +0.000 A 
ATOM     18  S   UNL     1      -2.948   9.638  16.503  0.00  0.00    +0.000 S 
ATOM     19  C   UNL     1      -2.351  10.412  17.905  0.00  0.00    +0.000 A 
ATOM     20  C   UNL     1      -3.199  11.399  18.384  0.00  0.00    +0.000 A 
ATOM     21  C   UNL     1      -0.895  12.618  20.931  0.00  0.00    +0.000 C 
ATOM     22  C   UNL     1      -0.095  13.910  21.197  0.00  0.00    +0.000 C 
ENDROOT
BRANCH   1  23
ATOM     23  C   UNL     1       1.928  13.448  19.908  0.00  0.00    +0.000 C 
BRANCH  23  24
ATOM     24  C   UNL     1       3.069  14.047  19.065  0.00  0.00    +0.000 C 
BRANCH  24  25
ATOM     25  O   UNL     1       3.037  15.487  19.083  0.00  0.00    +0.000 OA
BRANCH  25  27
ATOM     26  C   UNL     1       2.120  17.292  17.895  0.00  0.00    +0.000 C 
ATOM     27  C   UNL     1       2.995  16.077  17.855  0.00  0.00    +0.000 C 
ATOM     28  O   UNL     1       3.555  15.661  16.851  0.00  0.00    +0.000 OA
ENDBRANCH  25  27
ENDBRANCH  24  25
ENDBRANCH  23  24
ENDBRANCH   1  23
TORSDOF 4
ENDMDL
MODEL 7
REMARK VINA RESULT:      -5.7      5.202      7.416
REMARK  Name = 
REMARK  6 active torsions:
REMARK  status: ('A' for Active; 'I' for Inactive)
REMARK    1  A    between atoms: C_1  and  C_2
REMARK    2  A    between atoms: C_2  and  O_4
REMARK    3  A    between atoms: O_4  and  C_5
REMARK    4  A    between atoms: C_5  and  C_6
REMARK    5  A    between atoms: C_6  and  N_7
REMARK    6  A    between atoms: N_20  and  C_21
REMARK                            x       y       z     vdW  Elec       q    Type
REMARK                         _______ _______ _______ _____ _____    ______ ____
ROOT
ATOM      1  N   UNL     1       0.229  10.450  19.579  0.00  0.00    +0.000 NA
ATOM      2  C   UNL     1       1.248  10.978  18.642  0.00  0.00    +0.000 C 
ATOM      3  C   UNL     1       1.435  12.509  18.657  0.00  0.00    +0.000 C 
ATOM      4  N   UNL     1       1.608  13.037  20.018  0.00  0.00    +0.000 N 
ATOM      5  C   UNL     1       2.657  13.887  20.332  0.00  0.00    +0.000 C 
ATOM      6  N   UNL     1       3.450  13.643  21.327  0.00  0.00    +0.000 NA
ATOM      7  C   UNL     1       4.534  14.441  21.731  0.00  0.00    +0.000 A 
ATOM      8  C   UNL     1       4.780  14.429  23.112  0.00  0.00    +0.000 A 
ATOM      9  C   UNL     1       5.860  15.116  23.657  0.00  0.00    +0.000 A 
ATOM     10 CL   UNL     1       6.096  15.124  25.362  0.00  0.00    +0.000 Cl
ATOM     11  C   UNL     1       6.740  15.802  22.833  0.00  0.00    +0.000 A 
ATOM     12  C   UNL     1       6.532  15.799  21.454  0.00  0.00    +0.000 A 
ATOM     13  C   UNL     1       5.430  15.133  20.877  0.00  0.00    +0.000 A 
ATOM     14  N   UNL     1       5.185  15.307  19.499  0.00  0.00    +0.000 N 
ATOM     15  C   UNL     1       6.245  14.909  18.578  0.00  0.00    +0.000 C 
ATOM     16  C   UNL     1       3.964  15.657  19.018  0.00  0.00    +0.000 A 
ATOM     17  C   UNL     1       3.764  16.678  18.115  0.00  0.00    +0.000 A 
ATOM     18  S   UNL     1       2.102  16.979  17.854  0.00  0.00    +0.000 S 
ATOM     19  C   UNL     1       1.661  15.715  18.916  0.00  0.00    +0.000 A 
ATOM     20  C   UNL     1       2.751  15.052  19.455  0.00  0.00    +0.000 A 
ATOM     21  C   UNL     1       0.793  12.445  21.083  0.00  0.00    +0.000 C 
ATOM     22  C   UNL     1       0.605  10.921  20.933  0.00  0.00    +0.000 C 
ENDROOT
BRANCH   1  23
ATOM     23  C   UNL     1      -1.145  10.859  19.230  0.00  0.00    +0.000 C 
BRANCH  23  24
ATOM     24  C   UNL     1      -1.615  10.345  17.857  0.00  0.00    +0.000 C 
BRANCH  24  25
ATOM     25  O   UNL     1      -2.161  11.410  17.054  0.00  0.00    +0.000 OA
BRANCH  25  27
ATOM     26  C   UNL     1      -2.895  10.273  15.136  0.00  0.00    +0.000 C 
ATOM     27  C   UNL     1      -3.273  11.079  16.339  0.00  0.00    +0.000 C 
ATOM     28  O   UNL     1      -4.415  11.420  16.612  0.00  0.00    +0.000 OA
ENDBRANCH  25  27
ENDBRANCH  24  25
ENDBRANCH  23  24
ENDBRANCH   1  23
TORSDOF 4
ENDMDL
MODEL 8
REMARK VINA RESULT:      -5.7      8.049     10.659
REMARK  Name = 
REMARK  6 active torsions:
REMARK  status: ('A' for Active; 'I' for Inactive)
REMARK    1  A    between atoms: C_1  and  C_2
REMARK    2  A    between atoms: C_2  and  O_4
REMARK    3  A    between atoms: O_4  and  C_5
REMARK    4  A    between atoms: C_5  and  C_6
REMARK    5  A    between atoms: C_6  and  N_7
REMARK    6  A    between atoms: N_20  and  C_21
REMARK                            x       y       z     vdW  Elec       q    Type
REMARK                         _______ _______ _______ _____ _____    ______ ____
ROOT
ATOM      1  N   UNL     1       7.709  15.841  19.282  0.00  0.00    +0.000 NA
ATOM      2  C   UNL     1       6.571  16.379  20.063  0.00  0.00    +0.000 C 
ATOM      3  C   UNL     1       5.266  16.599  19.271  0.00  0.00    +0.000 C 
ATOM      4  N   UNL     1       4.887  15.419  18.481  0.00  0.00    +0.000 N 
ATOM      5  C   UNL     1       3.607  14.891  18.546  0.00  0.00    +0.000 C 
ATOM      6  N   UNL     1       3.406  13.636  18.793  0.00  0.00    +0.000 NA
ATOM      7  C   UNL     1       2.154  13.002  18.874  0.00  0.00    +0.000 A 
ATOM      8  C   UNL     1       2.151  11.666  18.446  0.00  0.00    +0.000 A 
ATOM      9  C   UNL     1       1.002  10.885  18.529  0.00  0.00    +0.000 A 
ATOM     10 CL   UNL     1       1.023   9.267  17.941  0.00  0.00    +0.000 Cl
ATOM     11  C   UNL     1      -0.162  11.410  19.073  0.00  0.00    +0.000 A 
ATOM     12  C   UNL     1      -0.171  12.726  19.534  0.00  0.00    +0.000 A 
ATOM     13  C   UNL     1       0.973  13.547  19.438  0.00  0.00    +0.000 A 
ATOM     14  N   UNL     1       0.849  14.913  19.770  0.00  0.00    +0.000 N 
ATOM     15  C   UNL     1       0.407  15.233  21.123  0.00  0.00    +0.000 C 
ATOM     16  C   UNL     1       1.286  15.901  18.946  0.00  0.00    +0.000 A 
ATOM     17  C   UNL     1       0.524  16.995  18.596  0.00  0.00    +0.000 A 
ATOM     18  S   UNL     1       1.295  17.952  17.408  0.00  0.00    +0.000 S 
ATOM     19  C   UNL     1       2.660  16.923  17.401  0.00  0.00    +0.000 A 
ATOM     20  C   UNL     1       2.553  15.872  18.298  0.00  0.00    +0.000 A 
ATOM     21  C   UNL     1       5.961  14.672  17.820  0.00  0.00    +0.000 C 
ATOM     22  C   UNL     1       7.247  14.575  18.666  0.00  0.00    +0.000 C 
ENDROOT
BRANCH   1  23
ATOM     23  C   UNL     1       8.208  16.784  18.263  0.00  0.00    +0.000 C 
BRANCH  23  24
ATOM     24  C   UNL     1       9.564  16.379  17.656  0.00  0.00    +0.000 C 
BRANCH  24  25
ATOM     25  O   UNL     1      10.425  15.781  18.644  0.00  0.00    +0.000 OA
BRANCH  25  27
ATOM     26  C   UNL     1      12.051  14.217  19.295  0.00  0.00    +0.000 C 
ATOM     27  C   UNL     1      11.209  14.765  18.184  0.00  0.00    +0.000 C 
ATOM     28  O   UNL     1      11.253  14.375  17.026  0.00  0.00    +0.000 OA
ENDBRANCH  25  27
ENDBRANCH  24  25
ENDBRANCH  23  24
ENDBRANCH   1  23
TORSDOF 4
ENDMDL
MODEL 9
REMARK VINA RESULT:      -5.7      8.257     10.418
REMARK  Name = 
REMARK  6 active torsions:
REMARK  status: ('A' for Active; 'I' for Inactive)
REMARK    1  A    between atoms: C_1  and  C_2
REMARK    2  A    between atoms: C_2  and  O_4
REMARK    3  A    between atoms: O_4  and  C_5
REMARK    4  A    between atoms: C_5  and  C_6
REMARK    5  A    between atoms: C_6  and  N_7
REMARK    6  A    between atoms: N_20  and  C_21
REMARK                            x       y       z     vdW  Elec       q    Type
REMARK                         _______ _______ _______ _____ _____    ______ ____
ROOT
ATOM      1  N   UNL     1       1.171  10.116  19.293  0.00  0.00    +0.000 NA
ATOM      2  C   UNL     1       1.919   9.215  20.200  0.00  0.00    +0.000 C 
ATOM      3  C   UNL     1       1.830   7.711  19.865  0.00  0.00    +0.000 C 
ATOM      4  N   UNL     1       2.117   7.437  18.450  0.00  0.00    +0.000 N 
ATOM      5  C   UNL     1       3.033   6.465  18.078  0.00  0.00    +0.000 C 
ATOM      6  N   UNL     1       4.003   6.730  17.260  0.00  0.00    +0.000 NA
ATOM      7  C   UNL     1       4.977   5.819  16.816  0.00  0.00    +0.000 A 
ATOM      8  C   UNL     1       5.435   6.050  15.510  0.00  0.00    +0.000 A 
ATOM      9  C   UNL     1       6.447   5.275  14.953  0.00  0.00    +0.000 A 
ATOM     10 CL   UNL     1       6.943   5.552  13.328  0.00  0.00    +0.000 Cl
ATOM     11  C   UNL     1       7.051   4.272  15.699  0.00  0.00    +0.000 A 
ATOM     12  C   UNL     1       6.632   4.048  17.011  0.00  0.00    +0.000 A 
ATOM     13  C   UNL     1       5.590   4.803  17.591  0.00  0.00    +0.000 A 
ATOM     14  N   UNL     1       5.106   4.416  18.858  0.00  0.00    +0.000 N 
ATOM     15  C   UNL     1       6.062   4.396  19.960  0.00  0.00    +0.000 C 
ATOM     16  C   UNL     1       3.781   4.240  19.105  0.00  0.00    +0.000 A 
ATOM     17  C   UNL     1       3.263   3.126  19.728  0.00  0.00    +0.000 A 
ATOM     18  S   UNL     1       1.555   3.132  19.722  0.00  0.00    +0.000 S 
ATOM     19  C   UNL     1       1.518   4.643  18.926  0.00  0.00    +0.000 A 
ATOM     20  C   UNL     1       2.780   5.158  18.677  0.00  0.00    +0.000 A 
ATOM     21  C   UNL     1       1.599   8.382  17.457  0.00  0.00    +0.000 C 
ATOM     22  C   UNL     1       1.665   9.852  17.921  0.00  0.00    +0.000 C 
ENDROOT
BRANCH   1  23
ATOM     23  C   UNL     1      -0.292   9.941  19.381  0.00  0.00    +0.000 C 
BRANCH  23  24
ATOM     24  C   UNL     1      -1.073  10.698  18.292  0.00  0.00    +0.000 C 
BRANCH  24  25
ATOM     25  O   UNL     1      -1.541   9.805  17.263  0.00  0.00    +0.000 OA
BRANCH  25  27
ATOM     26  C   UNL     1      -3.045  10.065  15.479  0.00  0.00    +0.000 C 
ATOM     27  C   UNL     1      -2.864   9.920  16.958  0.00  0.00    +0.000 C 
ATOM     28  O   UNL     1      -3.777   9.942  17.772  0.00  0.00    +0.000 OA
ENDBRANCH  25  27
ENDBRANCH  24  25
ENDBRANCH  23  24
ENDBRANCH   1  23
TORSDOF 4
ENDMDL
