MODEL 1
REMARK VINA RESULT:      -5.0      0.000      0.000
REMARK  Name = 
REMARK  7 active torsions:
REMARK  status: ('A' for Active; 'I' for Inactive)
REMARK    1  A    between atoms: C_1  and  C_2
REMARK    2  A    between atoms: C_2  and  N_3
REMARK    3  A    between atoms: N_3  and  C_4
REMARK    4  A    between atoms: N_3  and  C_6
REMARK    5  A    between atoms: C_4  and  C_5
REMARK    6  A    between atoms: C_12  and  C_13
REMARK    7  A    between atoms: C_15  and  C_16
REMARK                            x       y       z     vdW  Elec       q    Type
REMARK                         _______ _______ _______ _____ _____    ______ ____
ROOT
ATOM      1  C   UNL     1      -3.341  12.770  22.419  0.00  0.00    +0.000 A 
ATOM      2  N   UNL     1      -4.147  13.040  23.480  0.00  0.00    +0.000 NA
ATOM      3  C   UNL     1      -5.468  13.129  23.316  0.00  0.00    +0.000 A 
ATOM      4  N   UNL     1      -6.133  12.996  22.179  0.00  0.00    +0.000 NA
ATOM      5  C   UNL     1      -5.334  12.721  21.138  0.00  0.00    +0.000 A 
ATOM      6  S   UNL     1      -6.042  12.496  19.619  0.00  0.00    +0.000 S 
ATOM      7  C   UNL     1      -4.548  12.114  18.901  0.00  0.00    +0.000 A 
ATOM      8  C   UNL     1      -3.477  12.219  19.790  0.00  0.00    +0.000 A 
ATOM      9  C   UNL     1      -3.950  12.580  21.141  0.00  0.00    +0.000 A 
ENDROOT
BRANCH   8  10
ATOM     10  C   UNL     1      -2.098  11.904  19.352  0.00  0.00    +0.000 A 
ATOM     11  C   UNL     1      -1.693  10.589  19.061  0.00  0.00    +0.000 A 
ATOM     12  C   UNL     1      -0.367  10.298  18.723  0.00  0.00    +0.000 A 
ATOM     13  C   UNL     1       0.559  11.328  18.599  0.00  0.00    +0.000 A 
ATOM     14 CL   UNL     1       2.183  10.978  18.159  0.00  0.00    +0.000 Cl
ATOM     15  C   UNL     1       0.170  12.642  18.831  0.00  0.00    +0.000 A 
ATOM     16  C   UNL     1      -1.139  12.919  19.243  0.00  0.00    +0.000 A 
ENDBRANCH   8  10
BRANCH   7  17
ATOM     17  C   UNL     1      -4.517  11.732  17.522  0.00  0.00    +0.000 C 
ATOM     18  N   UNL     1      -4.482  11.455  16.394  0.00  0.00    +0.000 NA
ENDBRANCH   7  17
BRANCH   1  19
ATOM     19  N   UNL     1      -1.970  12.619  22.678  0.00  0.00    +0.000 N 
BRANCH  19  21
ATOM     20  C   UNL     1      -0.373  10.746  22.461  0.00  0.00    +0.000 C 
ATOM     21  C   UNL     1      -1.612  11.275  23.170  0.00  0.00    +0.000 C 
ENDBRANCH  19  21
BRANCH  19  22
ATOM     22  C   UNL     1      -1.371  13.771  23.377  0.00  0.00    +0.000 C 
ATOM     23  C   UNL     1      -0.621  14.742  22.474  0.00  0.00    +0.000 C 
ENDBRANCH  19  22
ENDBRANCH   1  19
TORSDOF 5
ENDMDL
MODEL 2
REMARK VINA RESULT:      -4.9      3.284      6.363
REMARK  Name = 
REMARK  7 active torsions:
REMARK  status: ('A' for Active; 'I' for Inactive)
REMARK    1  A    between atoms: C_1  and  C_2
REMARK    2  A    between atoms: C_2  and  N_3
REMARK    3  A    between atoms: N_3  and  C_4
REMARK    4  A    between atoms: N_3  and  C_6
REMARK    5  A    between atoms: C_4  and  C_5
REMARK    6  A    between atoms: C_12  and  C_13
REMARK    7  A    between atoms: C_15  and  C_16
REMARK                            x       y       z     vdW  Elec       q    Type
REMARK                         _______ _______ _______ _____ _____    ______ ____
ROOT
ATOM      1  C   UNL     1      -4.628  11.604  18.036  0.00  0.00    +0.000 A 
ATOM      2  N   UNL     1      -4.501  10.872  16.896  0.00  0.00    +0.000 NA
ATOM      3  C   UNL     1      -3.295  10.489  16.474  0.00  0.00    +0.000 A 
ATOM      4  N   UNL     1      -2.133  10.762  17.048  0.00  0.00    +0.000 NA
ATOM      5  C   UNL     1      -2.265  11.477  18.174  0.00  0.00    +0.000 A 
ATOM      6  S   UNL     1      -0.868  11.881  19.037  0.00  0.00    +0.000 S 
ATOM      7  C   UNL     1      -1.765  12.620  20.280  0.00  0.00    +0.000 A 
ATOM      8  C   UNL     1      -3.137  12.632  20.025  0.00  0.00    +0.000 A 
ATOM      9  C   UNL     1      -3.442  11.938  18.758  0.00  0.00    +0.000 A 
ENDROOT
BRANCH   8  10
ATOM     10  C   UNL     1      -4.083  13.214  21.003  0.00  0.00    +0.000 A 
ATOM     11  C   UNL     1      -4.355  12.591  22.234  0.00  0.00    +0.000 A 
ATOM     12  C   UNL     1      -5.309  13.114  23.115  0.00  0.00    +0.000 A 
ATOM     13  C   UNL     1      -5.952  14.309  22.812  0.00  0.00    +0.000 A 
ATOM     14 CL   UNL     1      -7.105  14.968  23.902  0.00  0.00    +0.000 Cl
ATOM     15  C   UNL     1      -5.661  14.971  21.624  0.00  0.00    +0.000 A 
ATOM     16  C   UNL     1      -4.763  14.404  20.713  0.00  0.00    +0.000 A 
ENDBRANCH   8  10
BRANCH   7  17
ATOM     17  C   UNL     1      -1.075  13.134  21.424  0.00  0.00    +0.000 C 
ATOM     18  N   UNL     1      -0.485  13.542  22.338  0.00  0.00    +0.000 NA
ENDBRANCH   7  17
BRANCH   1  19
ATOM     19  N   UNL     1      -5.930  11.909  18.459  0.00  0.00    +0.000 N 
BRANCH  19  21
ATOM     20  C   UNL     1      -7.351  11.364  20.407  0.00  0.00    +0.000 C 
ATOM     21  C   UNL     1      -6.568  10.817  19.221  0.00  0.00    +0.000 C 
ENDBRANCH  19  21
BRANCH  19  22
ATOM     22  C   UNL     1      -6.746  12.573  17.427  0.00  0.00    +0.000 C 
ATOM     23  C   UNL     1      -6.797  14.092  17.537  0.00  0.00    +0.000 C 
ENDBRANCH  19  22
ENDBRANCH   1  19
TORSDOF 5
ENDMDL
MODEL 3
REMARK VINA RESULT:      -4.9      1.102      1.532
REMARK  Name = 
REMARK  7 active torsions:
REMARK  status: ('A' for Active; 'I' for Inactive)
REMARK    1  A    between atoms: C_1  and  C_2
REMARK    2  A    between atoms: C_2  and  N_3
REMARK    3  A    between atoms: N_3  and  C_4
REMARK    4  A    between atoms: N_3  and  C_6
REMARK    5  A    between atoms: C_4  and  C_5
REMARK    6  A    between atoms: C_12  and  C_13
REMARK    7  A    between atoms: C_15  and  C_16
REMARK                            x       y       z     vdW  Elec       q    Type
REMARK                         _______ _______ _______ _____ _____    ______ ____
ROOT
ATOM      1  C   UNL     1      -4.079  12.765  21.605  0.00  0.00    +0.000 A 
ATOM      2  N   UNL     1      -5.136  12.879  22.452  0.00  0.00    +0.000 NA
ATOM      3  C   UNL     1      -6.373  12.625  22.023  0.00  0.00    +0.000 A 
ATOM      4  N   UNL     1      -6.727  12.272  20.797  0.00  0.00    +0.000 NA
ATOM      5  C   UNL     1      -5.680  12.153  19.967  0.00  0.00    +0.000 A 
ATOM      6  S   UNL     1      -5.970  11.680  18.370  0.00  0.00    +0.000 S 
ATOM      7  C   UNL     1      -4.309  11.648  18.004  0.00  0.00    +0.000 A 
ATOM      8  C   UNL     1      -3.510  12.063  19.071  0.00  0.00    +0.000 A 
ATOM      9  C   UNL     1      -4.335  12.363  20.259  0.00  0.00    +0.000 A 
ENDROOT
BRANCH   8  10
ATOM     10  C   UNL     1      -2.036  12.082  18.948  0.00  0.00    +0.000 A 
ATOM     11  C   UNL     1      -1.319  13.281  18.789  0.00  0.00    +0.000 A 
ATOM     12  C   UNL     1       0.068  13.276  18.597  0.00  0.00    +0.000 A 
ATOM     13  C   UNL     1       0.769  12.076  18.636  0.00  0.00    +0.000 A 
ATOM     14 CL   UNL     1       2.474  12.068  18.427  0.00  0.00    +0.000 Cl
ATOM     15  C   UNL     1       0.088  10.882  18.845  0.00  0.00    +0.000 A 
ATOM     16  C   UNL     1      -1.306  10.886  18.960  0.00  0.00    +0.000 A 
ENDBRANCH   8  10
BRANCH   7  17
ATOM     17  C   UNL     1      -3.891  11.216  16.705  0.00  0.00    +0.000 C 
ATOM     18  N   UNL     1      -3.571  10.892  15.636  0.00  0.00    +0.000 NA
ENDBRANCH   7  17
BRANCH   1  19
ATOM     19  N   UNL     1      -2.801  12.976  22.142  0.00  0.00    +0.000 N 
BRANCH  19  21
ATOM     20  C   UNL     1      -0.928  11.458  22.689  0.00  0.00    +0.000 C 
ATOM     21  C   UNL     1      -2.351  11.883  23.027  0.00  0.00    +0.000 C 
ENDBRANCH  19  21
BRANCH  19  22
ATOM     22  C   UNL     1      -2.579  14.355  22.614  0.00  0.00    +0.000 C 
ATOM     23  C   UNL     1      -2.309  15.369  21.510  0.00  0.00    +0.000 C 
ENDBRANCH  19  22
ENDBRANCH   1  19
TORSDOF 5
ENDMDL
MODEL 4
REMARK VINA RESULT:      -4.9      2.394      4.942
REMARK  Name = 
REMARK  7 active torsions:
REMARK  status: ('A' for Active; 'I' for Inactive)
REMARK    1  A    between atoms: C_1  and  C_2
REMARK    2  A    between atoms: C_2  and  N_3
REMARK    3  A    between atoms: N_3  and  C_4
REMARK    4  A    between atoms: N_3  and  C_6
REMARK    5  A    between atoms: C_4  and  C_5
REMARK    6  A    between atoms: C_12  and  C_13
REMARK    7  A    between atoms: C_15  and  C_16
REMARK                            x       y       z     vdW  Elec       q    Type
REMARK                         _______ _______ _______ _____ _____    ______ ____
ROOT
ATOM      1  C   UNL     1      -2.237  11.698  18.133  0.00  0.00    +0.000 A 
ATOM      2  N   UNL     1      -2.133  11.188  16.876  0.00  0.00    +0.000 NA
ATOM      3  C   UNL     1      -3.229  10.897  16.176  0.00  0.00    +0.000 A 
ATOM      4  N   UNL     1      -4.483  11.032  16.579  0.00  0.00    +0.000 NA
ATOM      5  C   UNL     1      -4.581  11.542  17.815  0.00  0.00    +0.000 A 
ATOM      6  S   UNL     1      -6.122  11.799  18.459  0.00  0.00    +0.000 S 
ATOM      7  C   UNL     1      -5.491  12.499  19.875  0.00  0.00    +0.000 A 
ATOM      8  C   UNL     1      -4.095  12.485  19.911  0.00  0.00    +0.000 A 
ATOM      9  C   UNL     1      -3.544  11.913  18.666  0.00  0.00    +0.000 A 
ENDROOT
BRANCH   8  10
ATOM     10  C   UNL     1      -3.363  13.070  21.056  0.00  0.00    +0.000 A 
ATOM     11  C   UNL     1      -2.895  12.279  22.121  0.00  0.00    +0.000 A 
ATOM     12  C   UNL     1      -2.272  12.857  23.233  0.00  0.00    +0.000 A 
ATOM     13  C   UNL     1      -2.042  14.228  23.265  0.00  0.00    +0.000 A 
ATOM     14 CL   UNL     1      -1.255  14.937  24.617  0.00  0.00    +0.000 Cl
ATOM     15  C   UNL     1      -2.449  15.024  22.201  0.00  0.00    +0.000 A 
ATOM     16  C   UNL     1      -3.139  14.451  21.126  0.00  0.00    +0.000 A 
ENDBRANCH   8  10
BRANCH   7  17
ATOM     17  C   UNL     1      -6.394  13.020  20.856  0.00  0.00    +0.000 C 
ATOM     18  N   UNL     1      -7.118  13.416  21.673  0.00  0.00    +0.000 NA
ENDBRANCH   7  17
BRANCH   1  19
ATOM     19  N   UNL     1      -1.044  12.050  18.783  0.00  0.00    +0.000 N 
BRANCH  19  21
ATOM     20  C   UNL     1       0.032  14.189  19.394  0.00  0.00    +0.000 C 
ATOM     21  C   UNL     1      -0.436  13.288  18.259  0.00  0.00    +0.000 C 
ENDBRANCH  19  21
BRANCH  19  22
ATOM     22  C   UNL     1      -0.143  10.908  19.021  0.00  0.00    +0.000 C 
ATOM     23  C   UNL     1      -0.420  10.136  20.304  0.00  0.00    +0.000 C 
ENDBRANCH  19  22
ENDBRANCH   1  19
TORSDOF 5
ENDMDL
MODEL 5
REMARK VINA RESULT:      -4.9      3.257      6.476
REMARK  Name = 
REMARK  7 active torsions:
REMARK  status: ('A' for Active; 'I' for Inactive)
REMARK    1  A    between atoms: C_1  and  C_2
REMARK    2  A    between atoms: C_2  and  N_3
REMARK    3  A    between atoms: N_3  and  C_4
REMARK    4  A    between atoms: N_3  and  C_6
REMARK    5  A    between atoms: C_4  and  C_5
REMARK    6  A    between atoms: C_12  and  C_13
REMARK    7  A    between atoms: C_15  and  C_16
REMARK                            x       y       z     vdW  Elec       q    Type
REMARK                         _______ _______ _______ _____ _____    ______ ____
ROOT
ATOM      1  C   UNL     1      -4.374  11.542  18.006  0.00  0.00    +0.000 A 
ATOM      2  N   UNL     1      -4.117  10.762  16.922  0.00  0.00    +0.000 NA
ATOM      3  C   UNL     1      -2.879  10.325  16.686  0.00  0.00    +0.000 A 
ATOM      4  N   UNL     1      -1.799  10.583  17.408  0.00  0.00    +0.000 NA
ATOM      5  C   UNL     1      -2.060  11.345  18.479  0.00  0.00    +0.000 A 
ATOM      6  S   UNL     1      -0.783  11.738  19.516  0.00  0.00    +0.000 S 
ATOM      7  C   UNL     1      -1.816  12.553  20.594  0.00  0.00    +0.000 A 
ATOM      8  C   UNL     1      -3.138  12.599  20.148  0.00  0.00    +0.000 A 
ATOM      9  C   UNL     1      -3.288  11.866  18.876  0.00  0.00    +0.000 A 
ENDROOT
BRANCH   8  10
ATOM     10  C   UNL     1      -4.188  13.249  20.964  0.00  0.00    +0.000 A 
ATOM     11  C   UNL     1      -4.685  14.528  20.653  0.00  0.00    +0.000 A 
ATOM     12  C   UNL     1      -5.622  15.161  21.478  0.00  0.00    +0.000 A 
ATOM     13  C   UNL     1      -6.132  14.494  22.586  0.00  0.00    +0.000 A 
ATOM     14 CL   UNL     1      -7.302  15.258  23.587  0.00  0.00    +0.000 Cl
ATOM     15  C   UNL     1      -5.695  13.209  22.884  0.00  0.00    +0.000 A 
ATOM     16  C   UNL     1      -4.702  12.611  22.100  0.00  0.00    +0.000 A 
ENDBRANCH   8  10
BRANCH   7  17
ATOM     17  C   UNL     1      -1.273  13.090  21.805  0.00  0.00    +0.000 C 
ATOM     18  N   UNL     1      -0.860  13.511  22.806  0.00  0.00    +0.000 NA
ENDBRANCH   7  17
BRANCH   1  19
ATOM     19  N   UNL     1      -5.710  11.904  18.232  0.00  0.00    +0.000 N 
BRANCH  19  21
ATOM     20  C   UNL     1      -7.347  11.230  19.957  0.00  0.00    +0.000 C 
ATOM     21  C   UNL     1      -6.539  10.795  18.742  0.00  0.00    +0.000 C 
ENDBRANCH  19  21
BRANCH  19  22
ATOM     22  C   UNL     1      -6.287  12.734  17.158  0.00  0.00    +0.000 C 
ATOM     23  C   UNL     1      -6.769  14.108  17.606  0.00  0.00    +0.000 C 
ENDBRANCH  19  22
ENDBRANCH   1  19
TORSDOF 5
ENDMDL
MODEL 6
REMARK VINA RESULT:      -4.9      1.160      1.243
REMARK  Name = 
REMARK  7 active torsions:
REMARK  status: ('A' for Active; 'I' for Inactive)
REMARK    1  A    between atoms: C_1  and  C_2
REMARK    2  A    between atoms: C_2  and  N_3
REMARK    3  A    between atoms: N_3  and  C_4
REMARK    4  A    between atoms: N_3  and  C_6
REMARK    5  A    between atoms: C_4  and  C_5
REMARK    6  A    between atoms: C_12  and  C_13
REMARK    7  A    between atoms: C_15  and  C_16
REMARK                            x       y       z     vdW  Elec       q    Type
REMARK                         _______ _______ _______ _____ _____    ______ ____
ROOT
ATOM      1  C   UNL     1      -4.033  12.714  21.514  0.00  0.00    +0.000 A 
ATOM      2  N   UNL     1      -5.073  12.847  22.380  0.00  0.00    +0.000 NA
ATOM      3  C   UNL     1      -6.320  12.596  21.978  0.00  0.00    +0.000 A 
ATOM      4  N   UNL     1      -6.699  12.228  20.763  0.00  0.00    +0.000 NA
ATOM      5  C   UNL     1      -5.669  12.091  19.916  0.00  0.00    +0.000 A 
ATOM      6  S   UNL     1      -5.992  11.598  18.332  0.00  0.00    +0.000 S 
ATOM      7  C   UNL     1      -4.339  11.549  17.935  0.00  0.00    +0.000 A 
ATOM      8  C   UNL     1      -3.517  11.973  18.981  0.00  0.00    +0.000 A 
ATOM      9  C   UNL     1      -4.317  12.295  20.179  0.00  0.00    +0.000 A 
ENDROOT
BRANCH   8  10
ATOM     10  C   UNL     1      -2.045  11.980  18.830  0.00  0.00    +0.000 A 
ATOM     11  C   UNL     1      -1.285  10.799  18.909  0.00  0.00    +0.000 A 
ATOM     12  C   UNL     1       0.113  10.832  18.841  0.00  0.00    +0.000 A 
ATOM     13  C   UNL     1       0.769  12.038  18.620  0.00  0.00    +0.000 A 
ATOM     14 CL   UNL     1       2.483  12.078  18.511  0.00  0.00    +0.000 Cl
ATOM     15  C   UNL     1       0.035  13.211  18.487  0.00  0.00    +0.000 A 
ATOM     16  C   UNL     1      -1.356  13.183  18.631  0.00  0.00    +0.000 A 
ENDBRANCH   8  10
BRANCH   7  17
ATOM     17  C   UNL     1      -3.949  11.096  16.634  0.00  0.00    +0.000 C 
ATOM     18  N   UNL     1      -3.664  10.737  15.566  0.00  0.00    +0.000 NA
ENDBRANCH   7  17
BRANCH   1  19
ATOM     19  N   UNL     1      -2.743  12.923  22.025  0.00  0.00    +0.000 N 
BRANCH  19  21
ATOM     20  C   UNL     1      -1.004  11.273  22.625  0.00  0.00    +0.000 C 
ATOM     21  C   UNL     1      -2.333  11.906  23.013  0.00  0.00    +0.000 C 
ENDBRANCH  19  21
BRANCH  19  22
ATOM     22  C   UNL     1      -2.461  14.332  22.357  0.00  0.00    +0.000 C 
ATOM     23  C   UNL     1      -2.674  15.310  21.208  0.00  0.00    +0.000 C 
ENDBRANCH  19  22
ENDBRANCH   1  19
TORSDOF 5
ENDMDL
MODEL 7
REMARK VINA RESULT:      -4.8      2.439      4.998
REMARK  Name = 
REMARK  7 active torsions:
REMARK  status: ('A' for Active; 'I' for Inactive)
REMARK    1  A    between atoms: C_1  and  C_2
REMARK    2  A    between atoms: C_2  and  N_3
REMARK    3  A    between atoms: N_3  and  C_4
REMARK    4  A    between atoms: N_3  and  C_6
REMARK    5  A    between atoms: C_4  and  C_5
REMARK    6  A    between atoms: C_12  and  C_13
REMARK    7  A    between atoms: C_15  and  C_16
REMARK                            x       y       z     vdW  Elec       q    Type
REMARK                         _______ _______ _______ _____ _____    ______ ____
ROOT
ATOM      1  C   UNL     1      -2.385  11.759  18.308  0.00  0.00    +0.000 A 
ATOM      2  N   UNL     1      -2.208  11.263  17.054  0.00  0.00    +0.000 NA
ATOM      3  C   UNL     1      -3.261  10.897  16.321  0.00  0.00    +0.000 A 
ATOM      4  N   UNL     1      -4.533  10.943  16.688  0.00  0.00    +0.000 NA
ATOM      5  C   UNL     1      -4.701  11.441  17.921  0.00  0.00    +0.000 A 
ATOM      6  S   UNL     1      -6.275  11.588  18.520  0.00  0.00    +0.000 S 
ATOM      7  C   UNL     1      -5.736  12.325  19.955  0.00  0.00    +0.000 A 
ATOM      8  C   UNL     1      -4.345  12.409  20.032  0.00  0.00    +0.000 A 
ATOM      9  C   UNL     1      -3.719  11.881  18.803  0.00  0.00    +0.000 A 
ENDROOT
BRANCH   8  10
ATOM     10  C   UNL     1      -3.689  13.040  21.198  0.00  0.00    +0.000 A 
ATOM     11  C   UNL     1      -3.277  14.385  21.182  0.00  0.00    +0.000 A 
ATOM     12  C   UNL     1      -2.590  14.945  22.265  0.00  0.00    +0.000 A 
ATOM     13  C   UNL     1      -2.368  14.190  23.411  0.00  0.00    +0.000 A 
ATOM     14 CL   UNL     1      -1.547  14.881  24.753  0.00  0.00    +0.000 Cl
ATOM     15  C   UNL     1      -2.812  12.874  23.471  0.00  0.00    +0.000 A 
ATOM     16  C   UNL     1      -3.431  12.296  22.357  0.00  0.00    +0.000 A 
ENDBRANCH   8  10
BRANCH   7  17
ATOM     17  C   UNL     1      -6.702  12.779  20.909  0.00  0.00    +0.000 C 
ATOM     18  N   UNL     1      -7.467  13.131  21.709  0.00  0.00    +0.000 NA
ENDBRANCH   7  17
BRANCH   1  19
ATOM     19  N   UNL     1      -1.239  12.192  18.993  0.00  0.00    +0.000 N 
BRANCH  19  21
ATOM     20  C   UNL     1      -0.309  14.481  18.934  0.00  0.00    +0.000 C 
ATOM     21  C   UNL     1      -0.418  13.142  18.218  0.00  0.00    +0.000 C 
ENDBRANCH  19  21
BRANCH  19  22
ATOM     22  C   UNL     1      -0.528  11.108  19.696  0.00  0.00    +0.000 C 
ATOM     23  C   UNL     1      -0.137  11.433  21.132  0.00  0.00    +0.000 C 
ENDBRANCH  19  22
ENDBRANCH   1  19
TORSDOF 5
ENDMDL
MODEL 8
REMARK VINA RESULT:      -4.8      2.672      4.976
REMARK  Name = 
REMARK  7 active torsions:
REMARK  status: ('A' for Active; 'I' for Inactive)
REMARK    1  A    between atoms: C_1  and  C_2
REMARK    2  A    between atoms: C_2  and  N_3
REMARK    3  A    between atoms: N_3  and  C_4
REMARK    4  A    between atoms: N_3  and  C_6
REMARK    5  A    between atoms: C_4  and  C_5
REMARK    6  A    between atoms: C_12  and  C_13
REMARK    7  A    between atoms: C_15  and  C_16
REMARK                            x       y       z     vdW  Elec       q    Type
REMARK                         _______ _______ _______ _____ _____    ______ ____
ROOT
ATOM      1  C   UNL     1      -1.725  11.389  19.141  0.00  0.00    +0.000 A 
ATOM      2  N   UNL     1      -1.194  10.687  18.103  0.00  0.00    +0.000 NA
ATOM      3  C   UNL     1      -1.954  10.352  17.059  0.00  0.00    +0.000 A 
ATOM      4  N   UNL     1      -3.242  10.617  16.902  0.00  0.00    +0.000 NA
ATOM      5  C   UNL     1      -3.758  11.315  17.923  0.00  0.00    +0.000 A 
ATOM      6  S   UNL     1      -5.389  11.754  17.854  0.00  0.00    +0.000 S 
ATOM      7  C   UNL     1      -5.290  12.627  19.311  0.00  0.00    +0.000 A 
ATOM      8  C   UNL     1      -4.031  12.542  19.909  0.00  0.00    +0.000 A 
ATOM      9  C   UNL     1      -3.104  11.756  19.070  0.00  0.00    +0.000 A 
ENDROOT
BRANCH   8  10
ATOM     10  C   UNL     1      -3.746  13.255  21.174  0.00  0.00    +0.000 A 
ATOM     11  C   UNL     1      -3.083  14.495  21.194  0.00  0.00    +0.000 A 
ATOM     12  C   UNL     1      -2.752  15.120  22.403  0.00  0.00    +0.000 A 
ATOM     13  C   UNL     1      -3.145  14.549  23.608  0.00  0.00    +0.000 A 
ATOM     14 CL   UNL     1      -2.763  15.325  25.093  0.00  0.00    +0.000 Cl
ATOM     15  C   UNL     1      -3.846  13.349  23.612  0.00  0.00    +0.000 A 
ATOM     16  C   UNL     1      -4.107  12.692  22.404  0.00  0.00    +0.000 A 
ENDBRANCH   8  10
BRANCH   7  17
ATOM     17  C   UNL     1      -6.440  13.342  19.774  0.00  0.00    +0.000 C 
ATOM     18  N   UNL     1      -7.367  13.947  20.126  0.00  0.00    +0.000 NA
ENDBRANCH   7  17
BRANCH   1  19
ATOM     19  N   UNL     1      -0.852  11.770  20.170  0.00  0.00    +0.000 N 
BRANCH  19  21
ATOM     20  C   UNL     1       0.009  13.898  19.252  0.00  0.00    +0.000 C 
ATOM     21  C   UNL     1       0.349  12.478  19.686  0.00  0.00    +0.000 C 
ENDBRANCH  19  21
BRANCH  19  22
ATOM     22  C   UNL     1      -0.648  10.724  21.189  0.00  0.00    +0.000 C 
ATOM     23  C   UNL     1      -0.769  11.209  22.629  0.00  0.00    +0.000 C 
ENDBRANCH  19  22
ENDBRANCH   1  19
TORSDOF 5
ENDMDL
MODEL 9
REMARK VINA RESULT:      -4.8      2.926      5.540
REMARK  Name = 
REMARK  7 active torsions:
REMARK  status: ('A' for Active; 'I' for Inactive)
REMARK    1  A    between atoms: C_1  and  C_2
REMARK    2  A    between atoms: C_2  and  N_3
REMARK    3  A    between atoms: N_3  and  C_4
REMARK    4  A    between atoms: N_3  and  C_6
REMARK    5  A    between atoms: C_4  and  C_5
REMARK    6  A    between atoms: C_12  and  C_13
REMARK    7  A    between atoms: C_15  and  C_16
REMARK                            x       y       z     vdW  Elec       q    Type
REMARK                         _______ _______ _______ _____ _____    ______ ____
ROOT
ATOM      1  C   UNL     1      -4.819  12.397  19.149  0.00  0.00    +0.000 A 
ATOM      2  N   UNL     1      -5.467  11.922  18.052  0.00  0.00    +0.000 NA
ATOM      3  C   UNL     1      -4.801  11.237  17.121  0.00  0.00    +0.000 A 
ATOM      4  N   UNL     1      -3.507  10.957  17.121  0.00  0.00    +0.000 NA
ATOM      5  C   UNL     1      -2.875  11.420  18.209  0.00  0.00    +0.000 A 
ATOM      6  S   UNL     1      -1.219  11.116  18.366  0.00  0.00    +0.000 S 
ATOM      7  C   UNL     1      -1.159  11.846  19.902  0.00  0.00    +0.000 A 
ATOM      8  C   UNL     1      -2.383  12.394  20.290  0.00  0.00    +0.000 A 
ATOM      9  C   UNL     1      -3.421  12.132  19.273  0.00  0.00    +0.000 A 
ENDROOT
BRANCH   8  10
ATOM     10  C   UNL     1      -2.532  13.053  21.606  0.00  0.00    +0.000 A 
ATOM     11  C   UNL     1      -2.136  14.386  21.818  0.00  0.00    +0.000 A 
ATOM     12  C   UNL     1      -2.213  14.971  23.088  0.00  0.00    +0.000 A 
ATOM     13  C   UNL     1      -2.755  14.256  24.149  0.00  0.00    +0.000 A 
ATOM     14 CL   UNL     1      -2.874  14.979  25.703  0.00  0.00    +0.000 Cl
ATOM     15  C   UNL     1      -3.201  12.954  23.952  0.00  0.00    +0.000 A 
ATOM     16  C   UNL     1      -3.052  12.349  22.699  0.00  0.00    +0.000 A 
ENDBRANCH   8  10
BRANCH   7  17
ATOM     17  C   UNL     1       0.073  11.833  20.630  0.00  0.00    +0.000 C 
ATOM     18  N   UNL     1       1.078  11.790  21.212  0.00  0.00    +0.000 NA
ENDBRANCH   7  17
BRANCH   1  19
ATOM     19  N   UNL     1      -5.595  13.045  20.122  0.00  0.00    +0.000 N 
BRANCH  19  21
ATOM     20  C   UNL     1      -6.767  12.604  22.253  0.00  0.00    +0.000 C 
ATOM     21  C   UNL     1      -6.530  12.142  20.821  0.00  0.00    +0.000 C 
ENDBRANCH  19  21
BRANCH  19  22
ATOM     22  C   UNL     1      -6.125  14.349  19.682  0.00  0.00    +0.000 C 
ATOM     23  C   UNL     1      -5.421  15.557  20.286  0.00  0.00    +0.000 C 
ENDBRANCH  19  22
ENDBRANCH   1  19
TORSDOF 5
ENDMDL
