MODEL 1
REMARK VINA RESULT:      -6.4      0.000      0.000
REMARK  Name = 
REMARK  10 active torsions:
REMARK  status: ('A' for Active; 'I' for Inactive)
REMARK    1  A    between atoms: C_1  and  C_2
REMARK    2  A    between atoms: C_2  and  C_3
REMARK    3  A    between atoms: C_3  and  C_4
REMARK    4  A    between atoms: C_8  and  C_9
REMARK    5  A    between atoms: C_16  and  C_17
REMARK    6  A    between atoms: C_17  and  O_18
REMARK    7  A    between atoms: C_17  and  C_19
REMARK    8  A    between atoms: C_19  and  N_20
REMARK    9  A    between atoms: N_20  and  C_21
REMARK   10  A    between atoms: N_20  and  C_22
REMARK                            x       y       z     vdW  Elec       q    Type
REMARK                         _______ _______ _______ _____ _____    ______ ____
ROOT
ATOM      1  C   UNL     1       3.878   6.662  17.603  0.00  0.00    +0.000 C 
ATOM      2  O   UNL     1       4.083   6.834  16.401  0.00  0.00    +0.000 OA
ATOM      3  N   UNL     1       3.040   7.555  18.318  0.00  0.00    +0.000 N 
ATOM      4  C   UNL     1       2.464   8.681  17.566  0.00  0.00    +0.000 C 
ATOM      5  C   UNL     1       1.975   9.834  18.444  0.00  0.00    +0.000 C 
ATOM      6  N   UNL     1       1.393   9.348  19.677  0.00  0.00    +0.000 N 
ATOM      7  N   UNL     1       0.714  10.164  20.507  0.00  0.00    +0.000 NA
ATOM      8  C   UNL     1       0.430   9.368  21.560  0.00  0.00    +0.000 A 
ATOM      9  C   UNL     1       0.980   8.078  21.402  0.00  0.00    +0.000 A 
ATOM     10  C   UNL     1       1.548   8.078  20.151  0.00  0.00    +0.000 A 
ATOM     11  C   UNL     1       2.187   7.007  19.373  0.00  0.00    +0.000 C 
ENDROOT
BRANCH   1  16
ATOM     12  C   UNL     1       4.007   4.267  18.560  0.00  0.00    +0.000 A 
ATOM     13  N   UNL     1       4.863   3.488  19.337  0.00  0.00    +0.000 NA
ATOM     14  N   UNL     1       5.989   4.117  19.619  0.00  0.00    +0.000 NA
ATOM     15  S   UNL     1       6.083   5.622  18.906  0.00  0.00    +0.000 S 
ATOM     16  C   UNL     1       4.466   5.557  18.320  0.00  0.00    +0.000 A 
BRANCH  12  17
ATOM     17  C   UNL     1       2.734   3.628  18.095  0.00  0.00    +0.000 C 
BRANCH  17  19
ATOM     18  C   UNL     1       1.207   3.577  20.133  0.00  0.00    +0.000 C 
ATOM     19  C   UNL     1       2.041   2.765  19.152  0.00  0.00    +0.000 C 
ENDBRANCH  17  19
ENDBRANCH  12  17
ENDBRANCH   1  16
BRANCH   8  20
ATOM     20  C   UNL     1      -0.385   9.873  22.719  0.00  0.00    +0.000 C 
BRANCH  20  21
ATOM     21  O   UNL     1       0.298   9.658  23.964  0.00  0.00    +0.000 OA
ATOM     22  H   UNL     1      -0.006  10.407  24.525  0.00  0.00    +0.000 HD
ENDBRANCH  20  21
BRANCH  20  23
ATOM     23  C   UNL     1      -0.699  11.387  22.600  0.00  0.00    +0.000 C 
BRANCH  23  24
ATOM     24  N   UNL     1      -2.064  11.776  22.168  0.00  0.00    +0.000 NA
ATOM     25  C   UNL     1      -2.891  12.227  23.286  0.00  0.00    +0.000 C 
ATOM     26  C   UNL     1      -1.972  12.834  21.157  0.00  0.00    +0.000 C 
ENDBRANCH  23  24
ENDBRANCH  20  23
ENDBRANCH   8  20
TORSDOF 7
ENDMDL
MODEL 2
REMARK VINA RESULT:      -6.3      2.942      4.322
REMARK  Name = 
REMARK  10 active torsions:
REMARK  status: ('A' for Active; 'I' for Inactive)
REMARK    1  A    between atoms: C_1  and  C_2
REMARK    2  A    between atoms: C_2  and  C_3
REMARK    3  A    between atoms: C_3  and  C_4
REMARK    4  A    between atoms: C_8  and  C_9
REMARK    5  A    between atoms: C_16  and  C_17
REMARK    6  A    between atoms: C_17  and  O_18
REMARK    7  A    between atoms: C_17  and  C_19
REMARK    8  A    between atoms: C_19  and  N_20
REMARK    9  A    between atoms: N_20  and  C_21
REMARK   10  A    between atoms: N_20  and  C_22
REMARK                            x       y       z     vdW  Elec       q    Type
REMARK                         _______ _______ _______ _____ _____    ______ ____
ROOT
ATOM      1  C   UNL     1       5.204   4.705  18.393  0.00  0.00    +0.000 C 
ATOM      2  O   UNL     1       5.535   3.798  19.157  0.00  0.00    +0.000 OA
ATOM      3  N   UNL     1       4.129   5.566  18.733  0.00  0.00    +0.000 N 
ATOM      4  C   UNL     1       3.438   5.305  20.005  0.00  0.00    +0.000 C 
ATOM      5  C   UNL     1       2.046   5.932  20.101  0.00  0.00    +0.000 C 
ATOM      6  N   UNL     1       2.003   7.222  19.446  0.00  0.00    +0.000 N 
ATOM      7  N   UNL     1       0.945   8.046  19.579  0.00  0.00    +0.000 NA
ATOM      8  C   UNL     1       1.246   9.073  18.755  0.00  0.00    +0.000 A 
ATOM      9  C   UNL     1       2.463   8.855  18.074  0.00  0.00    +0.000 A 
ATOM     10  C   UNL     1       2.956   7.679  18.583  0.00  0.00    +0.000 A 
ATOM     11  C   UNL     1       4.226   6.976  18.352  0.00  0.00    +0.000 C 
ENDROOT
BRANCH   1  16
ATOM     12  C   UNL     1       6.951   5.766  16.816  0.00  0.00    +0.000 A 
ATOM     13  N   UNL     1       7.316   5.727  15.471  0.00  0.00    +0.000 NA
ATOM     14  N   UNL     1       6.624   4.831  14.793  0.00  0.00    +0.000 NA
ATOM     15  S   UNL     1       5.574   3.964  15.756  0.00  0.00    +0.000 S 
ATOM     16  C   UNL     1       5.890   4.931  17.144  0.00  0.00    +0.000 A 
BRANCH  12  17
ATOM     17  C   UNL     1       7.731   6.680  17.710  0.00  0.00    +0.000 C 
BRANCH  17  19
ATOM     18  C   UNL     1       8.455   9.065  18.233  0.00  0.00    +0.000 C 
ATOM     19  C   UNL     1       7.553   8.168  17.399  0.00  0.00    +0.000 C 
ENDBRANCH  17  19
ENDBRANCH  12  17
ENDBRANCH   1  16
BRANCH   8  20
ATOM     20  C   UNL     1       0.341  10.268  18.638  0.00  0.00    +0.000 C 
BRANCH  20  21
ATOM     21  O   UNL     1      -0.391  10.245  17.403  0.00  0.00    +0.000 OA
ATOM     22  H   UNL     1       0.081   9.569  16.868  0.00  0.00    +0.000 HD
ENDBRANCH  20  21
BRANCH  20  23
ATOM     23  C   UNL     1      -0.684  10.343  19.801  0.00  0.00    +0.000 C 
BRANCH  23  24
ATOM     24  N   UNL     1      -0.432  11.331  20.879  0.00  0.00    +0.000 NA
ATOM     25  C   UNL     1      -0.284  10.698  22.188  0.00  0.00    +0.000 C 
ATOM     26  C   UNL     1       0.773  12.104  20.560  0.00  0.00    +0.000 C 
ENDBRANCH  23  24
ENDBRANCH  20  23
ENDBRANCH   8  20
TORSDOF 7
ENDMDL
MODEL 3
REMARK VINA RESULT:      -6.3      3.112      4.507
REMARK  Name = 
REMARK  10 active torsions:
REMARK  status: ('A' for Active; 'I' for Inactive)
REMARK    1  A    between atoms: C_1  and  C_2
REMARK    2  A    between atoms: C_2  and  C_3
REMARK    3  A    between atoms: C_3  and  C_4
REMARK    4  A    between atoms: C_8  and  C_9
REMARK    5  A    between atoms: C_16  and  C_17
REMARK    6  A    between atoms: C_17  and  O_18
REMARK    7  A    between atoms: C_17  and  C_19
REMARK    8  A    between atoms: C_19  and  N_20
REMARK    9  A    between atoms: N_20  and  C_21
REMARK   10  A    between atoms: N_20  and  C_22
REMARK                            x       y       z     vdW  Elec       q    Type
REMARK                         _______ _______ _______ _____ _____    ______ ____
ROOT
ATOM      1  C   UNL     1       5.198   4.599  18.326  0.00  0.00    +0.000 C 
ATOM      2  O   UNL     1       5.495   3.671  19.079  0.00  0.00    +0.000 OA
ATOM      3  N   UNL     1       4.147   5.487  18.669  0.00  0.00    +0.000 N 
ATOM      4  C   UNL     1       3.436   5.227  19.931  0.00  0.00    +0.000 C 
ATOM      5  C   UNL     1       2.062   5.893  20.023  0.00  0.00    +0.000 C 
ATOM      6  N   UNL     1       2.063   7.194  19.388  0.00  0.00    +0.000 N 
ATOM      7  N   UNL     1       1.028   8.046  19.524  0.00  0.00    +0.000 NA
ATOM      8  C   UNL     1       1.367   9.076  18.719  0.00  0.00    +0.000 A 
ATOM      9  C   UNL     1       2.584   8.833  18.047  0.00  0.00    +0.000 A 
ATOM     10  C   UNL     1       3.038   7.635  18.542  0.00  0.00    +0.000 A 
ATOM     11  C   UNL     1       4.289   6.898  18.312  0.00  0.00    +0.000 C 
ENDROOT
BRANCH   1  16
ATOM     12  C   UNL     1       6.968   5.660  16.774  0.00  0.00    +0.000 A 
ATOM     13  N   UNL     1       7.354   5.620  15.434  0.00  0.00    +0.000 NA
ATOM     14  N   UNL     1       6.673   4.721  14.747  0.00  0.00    +0.000 NA
ATOM     15  S   UNL     1       5.610   3.854  15.696  0.00  0.00    +0.000 S 
ATOM     16  C   UNL     1       5.903   4.824  17.087  0.00  0.00    +0.000 A 
BRANCH  12  17
ATOM     17  C   UNL     1       7.733   6.577  17.678  0.00  0.00    +0.000 C 
BRANCH  17  19
ATOM     18  C   UNL     1       8.447   8.965  18.201  0.00  0.00    +0.000 C 
ATOM     19  C   UNL     1       7.539   8.065  17.376  0.00  0.00    +0.000 C 
ENDBRANCH  17  19
ENDBRANCH  12  17
ENDBRANCH   1  16
BRANCH   8  20
ATOM     20  C   UNL     1       0.499  10.299  18.613  0.00  0.00    +0.000 C 
BRANCH  20  21
ATOM     21  O   UNL     1       1.188  11.366  17.943  0.00  0.00    +0.000 OA
ATOM     22  H   UNL     1       1.253  12.066  18.631  0.00  0.00    +0.000 HD
ENDBRANCH  20  21
BRANCH  20  23
ATOM     23  C   UNL     1      -0.816  10.019  17.840  0.00  0.00    +0.000 C 
BRANCH  23  24
ATOM     24  N   UNL     1      -2.052  10.686  18.320  0.00  0.00    +0.000 NA
ATOM     25  C   UNL     1      -1.800  11.570  19.456  0.00  0.00    +0.000 C 
ATOM     26  C   UNL     1      -2.654  11.446  17.220  0.00  0.00    +0.000 C 
ENDBRANCH  23  24
ENDBRANCH  20  23
ENDBRANCH   8  20
TORSDOF 7
ENDMDL
MODEL 4
REMARK VINA RESULT:      -6.2      1.359      2.389
REMARK  Name = 
REMARK  10 active torsions:
REMARK  status: ('A' for Active; 'I' for Inactive)
REMARK    1  A    between atoms: C_1  and  C_2
REMARK    2  A    between atoms: C_2  and  C_3
REMARK    3  A    between atoms: C_3  and  C_4
REMARK    4  A    between atoms: C_8  and  C_9
REMARK    5  A    between atoms: C_16  and  C_17
REMARK    6  A    between atoms: C_17  and  O_18
REMARK    7  A    between atoms: C_17  and  C_19
REMARK    8  A    between atoms: C_19  and  N_20
REMARK    9  A    between atoms: N_20  and  C_21
REMARK   10  A    between atoms: N_20  and  C_22
REMARK                            x       y       z     vdW  Elec       q    Type
REMARK                         _______ _______ _______ _____ _____    ______ ____
ROOT
ATOM      1  C   UNL     1       3.849   6.121  17.675  0.00  0.00    +0.000 C 
ATOM      2  O   UNL     1       4.134   6.251  16.484  0.00  0.00    +0.000 OA
ATOM      3  N   UNL     1       3.081   7.114  18.337  0.00  0.00    +0.000 N 
ATOM      4  C   UNL     1       2.677   8.286  17.544  0.00  0.00    +0.000 C 
ATOM      5  C   UNL     1       2.276   9.500  18.384  0.00  0.00    +0.000 C 
ATOM      6  N   UNL     1       1.580   9.101  19.588  0.00  0.00    +0.000 N 
ATOM      7  N   UNL     1       0.955  10.002  20.373  0.00  0.00    +0.000 NA
ATOM      8  C   UNL     1       0.528   9.259  21.417  0.00  0.00    +0.000 A 
ATOM      9  C   UNL     1       0.936   7.913  21.300  0.00  0.00    +0.000 A 
ATOM     10  C   UNL     1       1.565   7.830  20.082  0.00  0.00    +0.000 A 
ATOM     11  C   UNL     1       2.118   6.682  19.349  0.00  0.00    +0.000 C 
ENDROOT
BRANCH   1  16
ATOM     12  C   UNL     1       5.443   4.701  19.127  0.00  0.00    +0.000 A 
ATOM     13  N   UNL     1       5.488   3.437  19.715  0.00  0.00    +0.000 NA
ATOM     14  N   UNL     1       4.356   2.776  19.559  0.00  0.00    +0.000 NA
ATOM     15  S   UNL     1       3.189   3.671  18.772  0.00  0.00    +0.000 S 
ATOM     16  C   UNL     1       4.269   4.968  18.433  0.00  0.00    +0.000 A 
BRANCH  12  17
ATOM     17  C   UNL     1       6.637   5.586  19.317  0.00  0.00    +0.000 C 
BRANCH  17  19
ATOM     18  C   UNL     1       7.548   7.170  17.544  0.00  0.00    +0.000 C 
ATOM     19  C   UNL     1       7.509   5.743  18.069  0.00  0.00    +0.000 C 
ENDBRANCH  17  19
ENDBRANCH  12  17
ENDBRANCH   1  16
BRANCH   8  20
ATOM     20  C   UNL     1      -0.283   9.870  22.525  0.00  0.00    +0.000 C 
BRANCH  20  21
ATOM     21  O   UNL     1       0.349   9.673  23.800  0.00  0.00    +0.000 OA
ATOM     22  H   UNL     1      -0.301   9.128  24.298  0.00  0.00    +0.000 HD
ENDBRANCH  20  21
BRANCH  20  23
ATOM     23  C   UNL     1      -0.494  11.394  22.327  0.00  0.00    +0.000 C 
BRANCH  23  24
ATOM     24  N   UNL     1      -1.867  11.866  22.021  0.00  0.00    +0.000 NA
ATOM     25  C   UNL     1      -2.645  12.129  23.230  0.00  0.00    +0.000 C 
ATOM     26  C   UNL     1      -1.795  13.079  21.201  0.00  0.00    +0.000 C 
ENDBRANCH  23  24
ENDBRANCH  20  23
ENDBRANCH   8  20
TORSDOF 7
ENDMDL
MODEL 5
REMARK VINA RESULT:      -6.2      2.986      4.298
REMARK  Name = 
REMARK  10 active torsions:
REMARK  status: ('A' for Active; 'I' for Inactive)
REMARK    1  A    between atoms: C_1  and  C_2
REMARK    2  A    between atoms: C_2  and  C_3
REMARK    3  A    between atoms: C_3  and  C_4
REMARK    4  A    between atoms: C_8  and  C_9
REMARK    5  A    between atoms: C_16  and  C_17
REMARK    6  A    between atoms: C_17  and  O_18
REMARK    7  A    between atoms: C_17  and  C_19
REMARK    8  A    between atoms: C_19  and  N_20
REMARK    9  A    between atoms: N_20  and  C_21
REMARK   10  A    between atoms: N_20  and  C_22
REMARK                            x       y       z     vdW  Elec       q    Type
REMARK                         _______ _______ _______ _____ _____    ______ ____
ROOT
ATOM      1  C   UNL     1       4.707   4.195  18.693  0.00  0.00    +0.000 C 
ATOM      2  O   UNL     1       4.950   3.292  19.495  0.00  0.00    +0.000 OA
ATOM      3  N   UNL     1       3.779   5.214  19.027  0.00  0.00    +0.000 N 
ATOM      4  C   UNL     1       3.125   5.120  20.342  0.00  0.00    +0.000 C 
ATOM      5  C   UNL     1       1.838   5.938  20.460  0.00  0.00    +0.000 C 
ATOM      6  N   UNL     1       1.938   7.185  19.732  0.00  0.00    +0.000 N 
ATOM      7  N   UNL     1       1.010   8.154  19.862  0.00  0.00    +0.000 NA
ATOM      8  C   UNL     1       1.405   9.083  18.965  0.00  0.00    +0.000 A 
ATOM      9  C   UNL     1       2.545   8.663  18.247  0.00  0.00    +0.000 A 
ATOM     10  C   UNL     1       2.899   7.458  18.803  0.00  0.00    +0.000 A 
ATOM     11  C   UNL     1       4.048   6.574  18.560  0.00  0.00    +0.000 C 
ENDROOT
BRANCH   1  16
ATOM     12  C   UNL     1       6.666   4.535  17.047  0.00  0.00    +0.000 A 
ATOM     13  N   UNL     1       6.899   4.531  15.672  0.00  0.00    +0.000 NA
ATOM     14  N   UNL     1       5.828   4.177  14.987  0.00  0.00    +0.000 NA
ATOM     15  S   UNL     1       4.541   3.770  15.967  0.00  0.00    +0.000 S 
ATOM     16  C   UNL     1       5.353   4.256  17.405  0.00  0.00    +0.000 A 
BRANCH  12  17
ATOM     17  C   UNL     1       7.834   4.831  17.937  0.00  0.00    +0.000 C 
BRANCH  17  19
ATOM     18  C   UNL     1       7.643   7.360  17.708  0.00  0.00    +0.000 C 
ATOM     19  C   UNL     1       7.749   6.178  18.659  0.00  0.00    +0.000 C 
ENDBRANCH  17  19
ENDBRANCH  12  17
ENDBRANCH   1  16
BRANCH   8  20
ATOM     20  C   UNL     1       0.668  10.385  18.817  0.00  0.00    +0.000 C 
BRANCH  20  21
ATOM     21  O   UNL     1       1.336  11.257  17.893  0.00  0.00    +0.000 OA
ATOM     22  H   UNL     1       1.445  10.701  17.089  0.00  0.00    +0.000 HD
ENDBRANCH  20  21
BRANCH  20  23
ATOM     23  C   UNL     1      -0.787  10.181  18.316  0.00  0.00    +0.000 C 
BRANCH  23  24
ATOM     24  N   UNL     1      -1.546  11.384  17.895  0.00  0.00    +0.000 NA
ATOM     25  C   UNL     1      -2.439  11.111  16.771  0.00  0.00    +0.000 C 
ATOM     26  C   UNL     1      -2.316  11.897  19.033  0.00  0.00    +0.000 C 
ENDBRANCH  23  24
ENDBRANCH  20  23
ENDBRANCH   8  20
TORSDOF 7
ENDMDL
MODEL 6
REMARK VINA RESULT:      -6.2      2.750      4.099
REMARK  Name = 
REMARK  10 active torsions:
REMARK  status: ('A' for Active; 'I' for Inactive)
REMARK    1  A    between atoms: C_1  and  C_2
REMARK    2  A    between atoms: C_2  and  C_3
REMARK    3  A    between atoms: C_3  and  C_4
REMARK    4  A    between atoms: C_8  and  C_9
REMARK    5  A    between atoms: C_16  and  C_17
REMARK    6  A    between atoms: C_17  and  O_18
REMARK    7  A    between atoms: C_17  and  C_19
REMARK    8  A    between atoms: C_19  and  N_20
REMARK    9  A    between atoms: N_20  and  C_21
REMARK   10  A    between atoms: N_20  and  C_22
REMARK                            x       y       z     vdW  Elec       q    Type
REMARK                         _______ _______ _______ _____ _____    ______ ____
ROOT
ATOM      1  C   UNL     1       4.768   4.176  18.699  0.00  0.00    +0.000 C 
ATOM      2  O   UNL     1       5.019   3.287  19.514  0.00  0.00    +0.000 OA
ATOM      3  N   UNL     1       3.820   5.184  19.012  0.00  0.00    +0.000 N 
ATOM      4  C   UNL     1       3.155   5.094  20.322  0.00  0.00    +0.000 C 
ATOM      5  C   UNL     1       1.854   5.892  20.418  0.00  0.00    +0.000 C 
ATOM      6  N   UNL     1       1.940   7.132  19.676  0.00  0.00    +0.000 N 
ATOM      7  N   UNL     1       0.995   8.087  19.786  0.00  0.00    +0.000 NA
ATOM      8  C   UNL     1       1.383   9.012  18.883  0.00  0.00    +0.000 A 
ATOM      9  C   UNL     1       2.537   8.602  18.180  0.00  0.00    +0.000 A 
ATOM     10  C   UNL     1       2.905   7.410  18.754  0.00  0.00    +0.000 A 
ATOM     11  C   UNL     1       4.071   6.543  18.532  0.00  0.00    +0.000 C 
ENDROOT
BRANCH   1  16
ATOM     12  C   UNL     1       6.736   4.539  17.067  0.00  0.00    +0.000 A 
ATOM     13  N   UNL     1       6.982   4.520  15.695  0.00  0.00    +0.000 NA
ATOM     14  N   UNL     1       5.927   4.130  15.004  0.00  0.00    +0.000 NA
ATOM     15  S   UNL     1       4.640   3.708  15.978  0.00  0.00    +0.000 S 
ATOM     16  C   UNL     1       5.426   4.234  17.416  0.00  0.00    +0.000 A 
BRANCH  12  17
ATOM     17  C   UNL     1       7.887   4.875  17.964  0.00  0.00    +0.000 C 
BRANCH  17  19
ATOM     18  C   UNL     1       7.622   7.390  17.661  0.00  0.00    +0.000 C 
ATOM     19  C   UNL     1       7.775   6.241  18.646  0.00  0.00    +0.000 C 
ENDBRANCH  17  19
ENDBRANCH  12  17
ENDBRANCH   1  16
BRANCH   8  20
ATOM     20  C   UNL     1       0.626  10.299  18.712  0.00  0.00    +0.000 C 
BRANCH  20  21
ATOM     21  O   UNL     1      -0.208  10.259  17.544  0.00  0.00    +0.000 OA
ATOM     22  H   UNL     1      -1.120  10.255  17.911  0.00  0.00    +0.000 HD
ENDBRANCH  20  21
BRANCH  20  23
ATOM     23  C   UNL     1      -0.278  10.614  19.934  0.00  0.00    +0.000 C 
BRANCH  23  24
ATOM     24  N   UNL     1       0.365  11.208  21.132  0.00  0.00    +0.000 NA
ATOM     25  C   UNL     1       0.521  12.656  21.016  0.00  0.00    +0.000 C 
ATOM     26  C   UNL     1      -0.429  10.885  22.321  0.00  0.00    +0.000 C 
ENDBRANCH  23  24
ENDBRANCH  20  23
ENDBRANCH   8  20
TORSDOF 7
ENDMDL
MODEL 7
REMARK VINA RESULT:      -6.2      3.192      8.286
REMARK  Name = 
REMARK  10 active torsions:
REMARK  status: ('A' for Active; 'I' for Inactive)
REMARK    1  A    between atoms: C_1  and  C_2
REMARK    2  A    between atoms: C_2  and  C_3
REMARK    3  A    between atoms: C_3  and  C_4
REMARK    4  A    between atoms: C_8  and  C_9
REMARK    5  A    between atoms: C_16  and  C_17
REMARK    6  A    between atoms: C_17  and  O_18
REMARK    7  A    between atoms: C_17  and  C_19
REMARK    8  A    between atoms: C_19  and  N_20
REMARK    9  A    between atoms: N_20  and  C_21
REMARK   10  A    between atoms: N_20  and  C_22
REMARK                            x       y       z     vdW  Elec       q    Type
REMARK                         _______ _______ _______ _____ _____    ______ ____
ROOT
ATOM      1  C   UNL     1       0.104  10.653  20.530  0.00  0.00    +0.000 C 
ATOM      2  O   UNL     1      -0.735  10.659  21.432  0.00  0.00    +0.000 OA
ATOM      3  N   UNL     1       0.851   9.479  20.259  0.00  0.00    +0.000 N 
ATOM      4  C   UNL     1       0.591   8.307  21.111  0.00  0.00    +0.000 C 
ATOM      5  C   UNL     1       1.706   7.260  21.093  0.00  0.00    +0.000 C 
ATOM      6  N   UNL     1       2.300   7.146  19.778  0.00  0.00    +0.000 N 
ATOM      7  N   UNL     1       3.155   6.149  19.474  0.00  0.00    +0.000 NA
ATOM      8  C   UNL     1       3.548   6.450  18.218  0.00  0.00    +0.000 A 
ATOM      9  C   UNL     1       2.976   7.660  17.768  0.00  0.00    +0.000 A 
ATOM     10  C   UNL     1       2.131   8.056  18.776  0.00  0.00    +0.000 A 
ATOM     11  C   UNL     1       1.184   9.177  18.867  0.00  0.00    +0.000 C 
ENDROOT
BRANCH   1  16
ATOM     12  C   UNL     1      -0.422  12.440  18.742  0.00  0.00    +0.000 A 
ATOM     13  N   UNL     1       0.186  13.546  18.149  0.00  0.00    +0.000 NA
ATOM     14  N   UNL     1       1.350  13.831  18.702  0.00  0.00    +0.000 NA
ATOM     15  S   UNL     1       1.714  12.833  19.988  0.00  0.00    +0.000 S 
ATOM     16  C   UNL     1       0.349  11.820  19.718  0.00  0.00    +0.000 A 
BRANCH  12  17
ATOM     17  C   UNL     1      -1.793  12.074  18.262  0.00  0.00    +0.000 C 
BRANCH  17  19
ATOM     18  C   UNL     1      -2.669  10.854  16.206  0.00  0.00    +0.000 C 
ATOM     19  C   UNL     1      -1.857  10.755  17.489  0.00  0.00    +0.000 C 
ENDBRANCH  17  19
ENDBRANCH  12  17
ENDBRANCH   1  16
BRANCH   8  20
ATOM     20  C   UNL     1       4.481   5.549  17.458  0.00  0.00    +0.000 C 
BRANCH  20  21
ATOM     21  O   UNL     1       3.783   4.413  16.923  0.00  0.00    +0.000 OA
ATOM     22  H   UNL     1       4.507   3.808  16.646  0.00  0.00    +0.000 HD
ENDBRANCH  20  21
BRANCH  20  23
ATOM     23  C   UNL     1       5.174   6.282  16.279  0.00  0.00    +0.000 C 
BRANCH  23  24
ATOM     24  N   UNL     1       6.554   5.867  15.925  0.00  0.00    +0.000 NA
ATOM     25  C   UNL     1       7.219   5.164  17.020  0.00  0.00    +0.000 C 
ATOM     26  C   UNL     1       6.516   5.014  14.734  0.00  0.00    +0.000 C 
ENDBRANCH  23  24
ENDBRANCH  20  23
ENDBRANCH   8  20
TORSDOF 7
ENDMDL
MODEL 8
REMARK VINA RESULT:      -6.1      3.055      4.568
REMARK  Name = 
REMARK  10 active torsions:
REMARK  status: ('A' for Active; 'I' for Inactive)
REMARK    1  A    between atoms: C_1  and  C_2
REMARK    2  A    between atoms: C_2  and  C_3
REMARK    3  A    between atoms: C_3  and  C_4
REMARK    4  A    between atoms: C_8  and  C_9
REMARK    5  A    between atoms: C_16  and  C_17
REMARK    6  A    between atoms: C_17  and  O_18
REMARK    7  A    between atoms: C_17  and  C_19
REMARK    8  A    between atoms: C_19  and  N_20
REMARK    9  A    between atoms: N_20  and  C_21
REMARK   10  A    between atoms: N_20  and  C_22
REMARK                            x       y       z     vdW  Elec       q    Type
REMARK                         _______ _______ _______ _____ _____    ______ ____
ROOT
ATOM      1  C   UNL     1       5.156   4.729  18.367  0.00  0.00    +0.000 C 
ATOM      2  O   UNL     1       5.469   3.844  19.164  0.00  0.00    +0.000 OA
ATOM      3  N   UNL     1       4.096   5.621  18.672  0.00  0.00    +0.000 N 
ATOM      4  C   UNL     1       3.397   5.418  19.951  0.00  0.00    +0.000 C 
ATOM      5  C   UNL     1       2.016   6.072  20.020  0.00  0.00    +0.000 C 
ATOM      6  N   UNL     1       1.998   7.339  19.319  0.00  0.00    +0.000 N 
ATOM      7  N   UNL     1       0.954   8.185  19.420  0.00  0.00    +0.000 NA
ATOM      8  C   UNL     1       1.275   9.176  18.560  0.00  0.00    +0.000 A 
ATOM      9  C   UNL     1       2.490   8.913  17.892  0.00  0.00    +0.000 A 
ATOM     10  C   UNL     1       2.961   7.747  18.444  0.00  0.00    +0.000 A 
ATOM     11  C   UNL     1       4.219   7.014  18.242  0.00  0.00    +0.000 C 
ENDROOT
BRANCH   1  16
ATOM     12  C   UNL     1       6.941   5.683  16.765  0.00  0.00    +0.000 A 
ATOM     13  N   UNL     1       7.304   5.598  15.421  0.00  0.00    +0.000 NA
ATOM     14  N   UNL     1       6.576   4.713  14.764  0.00  0.00    +0.000 NA
ATOM     15  S   UNL     1       5.494   3.911  15.748  0.00  0.00    +0.000 S 
ATOM     16  C   UNL     1       5.849   4.898  17.113  0.00  0.00    +0.000 A 
BRANCH  12  17
ATOM     17  C   UNL     1       7.758   6.587  17.636  0.00  0.00    +0.000 C 
BRANCH  17  19
ATOM     18  C   UNL     1       8.427   8.971  18.230  0.00  0.00    +0.000 C 
ATOM     19  C   UNL     1       7.545   8.079  17.370  0.00  0.00    +0.000 C 
ENDBRANCH  17  19
ENDBRANCH  12  17
ENDBRANCH   1  16
BRANCH   8  20
ATOM     20  C   UNL     1       0.392  10.382  18.399  0.00  0.00    +0.000 C 
BRANCH  20  21
ATOM     21  O   UNL     1      -0.944  10.111  18.851  0.00  0.00    +0.000 OA
ATOM     22  H   UNL     1      -0.812   9.755  19.758  0.00  0.00    +0.000 HD
ENDBRANCH  20  21
BRANCH  20  23
ATOM     23  C   UNL     1       0.924  11.608  19.187  0.00  0.00    +0.000 C 
BRANCH  23  24
ATOM     24  N   UNL     1       1.230  12.841  18.419  0.00  0.00    +0.000 NA
ATOM     25  C   UNL     1       0.666  14.036  19.043  0.00  0.00    +0.000 C 
ATOM     26  C   UNL     1       2.683  12.985  18.287  0.00  0.00    +0.000 C 
ENDBRANCH  23  24
ENDBRANCH  20  23
ENDBRANCH   8  20
TORSDOF 7
ENDMDL
MODEL 9
REMARK VINA RESULT:      -6.0      2.925      8.077
REMARK  Name = 
REMARK  10 active torsions:
REMARK  status: ('A' for Active; 'I' for Inactive)
REMARK    1  A    between atoms: C_1  and  C_2
REMARK    2  A    between atoms: C_2  and  C_3
REMARK    3  A    between atoms: C_3  and  C_4
REMARK    4  A    between atoms: C_8  and  C_9
REMARK    5  A    between atoms: C_16  and  C_17
REMARK    6  A    between atoms: C_17  and  O_18
REMARK    7  A    between atoms: C_17  and  C_19
REMARK    8  A    between atoms: C_19  and  N_20
REMARK    9  A    between atoms: N_20  and  C_21
REMARK   10  A    between atoms: N_20  and  C_22
REMARK                            x       y       z     vdW  Elec       q    Type
REMARK                         _______ _______ _______ _____ _____    ______ ____
ROOT
ATOM      1  C   UNL     1      -0.045  11.024  20.744  0.00  0.00    +0.000 C 
ATOM      2  O   UNL     1      -0.826  11.044  21.697  0.00  0.00    +0.000 OA
ATOM      3  N   UNL     1       0.674   9.841  20.436  0.00  0.00    +0.000 N 
ATOM      4  C   UNL     1       0.456   8.678  21.311  0.00  0.00    +0.000 C 
ATOM      5  C   UNL     1       1.558   7.621  21.231  0.00  0.00    +0.000 C 
ATOM      6  N   UNL     1       2.069   7.492  19.883  0.00  0.00    +0.000 N 
ATOM      7  N   UNL     1       2.895   6.486  19.535  0.00  0.00    +0.000 NA
ATOM      8  C   UNL     1       3.213   6.775  18.255  0.00  0.00    +0.000 A 
ATOM      9  C   UNL     1       2.625   7.987  17.833  0.00  0.00    +0.000 A 
ATOM     10  C   UNL     1       1.848   8.398  18.888  0.00  0.00    +0.000 A 
ATOM     11  C   UNL     1       0.918   9.527  19.028  0.00  0.00    +0.000 C 
ENDROOT
BRANCH   1  16
ATOM     12  C   UNL     1      -0.635  12.764  18.930  0.00  0.00    +0.000 A 
ATOM     13  N   UNL     1      -0.064  13.877  18.313  0.00  0.00    +0.000 NA
ATOM     14  N   UNL     1       1.095  14.206  18.853  0.00  0.00    +0.000 NA
ATOM     15  S   UNL     1       1.497  13.241  20.153  0.00  0.00    +0.000 S 
ATOM     16  C   UNL     1       0.160  12.184  19.911  0.00  0.00    +0.000 A 
BRANCH  12  17
ATOM     17  C   UNL     1      -1.998  12.349  18.467  0.00  0.00    +0.000 C 
BRANCH  17  19
ATOM     18  C   UNL     1      -2.642   9.960  17.866  0.00  0.00    +0.000 C 
ATOM     19  C   UNL     1      -1.993  11.254  17.398  0.00  0.00    +0.000 C 
ENDBRANCH  17  19
ENDBRANCH  12  17
ENDBRANCH   1  16
BRANCH   8  20
ATOM     20  C   UNL     1       4.089   5.860  17.445  0.00  0.00    +0.000 C 
BRANCH  20  21
ATOM     21  O   UNL     1       5.420   6.386  17.329  0.00  0.00    +0.000 OA
ATOM     22  H   UNL     1       5.984   5.670  17.697  0.00  0.00    +0.000 HD
ENDBRANCH  20  21
BRANCH  20  23
ATOM     23  C   UNL     1       4.188   4.441  18.066  0.00  0.00    +0.000 C 
BRANCH  23  24
ATOM     24  N   UNL     1       3.407   3.353  17.428  0.00  0.00    +0.000 NA
ATOM     25  C   UNL     1       3.629   2.060  18.071  0.00  0.00    +0.000 C 
ATOM     26  C   UNL     1       1.980   3.691  17.466  0.00  0.00    +0.000 C 
ENDBRANCH  23  24
ENDBRANCH  20  23
ENDBRANCH   8  20
TORSDOF 7
ENDMDL
