MODEL 1
REMARK VINA RESULT:      -8.1      0.000      0.000
REMARK  Name = 
REMARK  9 active torsions:
REMARK  status: ('A' for Active; 'I' for Inactive)
REMARK    1  A    between atoms: C_1  and  O_2
REMARK    2  A    between atoms: O_2  and  C_3
REMARK    3  A    between atoms: C_8  and  C_9
REMARK    4  A    between atoms: C_9  and  C_10
REMARK    5  A    between atoms: C_9  and  C_11
REMARK    6  A    between atoms: N_13  and  C_14
REMARK    7  A    between atoms: C_17  and  S_18
REMARK    8  A    between atoms: S_18  and  N_21
REMARK    9  A    between atoms: C_22  and  C_23
REMARK                            x       y       z     vdW  Elec       q    Type
REMARK                         _______ _______ _______ _____ _____    ______ ____
ROOT
ATOM      1  C   UNL     1      -0.528  10.715  18.550  0.00  0.00    +0.000 C 
ATOM      2  O   UNL     1      -1.208   9.817  18.049  0.00  0.00    +0.000 OA
ATOM      3  N   UNL     1       0.753  10.537  19.040  0.00  0.00    +0.000 N 
ATOM      4  H   UNL     1       1.039  11.177  19.772  0.00  0.00    +0.000 HD
ENDROOT
BRANCH   3   5
ATOM      5  C   UNL     1       1.430   9.300  18.971  0.00  0.00    +0.000 A 
ATOM      6  C   UNL     1       1.454   8.399  20.045  0.00  0.00    +0.000 A 
ATOM      7  C   UNL     1       2.127   7.176  19.933  0.00  0.00    +0.000 A 
ATOM      8  C   UNL     1       2.799   6.868  18.749  0.00  0.00    +0.000 A 
ATOM      9  C   UNL     1       2.806   7.775  17.687  0.00  0.00    +0.000 A 
ATOM     10  C   UNL     1       2.086   8.969  17.783  0.00  0.00    +0.000 A 
BRANCH   8  11
ATOM     11  S   UNL     1       3.717   5.353  18.607  0.00  0.00    +0.000 S 
ATOM     12  O   UNL     1       4.065   5.134  17.220  0.00  0.00    +0.000 OA
ATOM     13  O   UNL     1       4.742   5.363  19.633  0.00  0.00    +0.000 OA
BRANCH  11  14
ATOM     14  N   UNL     1       2.641   4.181  19.090  0.00  0.00    +0.000 N 
ATOM     15  C   UNL     1       1.531   3.750  18.359  0.00  0.00    +0.000 C 
ATOM     16  C   UNL     1       0.756   2.622  18.980  0.00  0.00    +0.000 C 
ATOM     17  O   UNL     1       1.175   4.261  17.304  0.00  0.00    +0.000 OA
ATOM     18  H   UNL     1       2.888   3.768  19.983  0.00  0.00    +0.000 HD
ENDBRANCH  11  14
ENDBRANCH   8  11
ENDBRANCH   3   5
BRANCH   1  19
ATOM     19  C   UNL     1      -1.064  12.149  18.587  0.00  0.00    +0.000 C 
ATOM     20  C   UNL     1       0.059  13.041  19.128  0.00  0.00    +0.000 C 
BRANCH  19  26
ATOM     21  C   UNL     1      -6.230  12.859  22.633  0.00  0.00    +0.000 A 
ATOM     22  C   UNL     1      -5.069  13.247  23.296  0.00  0.00    +0.000 A 
ATOM     23  C   UNL     1      -3.836  13.229  22.628  0.00  0.00    +0.000 A 
ATOM     24  C   UNL     1      -3.741  12.825  21.285  0.00  0.00    +0.000 A 
ATOM     25  C   UNL     1      -2.509  12.765  20.595  0.00  0.00    +0.000 A 
ATOM     26  C   UNL     1      -2.426  12.335  19.256  0.00  0.00    +0.000 A 
ATOM     27  C   UNL     1      -3.622  11.971  18.616  0.00  0.00    +0.000 A 
ATOM     28  C   UNL     1      -4.848  12.023  19.285  0.00  0.00    +0.000 A 
ATOM     29  C   UNL     1      -4.923  12.440  20.618  0.00  0.00    +0.000 A 
ATOM     30  C   UNL     1      -6.149  12.463  21.299  0.00  0.00    +0.000 A 
BRANCH  21  32
ATOM     31  C   UNL     1      -7.740  13.632  24.304  0.00  0.00    +0.000 C 
ATOM     32  O   UNL     1      -7.491  12.823  23.160  0.00  0.00    +0.000 OA
ENDBRANCH  21  32
ENDBRANCH  19  26
ENDBRANCH   1  19
TORSDOF 6
ENDMDL
MODEL 2
REMARK VINA RESULT:      -7.9      2.542      3.603
REMARK  Name = 
REMARK  9 active torsions:
REMARK  status: ('A' for Active; 'I' for Inactive)
REMARK    1  A    between atoms: C_1  and  O_2
REMARK    2  A    between atoms: O_2  and  C_3
REMARK    3  A    between atoms: C_8  and  C_9
REMARK    4  A    between atoms: C_9  and  C_10
REMARK    5  A    between atoms: C_9  and  C_11
REMARK    6  A    between atoms: N_13  and  C_14
REMARK    7  A    between atoms: C_17  and  S_18
REMARK    8  A    between atoms: S_18  and  N_21
REMARK    9  A    between atoms: C_22  and  C_23
REMARK                            x       y       z     vdW  Elec       q    Type
REMARK                         _______ _______ _______ _____ _____    ______ ____
ROOT
ATOM      1  C   UNL     1       1.415   9.793  18.876  0.00  0.00    +0.000 C 
ATOM      2  O   UNL     1       2.045   9.970  17.830  0.00  0.00    +0.000 OA
ATOM      3  N   UNL     1       1.435   8.619  19.606  0.00  0.00    +0.000 N 
ATOM      4  H   UNL     1       0.610   8.432  20.165  0.00  0.00    +0.000 HD
ENDROOT
BRANCH   3   5
ATOM      5  C   UNL     1       2.226   7.508  19.240  0.00  0.00    +0.000 A 
ATOM      6  C   UNL     1       2.266   6.334  20.005  0.00  0.00    +0.000 A 
ATOM      7  C   UNL     1       3.054   5.248  19.602  0.00  0.00    +0.000 A 
ATOM      8  C   UNL     1       3.823   5.352  18.441  0.00  0.00    +0.000 A 
ATOM      9  C   UNL     1       3.813   6.531  17.693  0.00  0.00    +0.000 A 
ATOM     10  C   UNL     1       2.982   7.590  18.068  0.00  0.00    +0.000 A 
BRANCH   8  11
ATOM     11  S   UNL     1       4.884   4.015  17.946  0.00  0.00    +0.000 S 
ATOM     12  O   UNL     1       6.069   4.014  18.776  0.00  0.00    +0.000 OA
ATOM     13  O   UNL     1       4.065   2.825  17.828  0.00  0.00    +0.000 OA
BRANCH  11  14
ATOM     14  N   UNL     1       5.313   4.395  16.386  0.00  0.00    +0.000 N 
ATOM     15  C   UNL     1       6.621   4.550  15.920  0.00  0.00    +0.000 C 
ATOM     16  C   UNL     1       6.747   4.820  14.447  0.00  0.00    +0.000 C 
ATOM     17  O   UNL     1       7.607   4.507  16.645  0.00  0.00    +0.000 OA
ATOM     18  H   UNL     1       4.511   4.479  15.769  0.00  0.00    +0.000 HD
ENDBRANCH  11  14
ENDBRANCH   8  11
ENDBRANCH   3   5
BRANCH   1  19
ATOM     19  C   UNL     1       0.605  10.944  19.483  0.00  0.00    +0.000 C 
ATOM     20  C   UNL     1       0.736  10.838  21.006  0.00  0.00    +0.000 C 
BRANCH  19  26
ATOM     21  C   UNL     1      -5.820  12.075  18.484  0.00  0.00    +0.000 A 
ATOM     22  C   UNL     1      -5.371  12.865  19.539  0.00  0.00    +0.000 A 
ATOM     23  C   UNL     1      -4.021  12.836  19.917  0.00  0.00    +0.000 A 
ATOM     24  C   UNL     1      -3.094  12.020  19.246  0.00  0.00    +0.000 A 
ATOM     25  C   UNL     1      -1.734  11.946  19.624  0.00  0.00    +0.000 A 
ATOM     26  C   UNL     1      -0.821  11.105  18.958  0.00  0.00    +0.000 A 
ATOM     27  C   UNL     1      -1.308  10.338  17.887  0.00  0.00    +0.000 A 
ATOM     28  C   UNL     1      -2.650  10.400  17.501  0.00  0.00    +0.000 A 
ATOM     29  C   UNL     1      -3.554  11.228  18.173  0.00  0.00    +0.000 A 
ATOM     30  C   UNL     1      -4.908  11.266  17.807  0.00  0.00    +0.000 A 
BRANCH  21  32
ATOM     31  C   UNL     1      -7.874  13.194  18.044  0.00  0.00    +0.000 C 
ATOM     32  O   UNL     1      -7.102  12.000  18.016  0.00  0.00    +0.000 OA
ENDBRANCH  21  32
ENDBRANCH  19  26
ENDBRANCH   1  19
TORSDOF 6
ENDMDL
MODEL 3
REMARK VINA RESULT:      -7.9      0.655      1.390
REMARK  Name = 
REMARK  9 active torsions:
REMARK  status: ('A' for Active; 'I' for Inactive)
REMARK    1  A    between atoms: C_1  and  O_2
REMARK    2  A    between atoms: O_2  and  C_3
REMARK    3  A    between atoms: C_8  and  C_9
REMARK    4  A    between atoms: C_9  and  C_10
REMARK    5  A    between atoms: C_9  and  C_11
REMARK    6  A    between atoms: N_13  and  C_14
REMARK    7  A    between atoms: C_17  and  S_18
REMARK    8  A    between atoms: S_18  and  N_21
REMARK    9  A    between atoms: C_22  and  C_23
REMARK                            x       y       z     vdW  Elec       q    Type
REMARK                         _______ _______ _______ _____ _____    ______ ____
ROOT
ATOM      1  C   UNL     1      -0.240  10.641  18.618  0.00  0.00    +0.000 C 
ATOM      2  O   UNL     1      -0.801   9.896  17.809  0.00  0.00    +0.000 OA
ATOM      3  N   UNL     1       0.908  10.309  19.311  0.00  0.00    +0.000 N 
ATOM      4  H   UNL     1       1.034  10.771  20.205  0.00  0.00    +0.000 HD
ENDROOT
BRANCH   3   5
ATOM      5  C   UNL     1       1.584   9.083  19.124  0.00  0.00    +0.000 A 
ATOM      6  C   UNL     1       1.609   8.084  20.108  0.00  0.00    +0.000 A 
ATOM      7  C   UNL     1       2.280   6.876  19.879  0.00  0.00    +0.000 A 
ATOM      8  C   UNL     1       2.950   6.681  18.670  0.00  0.00    +0.000 A 
ATOM      9  C   UNL     1       2.957   7.686  17.699  0.00  0.00    +0.000 A 
ATOM     10  C   UNL     1       2.238   8.866  17.909  0.00  0.00    +0.000 A 
BRANCH   8  11
ATOM     11  S   UNL     1       3.867   5.187  18.384  0.00  0.00    +0.000 S 
ATOM     12  O   UNL     1       4.122   5.047  16.967  0.00  0.00    +0.000 OA
ATOM     13  O   UNL     1       4.958   5.150  19.338  0.00  0.00    +0.000 OA
BRANCH  11  14
ATOM     14  N   UNL     1       2.833   3.979  18.871  0.00  0.00    +0.000 N 
ATOM     15  C   UNL     1       1.633   3.637  18.243  0.00  0.00    +0.000 C 
ATOM     16  C   UNL     1       0.917   2.456  18.835  0.00  0.00    +0.000 C 
ATOM     17  O   UNL     1       1.162   4.260  17.300  0.00  0.00    +0.000 OA
ATOM     18  H   UNL     1       3.179   3.471  19.680  0.00  0.00    +0.000 HD
ENDBRANCH  11  14
ENDBRANCH   8  11
ENDBRANCH   3   5
BRANCH   1  19
ATOM     19  C   UNL     1      -0.772  12.059  18.844  0.00  0.00    +0.000 C 
ATOM     20  C   UNL     1       0.443  12.982  18.987  0.00  0.00    +0.000 C 
BRANCH  19  26
ATOM     21  C   UNL     1      -6.133  13.197  22.522  0.00  0.00    +0.000 A 
ATOM     22  C   UNL     1      -6.512  13.040  21.191  0.00  0.00    +0.000 A 
ATOM     23  C   UNL     1      -5.550  12.743  20.215  0.00  0.00    +0.000 A 
ATOM     24  C   UNL     1      -4.193  12.596  20.550  0.00  0.00    +0.000 A 
ATOM     25  C   UNL     1      -3.196  12.328  19.584  0.00  0.00    +0.000 A 
ATOM     26  C   UNL     1      -1.837  12.207  19.931  0.00  0.00    +0.000 A 
ATOM     27  C   UNL     1      -1.497  12.352  21.286  0.00  0.00    +0.000 A 
ATOM     28  C   UNL     1      -2.471  12.617  22.254  0.00  0.00    +0.000 A 
ATOM     29  C   UNL     1      -3.818  12.748  21.901  0.00  0.00    +0.000 A 
ATOM     30  C   UNL     1      -4.790  13.046  22.868  0.00  0.00    +0.000 A 
BRANCH  21  32
ATOM     31  C   UNL     1      -7.235  14.865  23.814  0.00  0.00    +0.000 C 
ATOM     32  O   UNL     1      -6.959  13.491  23.571  0.00  0.00    +0.000 OA
ENDBRANCH  21  32
ENDBRANCH  19  26
ENDBRANCH   1  19
TORSDOF 6
ENDMDL
MODEL 4
REMARK VINA RESULT:      -7.8      3.318     10.113
REMARK  Name = 
REMARK  9 active torsions:
REMARK  status: ('A' for Active; 'I' for Inactive)
REMARK    1  A    between atoms: C_1  and  O_2
REMARK    2  A    between atoms: O_2  and  C_3
REMARK    3  A    between atoms: C_8  and  C_9
REMARK    4  A    between atoms: C_9  and  C_10
REMARK    5  A    between atoms: C_9  and  C_11
REMARK    6  A    between atoms: N_13  and  C_14
REMARK    7  A    between atoms: C_17  and  S_18
REMARK    8  A    between atoms: S_18  and  N_21
REMARK    9  A    between atoms: C_22  and  C_23
REMARK                            x       y       z     vdW  Elec       q    Type
REMARK                         _______ _______ _______ _____ _____    ______ ____
ROOT
ATOM      1  C   UNL     1       0.505  10.405  19.667  0.00  0.00    +0.000 C 
ATOM      2  O   UNL     1      -0.543   9.992  19.162  0.00  0.00    +0.000 OA
ATOM      3  N   UNL     1       0.559  11.238  20.768  0.00  0.00    +0.000 N 
ATOM      4  H   UNL     1       1.380  11.830  20.834  0.00  0.00    +0.000 HD
ENDROOT
BRANCH   3   5
ATOM      5  C   UNL     1      -0.596  11.668  21.457  0.00  0.00    +0.000 A 
ATOM      6  C   UNL     1      -1.424  12.689  20.966  0.00  0.00    +0.000 A 
ATOM      7  C   UNL     1      -2.568  13.079  21.672  0.00  0.00    +0.000 A 
ATOM      8  C   UNL     1      -2.869  12.460  22.888  0.00  0.00    +0.000 A 
ATOM      9  C   UNL     1      -2.031  11.466  23.398  0.00  0.00    +0.000 A 
ATOM     10  C   UNL     1      -0.921  11.042  22.662  0.00  0.00    +0.000 A 
BRANCH   8  11
ATOM     11  S   UNL     1      -4.276  12.985  23.836  0.00  0.00    +0.000 S 
ATOM     12  O   UNL     1      -4.272  12.304  25.113  0.00  0.00    +0.000 OA
ATOM     13  O   UNL     1      -4.336  14.432  23.772  0.00  0.00    +0.000 OA
BRANCH  11  14
ATOM     14  N   UNL     1      -5.581  12.464  22.947  0.00  0.00    +0.000 N 
ATOM     15  C   UNL     1      -6.922  12.632  23.301  0.00  0.00    +0.000 C 
ATOM     16  C   UNL     1      -7.916  12.137  22.289  0.00  0.00    +0.000 C 
ATOM     17  O   UNL     1      -7.285  13.113  24.367  0.00  0.00    +0.000 OA
ATOM     18  H   UNL     1      -5.307  12.022  22.075  0.00  0.00    +0.000 HD
ENDBRANCH  11  14
ENDBRANCH   8  11
ENDBRANCH   3   5
BRANCH   1  19
ATOM     19  C   UNL     1       1.854   9.931  19.119  0.00  0.00    +0.000 C 
ATOM     20  C   UNL     1       2.165  10.779  17.880  0.00  0.00    +0.000 C 
BRANCH  19  26
ATOM     21  C   UNL     1       2.589   3.396  19.677  0.00  0.00    +0.000 A 
ATOM     22  C   UNL     1       2.058   3.903  20.861  0.00  0.00    +0.000 A 
ATOM     23  C   UNL     1       1.767   5.270  20.974  0.00  0.00    +0.000 A 
ATOM     24  C   UNL     1       1.999   6.155  19.907  0.00  0.00    +0.000 A 
ATOM     25  C   UNL     1       1.746   7.543  20.003  0.00  0.00    +0.000 A 
ATOM     26  C   UNL     1       2.006   8.421  18.933  0.00  0.00    +0.000 A 
ATOM     27  C   UNL     1       2.523   7.869  17.750  0.00  0.00    +0.000 A 
ATOM     28  C   UNL     1       2.779   6.499  17.640  0.00  0.00    +0.000 A 
ATOM     29  C   UNL     1       2.529   5.633  18.709  0.00  0.00    +0.000 A 
ATOM     30  C   UNL     1       2.817   4.263  18.610  0.00  0.00    +0.000 A 
BRANCH  21  32
ATOM     31  C   UNL     1       3.631   1.820  18.229  0.00  0.00    +0.000 C 
ATOM     32  O   UNL     1       2.923   2.093  19.432  0.00  0.00    +0.000 OA
ENDBRANCH  21  32
ENDBRANCH  19  26
ENDBRANCH   1  19
TORSDOF 6
ENDMDL
MODEL 5
REMARK VINA RESULT:      -7.8      0.973      1.078
REMARK  Name = 
REMARK  9 active torsions:
REMARK  status: ('A' for Active; 'I' for Inactive)
REMARK    1  A    between atoms: C_1  and  O_2
REMARK    2  A    between atoms: O_2  and  C_3
REMARK    3  A    between atoms: C_8  and  C_9
REMARK    4  A    between atoms: C_9  and  C_10
REMARK    5  A    between atoms: C_9  and  C_11
REMARK    6  A    between atoms: N_13  and  C_14
REMARK    7  A    between atoms: C_17  and  S_18
REMARK    8  A    between atoms: S_18  and  N_21
REMARK    9  A    between atoms: C_22  and  C_23
REMARK                            x       y       z     vdW  Elec       q    Type
REMARK                         _______ _______ _______ _____ _____    ______ ____
ROOT
ATOM      1  C   UNL     1      -0.403  11.005  19.081  0.00  0.00    +0.000 C 
ATOM      2  O   UNL     1      -1.119  10.250  18.417  0.00  0.00    +0.000 OA
ATOM      3  N   UNL     1       0.826  10.648  19.603  0.00  0.00    +0.000 N 
ATOM      4  H   UNL     1       1.114  11.149  20.437  0.00  0.00    +0.000 HD
ENDROOT
BRANCH   3   5
ATOM      5  C   UNL     1       1.408   9.380  19.385  0.00  0.00    +0.000 A 
ATOM      6  C   UNL     1       1.439   8.390  20.378  0.00  0.00    +0.000 A 
ATOM      7  C   UNL     1       2.015   7.140  20.119  0.00  0.00    +0.000 A 
ATOM      8  C   UNL     1       2.584   6.892  18.868  0.00  0.00    +0.000 A 
ATOM      9  C   UNL     1       2.585   7.885  17.886  0.00  0.00    +0.000 A 
ATOM     10  C   UNL     1       1.959   9.111  18.131  0.00  0.00    +0.000 A 
BRANCH   8  11
ATOM     11  S   UNL     1       3.381   5.340  18.539  0.00  0.00    +0.000 S 
ATOM     12  O   UNL     1       3.871   5.334  17.177  0.00  0.00    +0.000 OA
ATOM     13  O   UNL     1       4.275   5.060  19.645  0.00  0.00    +0.000 OA
BRANCH  11  14
ATOM     14  N   UNL     1       2.161   4.219  18.682  0.00  0.00    +0.000 N 
ATOM     15  C   UNL     1       2.308   2.838  18.533  0.00  0.00    +0.000 C 
ATOM     16  C   UNL     1       1.065   2.033  18.786  0.00  0.00    +0.000 C 
ATOM     17  O   UNL     1       3.354   2.302  18.188  0.00  0.00    +0.000 OA
ATOM     18  H   UNL     1       1.270   4.641  18.926  0.00  0.00    +0.000 HD
ENDBRANCH  11  14
ENDBRANCH   8  11
ENDBRANCH   3   5
BRANCH   1  19
ATOM     19  C   UNL     1      -0.828  12.459  19.304  0.00  0.00    +0.000 C 
ATOM     20  C   UNL     1       0.408  13.224  19.790  0.00  0.00    +0.000 C 
BRANCH  19  26
ATOM     21  C   UNL     1      -5.577  12.724  23.879  0.00  0.00    +0.000 A 
ATOM     22  C   UNL     1      -4.338  12.626  24.506  0.00  0.00    +0.000 A 
ATOM     23  C   UNL     1      -3.162  12.600  23.743  0.00  0.00    +0.000 A 
ATOM     24  C   UNL     1      -3.202  12.672  22.340  0.00  0.00    +0.000 A 
ATOM     25  C   UNL     1      -2.036  12.616  21.543  0.00  0.00    +0.000 A 
ATOM     26  C   UNL     1      -2.093  12.665  20.136  0.00  0.00    +0.000 A 
ATOM     27  C   UNL     1      -3.361  12.783  19.542  0.00  0.00    +0.000 A 
ATOM     28  C   UNL     1      -4.523  12.840  20.316  0.00  0.00    +0.000 A 
ATOM     29  C   UNL     1      -4.461  12.779  21.712  0.00  0.00    +0.000 A 
ATOM     30  C   UNL     1      -5.629  12.804  22.488  0.00  0.00    +0.000 A 
BRANCH  21  32
ATOM     31  C   UNL     1      -7.916  13.135  23.703  0.00  0.00    +0.000 C 
ATOM     32  O   UNL     1      -6.797  12.754  24.495  0.00  0.00    +0.000 OA
ENDBRANCH  21  32
ENDBRANCH  19  26
ENDBRANCH   1  19
TORSDOF 6
ENDMDL
MODEL 6
REMARK VINA RESULT:      -7.8      2.416      3.560
REMARK  Name = 
REMARK  9 active torsions:
REMARK  status: ('A' for Active; 'I' for Inactive)
REMARK    1  A    between atoms: C_1  and  O_2
REMARK    2  A    between atoms: O_2  and  C_3
REMARK    3  A    between atoms: C_8  and  C_9
REMARK    4  A    between atoms: C_9  and  C_10
REMARK    5  A    between atoms: C_9  and  C_11
REMARK    6  A    between atoms: N_13  and  C_14
REMARK    7  A    between atoms: C_17  and  S_18
REMARK    8  A    between atoms: S_18  and  N_21
REMARK    9  A    between atoms: C_22  and  C_23
REMARK                            x       y       z     vdW  Elec       q    Type
REMARK                         _______ _______ _______ _____ _____    ______ ____
ROOT
ATOM      1  C   UNL     1       0.619   9.421  20.328  0.00  0.00    +0.000 C 
ATOM      2  O   UNL     1       0.013   8.591  21.010  0.00  0.00    +0.000 OA
ATOM      3  N   UNL     1       1.683   9.118  19.500  0.00  0.00    +0.000 N 
ATOM      4  H   UNL     1       2.343   9.870  19.334  0.00  0.00    +0.000 HD
ENDROOT
BRANCH   3   5
ATOM      5  C   UNL     1       2.157   7.800  19.320  0.00  0.00    +0.000 A 
ATOM      6  C   UNL     1       2.073   6.830  20.330  0.00  0.00    +0.000 A 
ATOM      7  C   UNL     1       2.544   5.530  20.110  0.00  0.00    +0.000 A 
ATOM      8  C   UNL     1       3.124   5.209  18.880  0.00  0.00    +0.000 A 
ATOM      9  C   UNL     1       3.240   6.179  17.882  0.00  0.00    +0.000 A 
ATOM     10  C   UNL     1       2.717   7.459  18.087  0.00  0.00    +0.000 A 
BRANCH   8  11
ATOM     11  S   UNL     1       3.791   3.587  18.600  0.00  0.00    +0.000 S 
ATOM     12  O   UNL     1       3.994   2.928  19.873  0.00  0.00    +0.000 OA
ATOM     13  O   UNL     1       2.998   2.958  17.562  0.00  0.00    +0.000 OA
BRANCH  11  14
ATOM     14  N   UNL     1       5.269   3.873  17.894  0.00  0.00    +0.000 N 
ATOM     15  C   UNL     1       6.338   4.543  18.495  0.00  0.00    +0.000 C 
ATOM     16  C   UNL     1       7.594   4.605  17.674  0.00  0.00    +0.000 C 
ATOM     17  O   UNL     1       6.268   5.078  19.594  0.00  0.00    +0.000 OA
ATOM     18  H   UNL     1       5.340   3.476  16.963  0.00  0.00    +0.000 HD
ENDBRANCH  11  14
ENDBRANCH   8  11
ENDBRANCH   3   5
BRANCH   1  19
ATOM     19  C   UNL     1       0.151  10.880  20.308  0.00  0.00    +0.000 C 
ATOM     20  C   UNL     1       0.164  11.381  21.757  0.00  0.00    +0.000 C 
BRANCH  19  26
ATOM     21  C   UNL     1      -5.912  12.397  18.186  0.00  0.00    +0.000 A 
ATOM     22  C   UNL     1      -5.665  13.056  19.388  0.00  0.00    +0.000 A 
ATOM     23  C   UNL     1      -4.420  12.928  20.020  0.00  0.00    +0.000 A 
ATOM     24  C   UNL     1      -3.397  12.142  19.462  0.00  0.00    +0.000 A 
ATOM     25  C   UNL     1      -2.144  11.968  20.092  0.00  0.00    +0.000 A 
ATOM     26  C   UNL     1      -1.137  11.157  19.533  0.00  0.00    +0.000 A 
ATOM     27  C   UNL     1      -1.417  10.524  18.310  0.00  0.00    +0.000 A 
ATOM     28  C   UNL     1      -2.652  10.685  17.676  0.00  0.00    +0.000 A 
ATOM     29  C   UNL     1      -3.652  11.483  18.241  0.00  0.00    +0.000 A 
ATOM     30  C   UNL     1      -4.903  11.619  17.620  0.00  0.00    +0.000 A 
BRANCH  21  32
ATOM     31  C   UNL     1      -7.345  13.607  16.721  0.00  0.00    +0.000 C 
ATOM     32  O   UNL     1      -7.075  12.428  17.469  0.00  0.00    +0.000 OA
ENDBRANCH  21  32
ENDBRANCH  19  26
ENDBRANCH   1  19
TORSDOF 6
ENDMDL
MODEL 7
REMARK VINA RESULT:      -7.7      1.197      1.964
REMARK  Name = 
REMARK  9 active torsions:
REMARK  status: ('A' for Active; 'I' for Inactive)
REMARK    1  A    between atoms: C_1  and  O_2
REMARK    2  A    between atoms: O_2  and  C_3
REMARK    3  A    between atoms: C_8  and  C_9
REMARK    4  A    between atoms: C_9  and  C_10
REMARK    5  A    between atoms: C_9  and  C_11
REMARK    6  A    between atoms: N_13  and  C_14
REMARK    7  A    between atoms: C_17  and  S_18
REMARK    8  A    between atoms: S_18  and  N_21
REMARK    9  A    between atoms: C_22  and  C_23
REMARK                            x       y       z     vdW  Elec       q    Type
REMARK                         _______ _______ _______ _____ _____    ______ ____
ROOT
ATOM      1  C   UNL     1      -0.600  10.966  18.568  0.00  0.00    +0.000 C 
ATOM      2  O   UNL     1      -1.312  10.073  18.099  0.00  0.00    +0.000 OA
ATOM      3  N   UNL     1       0.678  10.764  19.053  0.00  0.00    +0.000 N 
ATOM      4  H   UNL     1       0.990  11.417  19.763  0.00  0.00    +0.000 HD
ENDROOT
BRANCH   3   5
ATOM      5  C   UNL     1       1.317   9.504  19.017  0.00  0.00    +0.000 A 
ATOM      6  C   UNL     1       1.978   9.033  17.874  0.00  0.00    +0.000 A 
ATOM      7  C   UNL     1       2.610   7.783  17.881  0.00  0.00    +0.000 A 
ATOM      8  C   UNL     1       2.555   6.994  19.032  0.00  0.00    +0.000 A 
ATOM      9  C   UNL     1       1.870   7.443  20.163  0.00  0.00    +0.000 A 
ATOM     10  C   UNL     1       1.290   8.715  20.169  0.00  0.00    +0.000 A 
BRANCH   8  11
ATOM     11  S   UNL     1       3.289   5.376  19.043  0.00  0.00    +0.000 S 
ATOM     12  O   UNL     1       3.111   4.761  17.746  0.00  0.00    +0.000 OA
ATOM     13  O   UNL     1       4.611   5.496  19.628  0.00  0.00    +0.000 OA
BRANCH  11  14
ATOM     14  N   UNL     1       2.399   4.536  20.169  0.00  0.00    +0.000 N 
ATOM     15  C   UNL     1       2.632   3.216  20.566  0.00  0.00    +0.000 C 
ATOM     16  C   UNL     1       1.732   2.709  21.656  0.00  0.00    +0.000 C 
ATOM     17  O   UNL     1       3.479   2.495  20.052  0.00  0.00    +0.000 OA
ATOM     18  H   UNL     1       1.661   5.097  20.582  0.00  0.00    +0.000 HD
ENDBRANCH  11  14
ENDBRANCH   8  11
ENDBRANCH   3   5
BRANCH   1  19
ATOM     19  C   UNL     1      -1.093  12.416  18.565  0.00  0.00    +0.000 C 
ATOM     20  C   UNL     1       0.140  13.314  18.417  0.00  0.00    +0.000 C 
BRANCH  19  26
ATOM     21  C   UNL     1      -6.192  13.821  22.512  0.00  0.00    +0.000 A 
ATOM     22  C   UNL     1      -6.616  12.963  21.499  0.00  0.00    +0.000 A 
ATOM     23  C   UNL     1      -5.698  12.482  20.554  0.00  0.00    +0.000 A 
ATOM     24  C   UNL     1      -4.342  12.847  20.603  0.00  0.00    +0.000 A 
ATOM     25  C   UNL     1      -3.401  12.405  19.645  0.00  0.00    +0.000 A 
ATOM     26  C   UNL     1      -2.050  12.798  19.694  0.00  0.00    +0.000 A 
ATOM     27  C   UNL     1      -1.658  13.649  20.741  0.00  0.00    +0.000 A 
ATOM     28  C   UNL     1      -2.576  14.096  21.695  0.00  0.00    +0.000 A 
ATOM     29  C   UNL     1      -3.920  13.711  21.635  0.00  0.00    +0.000 A 
ATOM     30  C   UNL     1      -4.848  14.185  22.574  0.00  0.00    +0.000 A 
BRANCH  21  32
ATOM     31  C   UNL     1      -7.647  13.467  24.363  0.00  0.00    +0.000 C 
ATOM     32  O   UNL     1      -6.975  14.367  23.490  0.00  0.00    +0.000 OA
ENDBRANCH  21  32
ENDBRANCH  19  26
ENDBRANCH   1  19
TORSDOF 6
ENDMDL
MODEL 8
REMARK VINA RESULT:      -7.7      3.327     10.300
REMARK  Name = 
REMARK  9 active torsions:
REMARK  status: ('A' for Active; 'I' for Inactive)
REMARK    1  A    between atoms: C_1  and  O_2
REMARK    2  A    between atoms: O_2  and  C_3
REMARK    3  A    between atoms: C_8  and  C_9
REMARK    4  A    between atoms: C_9  and  C_10
REMARK    5  A    between atoms: C_9  and  C_11
REMARK    6  A    between atoms: N_13  and  C_14
REMARK    7  A    between atoms: C_17  and  S_18
REMARK    8  A    between atoms: S_18  and  N_21
REMARK    9  A    between atoms: C_22  and  C_23
REMARK                            x       y       z     vdW  Elec       q    Type
REMARK                         _______ _______ _______ _____ _____    ______ ____
ROOT
ATOM      1  C   UNL     1       0.386  10.194  19.744  0.00  0.00    +0.000 C 
ATOM      2  O   UNL     1      -0.682   9.914  19.192  0.00  0.00    +0.000 OA
ATOM      3  N   UNL     1       0.487  10.937  20.905  0.00  0.00    +0.000 N 
ATOM      4  H   UNL     1       1.355  11.447  21.029  0.00  0.00    +0.000 HD
ENDROOT
BRANCH   3   5
ATOM      5  C   UNL     1      -0.643  11.417  21.604  0.00  0.00    +0.000 A 
ATOM      6  C   UNL     1      -1.061  10.861  22.821  0.00  0.00    +0.000 A 
ATOM      7  C   UNL     1      -2.180  11.372  23.490  0.00  0.00    +0.000 A 
ATOM      8  C   UNL     1      -2.896  12.428  22.922  0.00  0.00    +0.000 A 
ATOM      9  C   UNL     1      -2.503  12.965  21.693  0.00  0.00    +0.000 A 
ATOM     10  C   UNL     1      -1.353  12.488  21.058  0.00  0.00    +0.000 A 
BRANCH   8  11
ATOM     11  S   UNL     1      -4.359  13.049  23.716  0.00  0.00    +0.000 S 
ATOM     12  O   UNL     1      -4.459  12.481  25.043  0.00  0.00    +0.000 OA
ATOM     13  O   UNL     1      -4.388  14.486  23.525  0.00  0.00    +0.000 OA
BRANCH  11  14
ATOM     14  N   UNL     1      -5.605  12.468  22.780  0.00  0.00    +0.000 N 
ATOM     15  C   UNL     1      -6.966  12.661  23.033  0.00  0.00    +0.000 C 
ATOM     16  C   UNL     1      -7.893  12.098  21.994  0.00  0.00    +0.000 C 
ATOM     17  O   UNL     1      -7.395  13.213  24.038  0.00  0.00    +0.000 OA
ATOM     18  H   UNL     1      -5.277  11.968  21.960  0.00  0.00    +0.000 HD
ENDBRANCH  11  14
ENDBRANCH   8  11
ENDBRANCH   3   5
BRANCH   1  19
ATOM     19  C   UNL     1       1.701   9.643  19.186  0.00  0.00    +0.000 C 
ATOM     20  C   UNL     1       1.811  10.115  17.732  0.00  0.00    +0.000 C 
BRANCH  19  26
ATOM     21  C   UNL     1       2.763   3.141  18.785  0.00  0.00    +0.000 A 
ATOM     22  C   UNL     1       3.198   3.752  17.611  0.00  0.00    +0.000 A 
ATOM     23  C   UNL     1       3.119   5.145  17.472  0.00  0.00    +0.000 A 
ATOM     24  C   UNL     1       2.607   5.954  18.501  0.00  0.00    +0.000 A 
ATOM     25  C   UNL     1       2.486   7.356  18.377  0.00  0.00    +0.000 A 
ATOM     26  C   UNL     1       1.948   8.151  19.408  0.00  0.00    +0.000 A 
ATOM     27  C   UNL     1       1.539   7.499  20.584  0.00  0.00    +0.000 A 
ATOM     28  C   UNL     1       1.651   6.113  20.722  0.00  0.00    +0.000 A 
ATOM     29  C   UNL     1       2.176   5.328  19.690  0.00  0.00    +0.000 A 
ATOM     30  C   UNL     1       2.260   3.933  19.816  0.00  0.00    +0.000 A 
BRANCH  21  32
ATOM     31  C   UNL     1       3.923   1.067  18.640  0.00  0.00    +0.000 C 
ATOM     32  O   UNL     1       2.776   1.801  19.053  0.00  0.00    +0.000 OA
ENDBRANCH  21  32
ENDBRANCH  19  26
ENDBRANCH   1  19
TORSDOF 6
ENDMDL
MODEL 9
REMARK VINA RESULT:      -7.7      1.451      2.219
REMARK  Name = 
REMARK  9 active torsions:
REMARK  status: ('A' for Active; 'I' for Inactive)
REMARK    1  A    between atoms: C_1  and  O_2
REMARK    2  A    between atoms: O_2  and  C_3
REMARK    3  A    between atoms: C_8  and  C_9
REMARK    4  A    between atoms: C_9  and  C_10
REMARK    5  A    between atoms: C_9  and  C_11
REMARK    6  A    between atoms: N_13  and  C_14
REMARK    7  A    between atoms: C_17  and  S_18
REMARK    8  A    between atoms: S_18  and  N_21
REMARK    9  A    between atoms: C_22  and  C_23
REMARK                            x       y       z     vdW  Elec       q    Type
REMARK                         _______ _______ _______ _____ _____    ______ ____
ROOT
ATOM      1  C   UNL     1       1.108  11.667  18.943  0.00  0.00    +0.000 C 
ATOM      2  O   UNL     1       2.244  11.811  18.484  0.00  0.00    +0.000 OA
ATOM      3  N   UNL     1       0.560  10.446  19.289  0.00  0.00    +0.000 N 
ATOM      4  H   UNL     1      -0.451  10.386  19.245  0.00  0.00    +0.000 HD
ENDROOT
BRANCH   3   5
ATOM      5  C   UNL     1       1.277   9.233  19.190  0.00  0.00    +0.000 A 
ATOM      6  C   UNL     1       1.855   8.802  17.987  0.00  0.00    +0.000 A 
ATOM      7  C   UNL     1       2.569   7.599  17.932  0.00  0.00    +0.000 A 
ATOM      8  C   UNL     1       2.681   6.814  19.082  0.00  0.00    +0.000 A 
ATOM      9  C   UNL     1       2.080   7.222  20.274  0.00  0.00    +0.000 A 
ATOM     10  C   UNL     1       1.417   8.450  20.338  0.00  0.00    +0.000 A 
BRANCH   8  11
ATOM     11  S   UNL     1       3.523   5.250  19.020  0.00  0.00    +0.000 S 
ATOM     12  O   UNL     1       3.206   4.586  17.774  0.00  0.00    +0.000 OA
ATOM     13  O   UNL     1       4.902   5.477  19.405  0.00  0.00    +0.000 OA
BRANCH  11  14
ATOM     14  N   UNL     1       2.864   4.387  20.279  0.00  0.00    +0.000 N 
ATOM     15  C   UNL     1       1.692   3.629  20.217  0.00  0.00    +0.000 C 
ATOM     16  C   UNL     1       1.349   2.879  21.473  0.00  0.00    +0.000 C 
ATOM     17  O   UNL     1       0.963   3.590  19.233  0.00  0.00    +0.000 OA
ATOM     18  H   UNL     1       3.427   4.435  21.122  0.00  0.00    +0.000 HD
ENDBRANCH  11  14
ENDBRANCH   8  11
ENDBRANCH   3   5
BRANCH   1  19
ATOM     19  C   UNL     1       0.240  12.895  19.233  0.00  0.00    +0.000 C 
ATOM     20  C   UNL     1       1.184  14.095  19.373  0.00  0.00    +0.000 C 
BRANCH  19  26
ATOM     21  C   UNL     1      -5.041  12.819  23.191  0.00  0.00    +0.000 A 
ATOM     22  C   UNL     1      -5.460  12.880  21.864  0.00  0.00    +0.000 A 
ATOM     23  C   UNL     1      -4.517  12.862  20.826  0.00  0.00    +0.000 A 
ATOM     24  C   UNL     1      -3.140  12.782  21.093  0.00  0.00    +0.000 A 
ATOM     25  C   UNL     1      -2.165  12.794  20.069  0.00  0.00    +0.000 A 
ATOM     26  C   UNL     1      -0.787  12.737  20.354  0.00  0.00    +0.000 A 
ATOM     27  C   UNL     1      -0.405  12.658  21.703  0.00  0.00    +0.000 A 
ATOM     28  C   UNL     1      -1.356  12.645  22.727  0.00  0.00    +0.000 A 
ATOM     29  C   UNL     1      -2.723  12.713  22.439  0.00  0.00    +0.000 A 
ATOM     30  C   UNL     1      -3.677  12.733  23.468  0.00  0.00    +0.000 A 
BRANCH  21  32
ATOM     31  C   UNL     1      -7.232  13.069  24.086  0.00  0.00    +0.000 C 
ATOM     32  O   UNL     1      -5.845  12.834  24.296  0.00  0.00    +0.000 OA
ENDBRANCH  21  32
ENDBRANCH  19  26
ENDBRANCH   1  19
TORSDOF 6
ENDMDL
