MODEL 1
REMARK VINA RESULT:      -9.4      0.000      0.000
REMARK  Name = 
REMARK  3 active torsions:
REMARK  status: ('A' for Active; 'I' for Inactive)
REMARK    1  A    between atoms: C_5  and  N_6
REMARK    2  A    between atoms: C_13  and  C_14
REMARK    3  A    between atoms: C_17  and  O_18
REMARK                            x       y       z     vdW  Elec       q    Type
REMARK                         _______ _______ _______ _____ _____    ______ ____
ROOT
ATOM      1  N   UNL     1       5.277   4.489  18.660  0.00  0.00    +0.000 N 
ATOM      2  C   UNL     1       4.777   3.447  19.376  0.00  0.00    +0.000 C 
ATOM      3  O   UNL     1       5.295   2.380  19.646  0.00  0.00    +0.000 OA
ATOM      4  C   UNL     1       3.454   3.844  19.835  0.00  0.00    +0.000 A 
ATOM      5  C   UNL     1       2.528   3.087  20.525  0.00  0.00    +0.000 A 
ATOM      6  C   UNL     1       1.342   3.718  20.875  0.00  0.00    +0.000 A 
ATOM      7  C   UNL     1       1.135   5.077  20.555  0.00  0.00    +0.000 A 
ATOM      8  C   UNL     1       2.081   5.853  19.837  0.00  0.00    +0.000 A 
ATOM      9  C   UNL     1       3.236   5.166  19.460  0.00  0.00    +0.000 A 
ATOM     10  C   UNL     1       4.403   5.542  18.631  0.00  0.00    +0.000 C 
ATOM     11  O   UNL     1       4.533   6.561  17.987  0.00  0.00    +0.000 OA
ENDROOT
BRANCH   1  16
ATOM     12  O   UNL     1       7.973   8.310  17.067  0.00  0.00    +0.000 OA
ATOM     13  C   UNL     1       7.595   7.176  17.350  0.00  0.00    +0.000 C 
ATOM     14  C   UNL     1       7.767   6.598  18.735  0.00  0.00    +0.000 C 
ATOM     15  C   UNL     1       7.721   5.082  18.741  0.00  0.00    +0.000 C 
ATOM     16  C   UNL     1       6.547   4.512  17.948  0.00  0.00    +0.000 C 
ATOM     17  C   UNL     1       6.361   5.174  16.590  0.00  0.00    +0.000 C 
ATOM     18  O   UNL     1       5.643   4.698  15.712  0.00  0.00    +0.000 OA
ATOM     19  N   UNL     1       6.966   6.395  16.414  0.00  0.00    +0.000 N 
ATOM     20  H   UNL     1       6.801   6.842  15.519  0.00  0.00    +0.000 HD
ENDBRANCH   1  16
BRANCH   8  21
ATOM     21  C   UNL     1       1.823   7.286  19.560  0.00  0.00    +0.000 A 
ATOM     22  C   UNL     1       1.951   7.828  18.267  0.00  0.00    +0.000 A 
ATOM     23  C   UNL     1       1.661   9.167  17.990  0.00  0.00    +0.000 A 
ATOM     24  C   UNL     1       1.309  10.015  19.028  0.00  0.00    +0.000 A 
ATOM     25  C   UNL     1       1.224   9.535  20.327  0.00  0.00    +0.000 A 
ATOM     26  C   UNL     1       1.463   8.181  20.586  0.00  0.00    +0.000 A 
BRANCH  24  27
ATOM     27  O   UNL     1       1.049  11.333  18.810  0.00  0.00    +0.000 OA
ATOM     28  H   UNL     1       1.776  11.702  18.282  0.00  0.00    +0.000 HD
ENDBRANCH  24  27
ENDBRANCH   8  21
TORSDOF 3
ENDMDL
MODEL 2
REMARK VINA RESULT:      -8.3      3.218      6.976
REMARK  Name = 
REMARK  3 active torsions:
REMARK  status: ('A' for Active; 'I' for Inactive)
REMARK    1  A    between atoms: C_5  and  N_6
REMARK    2  A    between atoms: C_13  and  C_14
REMARK    3  A    between atoms: C_17  and  O_18
REMARK                            x       y       z     vdW  Elec       q    Type
REMARK                         _______ _______ _______ _____ _____    ______ ____
ROOT
ATOM      1  N   UNL     1       3.727   3.489  18.432  0.00  0.00    +0.000 N 
ATOM      2  C   UNL     1       3.606   4.735  18.963  0.00  0.00    +0.000 C 
ATOM      3  O   UNL     1       3.251   5.064  20.079  0.00  0.00    +0.000 OA
ATOM      4  C   UNL     1       4.035   5.675  17.939  0.00  0.00    +0.000 A 
ATOM      5  C   UNL     1       4.011   7.055  17.983  0.00  0.00    +0.000 A 
ATOM      6  C   UNL     1       4.511   7.725  16.875  0.00  0.00    +0.000 A 
ATOM      7  C   UNL     1       5.042   7.003  15.785  0.00  0.00    +0.000 A 
ATOM      8  C   UNL     1       5.058   5.586  15.732  0.00  0.00    +0.000 A 
ATOM      9  C   UNL     1       4.499   4.952  16.844  0.00  0.00    +0.000 A 
ATOM     10  C   UNL     1       4.219   3.534  17.155  0.00  0.00    +0.000 C 
ATOM     11  O   UNL     1       4.333   2.592  16.400  0.00  0.00    +0.000 OA
ENDROOT
BRANCH   1  16
ATOM     12  O   UNL     1       1.145   2.695  22.569  0.00  0.00    +0.000 OA
ATOM     13  C   UNL     1       1.759   2.530  21.517  0.00  0.00    +0.000 C 
ATOM     14  C   UNL     1       1.088   2.671  20.170  0.00  0.00    +0.000 C 
ATOM     15  C   UNL     1       1.842   1.949  19.070  0.00  0.00    +0.000 C 
ATOM     16  C   UNL     1       3.341   2.240  19.074  0.00  0.00    +0.000 C 
ATOM     17  C   UNL     1       3.963   2.164  20.462  0.00  0.00    +0.000 C 
ATOM     18  O   UNL     1       5.179   2.119  20.642  0.00  0.00    +0.000 OA
ATOM     19  N   UNL     1       3.099   2.241  21.528  0.00  0.00    +0.000 N 
ATOM     20  H   UNL     1       3.531   2.229  22.445  0.00  0.00    +0.000 HD
ENDBRANCH   1  16
BRANCH   8  21
ATOM     21  C   UNL     1       5.660   4.883  14.574  0.00  0.00    +0.000 A 
ATOM     22  C   UNL     1       4.898   4.050  13.732  0.00  0.00    +0.000 A 
ATOM     23  C   UNL     1       5.450   3.425  12.611  0.00  0.00    +0.000 A 
ATOM     24  C   UNL     1       6.805   3.560  12.354  0.00  0.00    +0.000 A 
ATOM     25  C   UNL     1       7.603   4.326  13.188  0.00  0.00    +0.000 A 
ATOM     26  C   UNL     1       7.032   4.993  14.278  0.00  0.00    +0.000 A 
BRANCH  24  27
ATOM     27  O   UNL     1       7.390   2.942  11.290  0.00  0.00    +0.000 OA
ATOM     28  H   UNL     1       6.688   2.553  10.742  0.00  0.00    +0.000 HD
ENDBRANCH  24  27
ENDBRANCH   8  21
TORSDOF 3
ENDMDL
MODEL 3
REMARK VINA RESULT:      -8.2      1.581      2.479
REMARK  Name = 
REMARK  3 active torsions:
REMARK  status: ('A' for Active; 'I' for Inactive)
REMARK    1  A    between atoms: C_5  and  N_6
REMARK    2  A    between atoms: C_13  and  C_14
REMARK    3  A    between atoms: C_17  and  O_18
REMARK                            x       y       z     vdW  Elec       q    Type
REMARK                         _______ _______ _______ _____ _____    ______ ____
ROOT
ATOM      1  N   UNL     1       4.712   6.220  17.750  0.00  0.00    +0.000 N 
ATOM      2  C   UNL     1       4.594   4.958  18.241  0.00  0.00    +0.000 C 
ATOM      3  O   UNL     1       5.286   3.981  18.024  0.00  0.00    +0.000 OA
ATOM      4  C   UNL     1       3.464   4.963  19.158  0.00  0.00    +0.000 A 
ATOM      5  C   UNL     1       2.908   3.894  19.832  0.00  0.00    +0.000 A 
ATOM      6  C   UNL     1       1.844   4.175  20.678  0.00  0.00    +0.000 A 
ATOM      7  C   UNL     1       1.396   5.503  20.846  0.00  0.00    +0.000 A 
ATOM      8  C   UNL     1       1.959   6.601  20.146  0.00  0.00    +0.000 A 
ATOM      9  C   UNL     1       2.991   6.267  19.267  0.00  0.00    +0.000 A 
ATOM     10  C   UNL     1       3.768   7.056  18.286  0.00  0.00    +0.000 C 
ATOM     11  O   UNL     1       3.565   8.206  17.960  0.00  0.00    +0.000 OA
ENDROOT
BRANCH   1  16
ATOM     12  O   UNL     1       6.991   3.682  14.177  0.00  0.00    +0.000 OA
ATOM     13  C   UNL     1       6.585   4.592  14.896  0.00  0.00    +0.000 C 
ATOM     14  C   UNL     1       5.235   5.237  14.683  0.00  0.00    +0.000 C 
ATOM     15  C   UNL     1       5.149   6.617  15.305  0.00  0.00    +0.000 C 
ATOM     16  C   UNL     1       5.663   6.665  16.742  0.00  0.00    +0.000 C 
ATOM     17  C   UNL     1       6.987   5.937  16.929  0.00  0.00    +0.000 C 
ATOM     18  O   UNL     1       7.680   6.071  17.937  0.00  0.00    +0.000 OA
ATOM     19  N   UNL     1       7.339   5.038  15.951  0.00  0.00    +0.000 N 
ATOM     20  H   UNL     1       8.203   4.533  16.110  0.00  0.00    +0.000 HD
ENDBRANCH   1  16
BRANCH   8  21
ATOM     21  C   UNL     1       1.469   7.978  20.388  0.00  0.00    +0.000 A 
ATOM     22  C   UNL     1       1.119   8.840  19.331  0.00  0.00    +0.000 A 
ATOM     23  C   UNL     1       0.610  10.122  19.555  0.00  0.00    +0.000 A 
ATOM     24  C   UNL     1       0.514  10.598  20.853  0.00  0.00    +0.000 A 
ATOM     25  C   UNL     1       0.899   9.803  21.922  0.00  0.00    +0.000 A 
ATOM     26  C   UNL     1       1.357   8.501  21.691  0.00  0.00    +0.000 A 
BRANCH  24  27
ATOM     27  O   UNL     1       0.053  11.853  21.115  0.00  0.00    +0.000 OA
ATOM     28  H   UNL     1      -0.183  11.897  22.056  0.00  0.00    +0.000 HD
ENDBRANCH  24  27
ENDBRANCH   8  21
TORSDOF 3
ENDMDL
MODEL 4
REMARK VINA RESULT:      -8.1      2.470      4.910
REMARK  Name = 
REMARK  3 active torsions:
REMARK  status: ('A' for Active; 'I' for Inactive)
REMARK    1  A    between atoms: C_5  and  N_6
REMARK    2  A    between atoms: C_13  and  C_14
REMARK    3  A    between atoms: C_17  and  O_18
REMARK                            x       y       z     vdW  Elec       q    Type
REMARK                         _______ _______ _______ _____ _____    ______ ____
ROOT
ATOM      1  N   UNL     1       3.522   3.461  18.284  0.00  0.00    +0.000 N 
ATOM      2  C   UNL     1       4.356   3.583  17.217  0.00  0.00    +0.000 C 
ATOM      3  O   UNL     1       4.904   2.713  16.566  0.00  0.00    +0.000 OA
ATOM      4  C   UNL     1       4.467   5.004  16.926  0.00  0.00    +0.000 A 
ATOM      5  C   UNL     1       5.267   5.622  15.985  0.00  0.00    +0.000 A 
ATOM      6  C   UNL     1       5.163   7.002  15.886  0.00  0.00    +0.000 A 
ATOM      7  C   UNL     1       4.250   7.709  16.699  0.00  0.00    +0.000 A 
ATOM      8  C   UNL     1       3.435   7.077  17.673  0.00  0.00    +0.000 A 
ATOM      9  C   UNL     1       3.609   5.696  17.775  0.00  0.00    +0.000 A 
ATOM     10  C   UNL     1       3.061   4.681  18.701  0.00  0.00    +0.000 C 
ATOM     11  O   UNL     1       2.389   4.891  19.688  0.00  0.00    +0.000 OA
ENDROOT
BRANCH   1  16
ATOM     12  O   UNL     1       1.116   2.731  22.537  0.00  0.00    +0.000 OA
ATOM     13  C   UNL     1       1.689   2.550  21.465  0.00  0.00    +0.000 C 
ATOM     14  C   UNL     1       0.965   2.652  20.143  0.00  0.00    +0.000 C 
ATOM     15  C   UNL     1       1.684   1.914  19.030  0.00  0.00    +0.000 C 
ATOM     16  C   UNL     1       3.177   2.223  18.969  0.00  0.00    +0.000 C 
ATOM     17  C   UNL     1       3.855   2.186  20.332  0.00  0.00    +0.000 C 
ATOM     18  O   UNL     1       5.078   2.159  20.464  0.00  0.00    +0.000 OA
ATOM     19  N   UNL     1       3.033   2.277  21.429  0.00  0.00    +0.000 N 
ATOM     20  H   UNL     1       3.501   2.291  22.328  0.00  0.00    +0.000 HD
ENDBRANCH   1  16
BRANCH   8  21
ATOM     21  C   UNL     1       2.471   7.868  18.474  0.00  0.00    +0.000 A 
ATOM     22  C   UNL     1       2.243   7.602  19.838  0.00  0.00    +0.000 A 
ATOM     23  C   UNL     1       1.371   8.376  20.610  0.00  0.00    +0.000 A 
ATOM     24  C   UNL     1       0.647   9.391  20.006  0.00  0.00    +0.000 A 
ATOM     25  C   UNL     1       0.800   9.652  18.653  0.00  0.00    +0.000 A 
ATOM     26  C   UNL     1       1.715   8.908  17.899  0.00  0.00    +0.000 A 
BRANCH  24  27
ATOM     27  O   UNL     1      -0.236  10.149  20.713  0.00  0.00    +0.000 OA
ATOM     28  H   UNL     1      -0.191   9.876  21.644  0.00  0.00    +0.000 HD
ENDBRANCH  24  27
ENDBRANCH   8  21
TORSDOF 3
ENDMDL
MODEL 5
REMARK VINA RESULT:      -7.8      3.088      4.913
REMARK  Name = 
REMARK  3 active torsions:
REMARK  status: ('A' for Active; 'I' for Inactive)
REMARK    1  A    between atoms: C_5  and  N_6
REMARK    2  A    between atoms: C_13  and  C_14
REMARK    3  A    between atoms: C_17  and  O_18
REMARK                            x       y       z     vdW  Elec       q    Type
REMARK                         _______ _______ _______ _____ _____    ______ ____
ROOT
ATOM      1  N   UNL     1       2.062   4.794  19.490  0.00  0.00    +0.000 N 
ATOM      2  C   UNL     1       2.663   5.090  18.307  0.00  0.00    +0.000 C 
ATOM      3  O   UNL     1       3.084   4.337  17.449  0.00  0.00    +0.000 OA
ATOM      4  C   UNL     1       2.690   6.541  18.197  0.00  0.00    +0.000 A 
ATOM      5  C   UNL     1       3.275   7.310  17.211  0.00  0.00    +0.000 A 
ATOM      6  C   UNL     1       3.130   8.686  17.324  0.00  0.00    +0.000 A 
ATOM      7  C   UNL     1       2.387   9.240  18.389  0.00  0.00    +0.000 A 
ATOM      8  C   UNL     1       1.795   8.452  19.409  0.00  0.00    +0.000 A 
ATOM      9  C   UNL     1       2.009   7.078  19.285  0.00  0.00    +0.000 A 
ATOM     10  C   UNL     1       1.675   5.927  20.153  0.00  0.00    +0.000 C 
ATOM     11  O   UNL     1       1.211   5.978  21.272  0.00  0.00    +0.000 OA
ENDROOT
BRANCH   1  16
ATOM     12  O   UNL     1       4.254   0.519  18.337  0.00  0.00    +0.000 OA
ATOM     13  C   UNL     1       3.570   1.377  18.890  0.00  0.00    +0.000 C 
ATOM     14  C   UNL     1       4.149   2.321  19.918  0.00  0.00    +0.000 C 
ATOM     15  C   UNL     1       3.086   2.919  20.819  0.00  0.00    +0.000 C 
ATOM     16  C   UNL     1       1.882   3.463  20.054  0.00  0.00    +0.000 C 
ATOM     17  C   UNL     1       1.378   2.514  18.976  0.00  0.00    +0.000 C 
ATOM     18  O   UNL     1       0.285   2.653  18.427  0.00  0.00    +0.000 OA
ATOM     19  N   UNL     1       2.246   1.531  18.566  0.00  0.00    +0.000 N 
ATOM     20  H   UNL     1       1.912   0.932  17.821  0.00  0.00    +0.000 HD
ENDBRANCH   1  16
BRANCH   8  21
ATOM     21  C   UNL     1       0.998   9.089  20.484  0.00  0.00    +0.000 A 
ATOM     22  C   UNL     1       1.267   8.856  21.846  0.00  0.00    +0.000 A 
ATOM     23  C   UNL     1       0.551   9.492  22.864  0.00  0.00    +0.000 A 
ATOM     24  C   UNL     1      -0.510  10.320  22.534  0.00  0.00    +0.000 A 
ATOM     25  C   UNL     1      -0.845  10.534  21.206  0.00  0.00    +0.000 A 
ATOM     26  C   UNL     1      -0.088   9.937  20.192  0.00  0.00    +0.000 A 
BRANCH  24  27
ATOM     27  O   UNL     1      -1.254  10.935  23.494  0.00  0.00    +0.000 OA
ATOM     28  H   UNL     1      -0.709  11.627  23.904  0.00  0.00    +0.000 HD
ENDBRANCH  24  27
ENDBRANCH   8  21
TORSDOF 3
ENDMDL
MODEL 6
REMARK VINA RESULT:      -7.7      1.462      1.545
REMARK  Name = 
REMARK  3 active torsions:
REMARK  status: ('A' for Active; 'I' for Inactive)
REMARK    1  A    between atoms: C_5  and  N_6
REMARK    2  A    between atoms: C_13  and  C_14
REMARK    3  A    between atoms: C_17  and  O_18
REMARK                            x       y       z     vdW  Elec       q    Type
REMARK                         _______ _______ _______ _____ _____    ______ ____
ROOT
ATOM      1  N   UNL     1       5.371   4.371  17.362  0.00  0.00    +0.000 N 
ATOM      2  C   UNL     1       4.756   3.159  17.323  0.00  0.00    +0.000 C 
ATOM      3  O   UNL     1       5.217   2.072  17.032  0.00  0.00    +0.000 OA
ATOM      4  C   UNL     1       3.381   3.368  17.751  0.00  0.00    +0.000 A 
ATOM      5  C   UNL     1       2.352   2.448  17.793  0.00  0.00    +0.000 A 
ATOM      6  C   UNL     1       1.131   2.899  18.276  0.00  0.00    +0.000 A 
ATOM      7  C   UNL     1       0.988   4.229  18.725  0.00  0.00    +0.000 A 
ATOM      8  C   UNL     1       2.041   5.178  18.672  0.00  0.00    +0.000 A 
ATOM      9  C   UNL     1       3.236   4.698  18.133  0.00  0.00    +0.000 A 
ATOM     10  C   UNL     1       4.521   5.351  17.800  0.00  0.00    +0.000 C 
ATOM     11  O   UNL     1       4.758   6.539  17.837  0.00  0.00    +0.000 OA
ENDROOT
BRANCH   1  16
ATOM     12  O   UNL     1       8.237   8.288  18.286  0.00  0.00    +0.000 OA
ATOM     13  C   UNL     1       7.833   7.190  17.909  0.00  0.00    +0.000 C 
ATOM     14  C   UNL     1       7.791   5.995  18.832  0.00  0.00    +0.000 C 
ATOM     15  C   UNL     1       7.764   4.680  18.076  0.00  0.00    +0.000 C 
ATOM     16  C   UNL     1       6.737   4.656  16.946  0.00  0.00    +0.000 C 
ATOM     17  C   UNL     1       6.760   5.912  16.087  0.00  0.00    +0.000 C 
ATOM     18  O   UNL     1       6.196   5.980  14.995  0.00  0.00    +0.000 OA
ATOM     19  N   UNL     1       7.370   7.017  16.630  0.00  0.00    +0.000 N 
ATOM     20  H   UNL     1       7.343   7.857  16.063  0.00  0.00    +0.000 HD
ENDBRANCH   1  16
BRANCH   8  21
ATOM     21  C   UNL     1       1.840   6.553  19.190  0.00  0.00    +0.000 A 
ATOM     22  C   UNL     1       1.841   7.675  18.340  0.00  0.00    +0.000 A 
ATOM     23  C   UNL     1       1.603   8.967  18.816  0.00  0.00    +0.000 A 
ATOM     24  C   UNL     1       1.438   9.171  20.176  0.00  0.00    +0.000 A 
ATOM     25  C   UNL     1       1.484   8.101  21.056  0.00  0.00    +0.000 A 
ATOM     26  C   UNL     1       1.668   6.804  20.565  0.00  0.00    +0.000 A 
BRANCH  24  27
ATOM     27  O   UNL     1       1.235  10.417  20.687  0.00  0.00    +0.000 OA
ATOM     28  H   UNL     1       2.067  10.913  20.614  0.00  0.00    +0.000 HD
ENDBRANCH  24  27
ENDBRANCH   8  21
TORSDOF 3
ENDMDL
MODEL 7
REMARK VINA RESULT:      -7.7      1.314      1.651
REMARK  Name = 
REMARK  3 active torsions:
REMARK  status: ('A' for Active; 'I' for Inactive)
REMARK    1  A    between atoms: C_5  and  N_6
REMARK    2  A    between atoms: C_13  and  C_14
REMARK    3  A    between atoms: C_17  and  O_18
REMARK                            x       y       z     vdW  Elec       q    Type
REMARK                         _______ _______ _______ _____ _____    ______ ____
ROOT
ATOM      1  N   UNL     1       5.074   4.340  17.463  0.00  0.00    +0.000 N 
ATOM      2  C   UNL     1       4.497   3.114  17.572  0.00  0.00    +0.000 C 
ATOM      3  O   UNL     1       4.957   2.021  17.299  0.00  0.00    +0.000 OA
ATOM      4  C   UNL     1       3.173   3.317  18.140  0.00  0.00    +0.000 A 
ATOM      5  C   UNL     1       2.185   2.377  18.357  0.00  0.00    +0.000 A 
ATOM      6  C   UNL     1       1.012   2.829  18.947  0.00  0.00    +0.000 A 
ATOM      7  C   UNL     1       0.878   4.182  19.324  0.00  0.00    +0.000 A 
ATOM      8  C   UNL     1       1.888   5.152  19.092  0.00  0.00    +0.000 A 
ATOM      9  C   UNL     1       3.029   4.666  18.451  0.00  0.00    +0.000 A 
ATOM     10  C   UNL     1       4.248   5.325  17.933  0.00  0.00    +0.000 C 
ATOM     11  O   UNL     1       4.451   6.519  17.868  0.00  0.00    +0.000 OA
ENDROOT
BRANCH   1  16
ATOM     12  O   UNL     1       8.090   8.195  18.135  0.00  0.00    +0.000 OA
ATOM     13  C   UNL     1       7.625   7.116  17.776  0.00  0.00    +0.000 C 
ATOM     14  C   UNL     1       7.691   5.886  18.651  0.00  0.00    +0.000 C 
ATOM     15  C   UNL     1       7.545   4.602  17.857  0.00  0.00    +0.000 C 
ATOM     16  C   UNL     1       6.375   4.629  16.877  0.00  0.00    +0.000 C 
ATOM     17  C   UNL     1       6.299   5.917  16.070  0.00  0.00    +0.000 C 
ATOM     18  O   UNL     1       5.593   6.032  15.068  0.00  0.00    +0.000 OA
ATOM     19  N   UNL     1       6.991   6.996  16.566  0.00  0.00    +0.000 N 
ATOM     20  H   UNL     1       6.898   7.857  16.039  0.00  0.00    +0.000 HD
ENDBRANCH   1  16
BRANCH   8  21
ATOM     21  C   UNL     1       1.704   6.552  19.542  0.00  0.00    +0.000 A 
ATOM     22  C   UNL     1       1.460   6.873  20.890  0.00  0.00    +0.000 A 
ATOM     23  C   UNL     1       1.334   8.195  21.328  0.00  0.00    +0.000 A 
ATOM     24  C   UNL     1       1.373   9.224  20.401  0.00  0.00    +0.000 A 
ATOM     25  C   UNL     1       1.558   8.949  19.055  0.00  0.00    +0.000 A 
ATOM     26  C   UNL     1       1.737   7.627  18.633  0.00  0.00    +0.000 A 
BRANCH  24  27
ATOM     27  O   UNL     1       1.224  10.524  20.779  0.00  0.00    +0.000 OA
ATOM     28  H   UNL     1       1.326  11.082  19.991  0.00  0.00    +0.000 HD
ENDBRANCH  24  27
ENDBRANCH   8  21
TORSDOF 3
ENDMDL
MODEL 8
REMARK VINA RESULT:      -7.6      8.107     10.069
REMARK  Name = 
REMARK  3 active torsions:
REMARK  status: ('A' for Active; 'I' for Inactive)
REMARK    1  A    between atoms: C_5  and  N_6
REMARK    2  A    between atoms: C_13  and  C_14
REMARK    3  A    between atoms: C_17  and  O_18
REMARK                            x       y       z     vdW  Elec       q    Type
REMARK                         _______ _______ _______ _____ _____    ______ ____
ROOT
ATOM      1  N   UNL     1       9.444  13.051  20.369  0.00  0.00    +0.000 N 
ATOM      2  C   UNL     1       9.953  14.307  20.487  0.00  0.00    +0.000 C 
ATOM      3  O   UNL     1      10.476  15.007  19.640  0.00  0.00    +0.000 OA
ATOM      4  C   UNL     1       9.724  14.731  21.860  0.00  0.00    +0.000 A 
ATOM      5  C   UNL     1      10.139  15.896  22.473  0.00  0.00    +0.000 A 
ATOM      6  C   UNL     1       9.759  16.074  23.796  0.00  0.00    +0.000 A 
ATOM      7  C   UNL     1       8.959  15.110  24.446  0.00  0.00    +0.000 A 
ATOM      8  C   UNL     1       8.541  13.907  23.820  0.00  0.00    +0.000 A 
ATOM      9  C   UNL     1       8.987  13.743  22.508  0.00  0.00    +0.000 A 
ATOM     10  C   UNL     1       8.882  12.627  21.543  0.00  0.00    +0.000 C 
ATOM     11  O   UNL     1       8.446  11.518  21.767  0.00  0.00    +0.000 OA
ENDROOT
BRANCH   1  16
ATOM     12  O   UNL     1      12.333  13.376  16.375  0.00  0.00    +0.000 OA
ATOM     13  C   UNL     1      11.520  12.983  17.208  0.00  0.00    +0.000 C 
ATOM     14  C   UNL     1      11.944  12.222  18.442  0.00  0.00    +0.000 C 
ATOM     15  C   UNL     1      10.811  11.410  19.040  0.00  0.00    +0.000 C 
ATOM     16  C   UNL     1       9.515  12.203  19.188  0.00  0.00    +0.000 C 
ATOM     17  C   UNL     1       9.163  13.016  17.950  0.00  0.00    +0.000 C 
ATOM     18  O   UNL     1       8.052  13.515  17.778  0.00  0.00    +0.000 OA
ATOM     19  N   UNL     1      10.183  13.253  17.060  0.00  0.00    +0.000 N 
ATOM     20  H   UNL     1       9.945  13.829  16.262  0.00  0.00    +0.000 HD
ENDBRANCH   1  16
BRANCH   8  21
ATOM     21  C   UNL     1       7.673  12.947  24.543  0.00  0.00    +0.000 A 
ATOM     22  C   UNL     1       7.955  12.535  25.859  0.00  0.00    +0.000 A 
ATOM     23  C   UNL     1       7.114  11.667  26.562  0.00  0.00    +0.000 A 
ATOM     24  C   UNL     1       6.006  11.131  25.927  0.00  0.00    +0.000 A 
ATOM     25  C   UNL     1       5.720  11.467  24.612  0.00  0.00    +0.000 A 
ATOM     26  C   UNL     1       6.538  12.378  23.934  0.00  0.00    +0.000 A 
BRANCH  24  27
ATOM     27  O   UNL     1       5.177  10.258  26.564  0.00  0.00    +0.000 OA
ATOM     28  H   UNL     1       5.716   9.701  27.149  0.00  0.00    +0.000 HD
ENDBRANCH  24  27
ENDBRANCH   8  21
TORSDOF 3
ENDMDL
MODEL 9
REMARK VINA RESULT:      -7.6      2.761      6.680
REMARK  Name = 
REMARK  3 active torsions:
REMARK  status: ('A' for Active; 'I' for Inactive)
REMARK    1  A    between atoms: C_5  and  N_6
REMARK    2  A    between atoms: C_13  and  C_14
REMARK    3  A    between atoms: C_17  and  O_18
REMARK                            x       y       z     vdW  Elec       q    Type
REMARK                         _______ _______ _______ _____ _____    ______ ____
ROOT
ATOM      1  N   UNL     1       1.577   8.946  18.795  0.00  0.00    +0.000 N 
ATOM      2  C   UNL     1       1.011   8.269  19.830  0.00  0.00    +0.000 C 
ATOM      3  O   UNL     1       0.031   8.555  20.492  0.00  0.00    +0.000 OA
ATOM      4  C   UNL     1       1.782   7.048  20.009  0.00  0.00    +0.000 A 
ATOM      5  C   UNL     1       1.639   6.084  20.988  0.00  0.00    +0.000 A 
ATOM      6  C   UNL     1       2.490   4.990  20.916  0.00  0.00    +0.000 A 
ATOM      7  C   UNL     1       3.423   4.879  19.864  0.00  0.00    +0.000 A 
ATOM      8  C   UNL     1       3.579   5.873  18.863  0.00  0.00    +0.000 A 
ATOM      9  C   UNL     1       2.740   6.980  19.002  0.00  0.00    +0.000 A 
ATOM     10  C   UNL     1       2.639   8.261  18.269  0.00  0.00    +0.000 C 
ATOM     11  O   UNL     1       3.396   8.665  17.413  0.00  0.00    +0.000 OA
ENDROOT
BRANCH   1  16
ATOM     12  O   UNL     1      -1.186  12.439  20.935  0.00  0.00    +0.000 OA
ATOM     13  C   UNL     1      -0.454  11.833  20.156  0.00  0.00    +0.000 C 
ATOM     14  C   UNL     1       1.042  11.763  20.354  0.00  0.00    +0.000 C 
ATOM     15  C   UNL     1       1.782  11.438  19.071  0.00  0.00    +0.000 C 
ATOM     16  C   UNL     1       1.180  10.260  18.309  0.00  0.00    +0.000 C 
ATOM     17  C   UNL     1      -0.337  10.329  18.198  0.00  0.00    +0.000 C 
ATOM     18  O   UNL     1      -0.978   9.622  17.422  0.00  0.00    +0.000 OA
ATOM     19  N   UNL     1      -0.980  11.163  19.081  0.00  0.00    +0.000 N 
ATOM     20  H   UNL     1      -1.992  11.169  19.022  0.00  0.00    +0.000 HD
ENDBRANCH   1  16
BRANCH   8  21
ATOM     21  C   UNL     1       4.554   5.685  17.762  0.00  0.00    +0.000 A 
ATOM     22  C   UNL     1       4.299   4.815  16.685  0.00  0.00    +0.000 A 
ATOM     23  C   UNL     1       5.193   4.671  15.620  0.00  0.00    +0.000 A 
ATOM     24  C   UNL     1       6.404   5.342  15.653  0.00  0.00    +0.000 A 
ATOM     25  C   UNL     1       6.720   6.167  16.722  0.00  0.00    +0.000 A 
ATOM     26  C   UNL     1       5.796   6.348  17.758  0.00  0.00    +0.000 A 
BRANCH  24  27
ATOM     27  O   UNL     1       7.318   5.207  14.652  0.00  0.00    +0.000 OA
ATOM     28  H   UNL     1       6.928   5.561  13.836  0.00  0.00    +0.000 HD
ENDBRANCH  24  27
ENDBRANCH   8  21
TORSDOF 3
ENDMDL
