MODEL 1
REMARK VINA RESULT:      -7.6      0.000      0.000
REMARK  Name = 
REMARK  4 active torsions:
REMARK  status: ('A' for Active; 'I' for Inactive)
REMARK    1  A    between atoms: C_2  and  C_3
REMARK    2  A    between atoms: C_8  and  C_9
REMARK    3  A    between atoms: C_14  and  C_15
REMARK    4  A    between atoms: C_15  and  C_17
REMARK                            x       y       z     vdW  Elec       q    Type
REMARK                         _______ _______ _______ _____ _____    ______ ____
ROOT
ATOM      1  C   UNL     1       5.214   5.116  16.685  0.00  0.00    +0.000 A 
ATOM      2  C   UNL     1       4.719   4.395  15.564  0.00  0.00    +0.000 A 
ATOM      3  C   UNL     1       5.422   4.239  14.373  0.00  0.00    +0.000 A 
ATOM      4  C   UNL     1       6.631   4.883  14.208  0.00  0.00    +0.000 A 
ATOM      5  C   UNL     1       7.108   5.696  15.229  0.00  0.00    +0.000 A 
ATOM      6  C   UNL     1       6.436   5.829  16.479  0.00  0.00    +0.000 A 
ATOM      7  O   UNL     1       7.376   4.792  13.063  0.00  0.00    +0.000 OA
ATOM      8  C   UNL     1       6.980   3.667  12.267  0.00  0.00    +0.000 C 
ATOM      9  C   UNL     1       5.467   3.566  12.156  0.00  0.00    +0.000 C 
ATOM     10  O   UNL     1       4.855   3.416  13.439  0.00  0.00    +0.000 OA
ENDROOT
BRANCH   1  16
ATOM     11  C   UNL     1       3.515   6.087  18.380  0.00  0.00    +0.000 A 
ATOM     12  C   UNL     1       2.716   5.934  19.526  0.00  0.00    +0.000 A 
ATOM     13  C   UNL     1       2.674   4.715  20.175  0.00  0.00    +0.000 A 
ATOM     14  C   UNL     1       3.548   3.700  19.805  0.00  0.00    +0.000 A 
ATOM     15  C   UNL     1       4.456   3.901  18.761  0.00  0.00    +0.000 A 
ATOM     16  C   UNL     1       4.395   5.042  17.942  0.00  0.00    +0.000 A 
ATOM     17  O   UNL     1       3.521   2.450  20.364  0.00  0.00    +0.000 OA
ATOM     18  C   UNL     1       2.513   2.293  21.372  0.00  0.00    +0.000 C 
ATOM     19  C   UNL     1       1.301   3.184  21.141  0.00  0.00    +0.000 C 
ATOM     20  O   UNL     1       1.708   4.555  21.130  0.00  0.00    +0.000 OA
BRANCH  11  22
ATOM     21  N   UNL     1       3.158   8.379  17.204  0.00  0.00    +0.000 NA
ATOM     22  C   UNL     1       3.328   7.348  17.698  0.00  0.00    +0.000 C 
ENDBRANCH  11  22
ENDBRANCH   1  16
BRANCH   6  23
ATOM     23  C   UNL     1       7.139   6.823  17.372  0.00  0.00    +0.000 C 
ATOM     24  O   UNL     1       7.039   8.016  17.087  0.00  0.00    +0.000 OA
BRANCH  23  25
ATOM     25  C   UNL     1       7.982   6.458  18.555  0.00  0.00    +0.000 C 
ATOM     26  C   UNL     1       7.340   5.769  19.752  0.00  0.00    +0.000 C 
ATOM     27  C   UNL     1       8.241   4.988  18.857  0.00  0.00    +0.000 C 
ENDBRANCH  23  25
ENDBRANCH   6  23
TORSDOF 4
ENDMDL
MODEL 2
REMARK VINA RESULT:      -7.4      2.474      6.954
REMARK  Name = 
REMARK  4 active torsions:
REMARK  status: ('A' for Active; 'I' for Inactive)
REMARK    1  A    between atoms: C_2  and  C_3
REMARK    2  A    between atoms: C_8  and  C_9
REMARK    3  A    between atoms: C_14  and  C_15
REMARK    4  A    between atoms: C_15  and  C_17
REMARK                            x       y       z     vdW  Elec       q    Type
REMARK                         _______ _______ _______ _____ _____    ______ ____
ROOT
ATOM      1  C   UNL     1       3.198   6.372  18.325  0.00  0.00    +0.000 A 
ATOM      2  C   UNL     1       2.737   7.603  17.784  0.00  0.00    +0.000 A 
ATOM      3  C   UNL     1       2.028   8.552  18.514  0.00  0.00    +0.000 A 
ATOM      4  C   UNL     1       1.659   8.274  19.813  0.00  0.00    +0.000 A 
ATOM      5  C   UNL     1       1.984   7.036  20.357  0.00  0.00    +0.000 A 
ATOM      6  C   UNL     1       2.755   6.068  19.650  0.00  0.00    +0.000 A 
ATOM      7  O   UNL     1       0.950   9.147  20.593  0.00  0.00    +0.000 OA
ATOM      8  C   UNL     1       1.007  10.481  20.071  0.00  0.00    +0.000 C 
ATOM      9  C   UNL     1       0.779  10.503  18.568  0.00  0.00    +0.000 C 
ATOM     10  O   UNL     1       1.765   9.733  17.876  0.00  0.00    +0.000 OA
ENDROOT
BRANCH   1  16
ATOM     11  C   UNL     1       3.719   4.257  16.926  0.00  0.00    +0.000 A 
ATOM     12  C   UNL     1       4.560   3.558  16.043  0.00  0.00    +0.000 A 
ATOM     13  C   UNL     1       5.702   4.166  15.558  0.00  0.00    +0.000 A 
ATOM     14  C   UNL     1       6.110   5.390  16.073  0.00  0.00    +0.000 A 
ATOM     15  C   UNL     1       5.355   6.020  17.067  0.00  0.00    +0.000 A 
ATOM     16  C   UNL     1       4.087   5.544  17.442  0.00  0.00    +0.000 A 
ATOM     17  O   UNL     1       7.196   6.077  15.597  0.00  0.00    +0.000 OA
ATOM     18  C   UNL     1       7.875   5.407  14.527  0.00  0.00    +0.000 C 
ATOM     19  C   UNL     1       6.949   4.532  13.694  0.00  0.00    +0.000 C 
ATOM     20  O   UNL     1       6.348   3.538  14.528  0.00  0.00    +0.000 OA
BRANCH  11  22
ATOM     21  N   UNL     1       1.474   3.069  17.488  0.00  0.00    +0.000 NA
ATOM     22  C   UNL     1       2.475   3.578  17.211  0.00  0.00    +0.000 C 
ENDBRANCH  11  22
ENDBRANCH   1  16
BRANCH   6  23
ATOM     23  C   UNL     1       2.898   4.795  20.451  0.00  0.00    +0.000 C 
ATOM     24  O   UNL     1       3.965   4.187  20.368  0.00  0.00    +0.000 OA
BRANCH  23  25
ATOM     25  C   UNL     1       1.821   4.200  21.304  0.00  0.00    +0.000 C 
ATOM     26  C   UNL     1       0.954   3.078  20.746  0.00  0.00    +0.000 C 
ATOM     27  C   UNL     1       1.970   2.764  21.792  0.00  0.00    +0.000 C 
ENDBRANCH  23  25
ENDBRANCH   6  23
TORSDOF 4
ENDMDL
MODEL 3
REMARK VINA RESULT:      -7.4      2.969      5.275
REMARK  Name = 
REMARK  4 active torsions:
REMARK  status: ('A' for Active; 'I' for Inactive)
REMARK    1  A    between atoms: C_2  and  C_3
REMARK    2  A    between atoms: C_8  and  C_9
REMARK    3  A    between atoms: C_14  and  C_15
REMARK    4  A    between atoms: C_15  and  C_17
REMARK                            x       y       z     vdW  Elec       q    Type
REMARK                         _______ _______ _______ _____ _____    ______ ____
ROOT
ATOM      1  C   UNL     1       3.390   5.965  17.861  0.00  0.00    +0.000 A 
ATOM      2  C   UNL     1       4.704   6.417  17.558  0.00  0.00    +0.000 A 
ATOM      3  C   UNL     1       5.587   5.730  16.730  0.00  0.00    +0.000 A 
ATOM      4  C   UNL     1       5.229   4.496  16.231  0.00  0.00    +0.000 A 
ATOM      5  C   UNL     1       4.000   3.952  16.588  0.00  0.00    +0.000 A 
ATOM      6  C   UNL     1       3.056   4.658  17.390  0.00  0.00    +0.000 A 
ATOM      7  O   UNL     1       6.045   3.751  15.422  0.00  0.00    +0.000 OA
ATOM      8  C   UNL     1       7.081   4.554  14.839  0.00  0.00    +0.000 C 
ATOM      9  C   UNL     1       7.723   5.470  15.869  0.00  0.00    +0.000 C 
ATOM     10  O   UNL     1       6.767   6.362  16.447  0.00  0.00    +0.000 OA
ENDROOT
BRANCH   1  16
ATOM     11  C   UNL     1       2.062   6.659  19.972  0.00  0.00    +0.000 A 
ATOM     12  C   UNL     1       1.310   7.613  20.678  0.00  0.00    +0.000 A 
ATOM     13  C   UNL     1       1.112   8.868  20.136  0.00  0.00    +0.000 A 
ATOM     14  C   UNL     1       1.501   9.130  18.828  0.00  0.00    +0.000 A 
ATOM     15  C   UNL     1       2.114   8.131  18.065  0.00  0.00    +0.000 A 
ATOM     16  C   UNL     1       2.520   6.912  18.637  0.00  0.00    +0.000 A 
ATOM     17  O   UNL     1       1.390  10.365  18.248  0.00  0.00    +0.000 OA
ATOM     18  C   UNL     1       0.826  11.358  19.115  0.00  0.00    +0.000 C 
ATOM     19  C   UNL     1       1.119  11.095  20.585  0.00  0.00    +0.000 C 
ATOM     20  O   UNL     1       0.585   9.823  20.961  0.00  0.00    +0.000 OA
BRANCH  11  22
ATOM     21  N   UNL     1       2.552   4.527  21.380  0.00  0.00    +0.000 NA
ATOM     22  C   UNL     1       2.345   5.458  20.727  0.00  0.00    +0.000 C 
ENDBRANCH  11  22
ENDBRANCH   1  16
BRANCH   6  23
ATOM     23  C   UNL     1       1.842   3.806  17.677  0.00  0.00    +0.000 C 
ATOM     24  O   UNL     1       0.737   4.338  17.578  0.00  0.00    +0.000 OA
BRANCH  23  25
ATOM     25  C   UNL     1       1.889   2.374  18.114  0.00  0.00    +0.000 C 
ATOM     26  C   UNL     1       2.724   1.986  19.328  0.00  0.00    +0.000 C 
ATOM     27  C   UNL     1       1.236   1.979  19.432  0.00  0.00    +0.000 C 
ENDBRANCH  23  25
ENDBRANCH   6  23
TORSDOF 4
ENDMDL
MODEL 4
REMARK VINA RESULT:      -7.1      0.872      1.231
REMARK  Name = 
REMARK  4 active torsions:
REMARK  status: ('A' for Active; 'I' for Inactive)
REMARK    1  A    between atoms: C_2  and  C_3
REMARK    2  A    between atoms: C_8  and  C_9
REMARK    3  A    between atoms: C_14  and  C_15
REMARK    4  A    between atoms: C_15  and  C_17
REMARK                            x       y       z     vdW  Elec       q    Type
REMARK                         _______ _______ _______ _____ _____    ______ ____
ROOT
ATOM      1  C   UNL     1       5.327   5.037  16.852  0.00  0.00    +0.000 A 
ATOM      2  C   UNL     1       4.772   4.452  15.682  0.00  0.00    +0.000 A 
ATOM      3  C   UNL     1       5.470   4.300  14.487  0.00  0.00    +0.000 A 
ATOM      4  C   UNL     1       6.743   4.817  14.374  0.00  0.00    +0.000 A 
ATOM      5  C   UNL     1       7.293   5.502  15.452  0.00  0.00    +0.000 A 
ATOM      6  C   UNL     1       6.621   5.624  16.703  0.00  0.00    +0.000 A 
ATOM      7  O   UNL     1       7.490   4.722  13.230  0.00  0.00    +0.000 OA
ATOM      8  C   UNL     1       6.985   3.703  12.357  0.00  0.00    +0.000 C 
ATOM      9  C   UNL     1       5.472   3.776  12.230  0.00  0.00    +0.000 C 
ATOM     10  O   UNL     1       4.830   3.609  13.496  0.00  0.00    +0.000 OA
ENDROOT
BRANCH   1  16
ATOM     11  C   UNL     1       3.581   6.005  18.501  0.00  0.00    +0.000 A 
ATOM     12  C   UNL     1       2.766   5.857  19.636  0.00  0.00    +0.000 A 
ATOM     13  C   UNL     1       2.734   4.648  20.305  0.00  0.00    +0.000 A 
ATOM     14  C   UNL     1       3.631   3.643  19.967  0.00  0.00    +0.000 A 
ATOM     15  C   UNL     1       4.554   3.843  18.935  0.00  0.00    +0.000 A 
ATOM     16  C   UNL     1       4.487   4.969  18.096  0.00  0.00    +0.000 A 
ATOM     17  O   UNL     1       3.617   2.402  20.546  0.00  0.00    +0.000 OA
ATOM     18  C   UNL     1       2.595   2.244  21.539  0.00  0.00    +0.000 C 
ATOM     19  C   UNL     1       1.371   3.109  21.272  0.00  0.00    +0.000 C 
ATOM     20  O   UNL     1       1.754   4.487  21.246  0.00  0.00    +0.000 OA
BRANCH  11  22
ATOM     21  N   UNL     1       3.194   8.218  17.190  0.00  0.00    +0.000 NA
ATOM     22  C   UNL     1       3.384   7.251  17.795  0.00  0.00    +0.000 C 
ENDBRANCH  11  22
ENDBRANCH   1  16
BRANCH   6  23
ATOM     23  C   UNL     1       7.416   6.473  17.667  0.00  0.00    +0.000 C 
ATOM     24  O   UNL     1       7.532   6.066  18.823  0.00  0.00    +0.000 OA
BRANCH  23  25
ATOM     25  C   UNL     1       8.038   7.792  17.328  0.00  0.00    +0.000 C 
ATOM     26  C   UNL     1       7.299   9.081  17.668  0.00  0.00    +0.000 C 
ATOM     27  C   UNL     1       8.508   8.703  18.455  0.00  0.00    +0.000 C 
ENDBRANCH  23  25
ENDBRANCH   6  23
TORSDOF 4
ENDMDL
MODEL 5
REMARK VINA RESULT:      -6.9      2.670      6.990
REMARK  Name = 
REMARK  4 active torsions:
REMARK  status: ('A' for Active; 'I' for Inactive)
REMARK    1  A    between atoms: C_2  and  C_3
REMARK    2  A    between atoms: C_8  and  C_9
REMARK    3  A    between atoms: C_14  and  C_15
REMARK    4  A    between atoms: C_15  and  C_17
REMARK                            x       y       z     vdW  Elec       q    Type
REMARK                         _______ _______ _______ _____ _____    ______ ____
ROOT
ATOM      1  C   UNL     1       2.696   6.648  18.704  0.00  0.00    +0.000 A 
ATOM      2  C   UNL     1       2.532   7.969  18.205  0.00  0.00    +0.000 A 
ATOM      3  C   UNL     1       1.864   8.978  18.892  0.00  0.00    +0.000 A 
ATOM      4  C   UNL     1       1.238   8.689  20.086  0.00  0.00    +0.000 A 
ATOM      5  C   UNL     1       1.268   7.383  20.565  0.00  0.00    +0.000 A 
ATOM      6  C   UNL     1       1.990   6.344  19.909  0.00  0.00    +0.000 A 
ATOM      7  O   UNL     1       0.550   9.621  20.815  0.00  0.00    +0.000 OA
ATOM      8  C   UNL     1       0.902  10.955  20.428  0.00  0.00    +0.000 C 
ATOM      9  C   UNL     1       0.943  11.105  18.915  0.00  0.00    +0.000 C 
ATOM     10  O   UNL     1       1.901  10.223  18.326  0.00  0.00    +0.000 OA
ENDROOT
BRANCH   1  16
ATOM     11  C   UNL     1       3.157   4.476  17.373  0.00  0.00    +0.000 A 
ATOM     12  C   UNL     1       4.008   3.698  16.570  0.00  0.00    +0.000 A 
ATOM     13  C   UNL     1       5.231   4.204  16.176  0.00  0.00    +0.000 A 
ATOM     14  C   UNL     1       5.694   5.400  16.711  0.00  0.00    +0.000 A 
ATOM     15  C   UNL     1       4.914   6.104  17.633  0.00  0.00    +0.000 A 
ATOM     16  C   UNL     1       3.584   5.737  17.906  0.00  0.00    +0.000 A 
ATOM     17  O   UNL     1       6.867   5.989  16.321  0.00  0.00    +0.000 OA
ATOM     18  C   UNL     1       7.575   5.250  15.317  0.00  0.00    +0.000 C 
ATOM     19  C   UNL     1       6.652   4.438  14.419  0.00  0.00    +0.000 C 
ATOM     20  O   UNL     1       5.906   3.510  15.210  0.00  0.00    +0.000 OA
BRANCH  11  22
ATOM     21  N   UNL     1       0.816   3.403  17.743  0.00  0.00    +0.000 NA
ATOM     22  C   UNL     1       1.842   3.904  17.561  0.00  0.00    +0.000 C 
ENDBRANCH  11  22
ENDBRANCH   1  16
BRANCH   6  23
ATOM     23  C   UNL     1       1.794   5.020  20.609  0.00  0.00    +0.000 C 
ATOM     24  O   UNL     1       0.642   4.602  20.725  0.00  0.00    +0.000 OA
BRANCH  23  25
ATOM     25  C   UNL     1       2.895   4.200  21.207  0.00  0.00    +0.000 C 
ATOM     26  C   UNL     1       2.603   2.783  21.684  0.00  0.00    +0.000 C 
ATOM     27  C   UNL     1       3.412   2.984  20.447  0.00  0.00    +0.000 C 
ENDBRANCH  23  25
ENDBRANCH   6  23
TORSDOF 4
ENDMDL
MODEL 6
REMARK VINA RESULT:      -6.7      1.438      6.744
REMARK  Name = 
REMARK  4 active torsions:
REMARK  status: ('A' for Active; 'I' for Inactive)
REMARK    1  A    between atoms: C_2  and  C_3
REMARK    2  A    between atoms: C_8  and  C_9
REMARK    3  A    between atoms: C_14  and  C_15
REMARK    4  A    between atoms: C_15  and  C_17
REMARK                            x       y       z     vdW  Elec       q    Type
REMARK                         _______ _______ _______ _____ _____    ______ ____
ROOT
ATOM      1  C   UNL     1       4.268   4.956  17.785  0.00  0.00    +0.000 A 
ATOM      2  C   UNL     1       4.350   3.762  18.553  0.00  0.00    +0.000 A 
ATOM      3  C   UNL     1       3.545   3.498  19.658  0.00  0.00    +0.000 A 
ATOM      4  C   UNL     1       2.672   4.465  20.110  0.00  0.00    +0.000 A 
ATOM      5  C   UNL     1       2.634   5.696  19.465  0.00  0.00    +0.000 A 
ATOM      6  C   UNL     1       3.408   5.973  18.300  0.00  0.00    +0.000 A 
ATOM      7  O   UNL     1       1.858   4.288  21.197  0.00  0.00    +0.000 OA
ATOM      8  C   UNL     1       1.718   2.900  21.528  0.00  0.00    +0.000 C 
ATOM      9  C   UNL     1       3.059   2.182  21.503  0.00  0.00    +0.000 C 
ATOM     10  O   UNL     1       3.669   2.253  20.212  0.00  0.00    +0.000 OA
ENDROOT
BRANCH   1  16
ATOM     11  C   UNL     1       6.451   5.469  16.490  0.00  0.00    +0.000 A 
ATOM     12  C   UNL     1       7.203   5.420  15.304  0.00  0.00    +0.000 A 
ATOM     13  C   UNL     1       6.682   4.797  14.187  0.00  0.00    +0.000 A 
ATOM     14  C   UNL     1       5.358   4.376  14.180  0.00  0.00    +0.000 A 
ATOM     15  C   UNL     1       4.556   4.562  15.310  0.00  0.00    +0.000 A 
ATOM     16  C   UNL     1       5.096   5.001  16.532  0.00  0.00    +0.000 A 
ATOM     17  O   UNL     1       4.795   3.698  13.131  0.00  0.00    +0.000 OA
ATOM     18  C   UNL     1       5.698   3.475  12.040  0.00  0.00    +0.000 C 
ATOM     19  C   UNL     1       7.149   3.364  12.486  0.00  0.00    +0.000 C 
ATOM     20  O   UNL     1       7.542   4.570  13.147  0.00  0.00    +0.000 OA
BRANCH  11  22
ATOM     21  N   UNL     1       7.791   6.437  18.499  0.00  0.00    +0.000 NA
ATOM     22  C   UNL     1       7.181   5.985  17.627  0.00  0.00    +0.000 C 
ENDBRANCH  11  22
ENDBRANCH   1  16
BRANCH   6  23
ATOM     23  C   UNL     1       3.222   7.403  17.852  0.00  0.00    +0.000 C 
ATOM     24  O   UNL     1       4.221   8.017  17.475  0.00  0.00    +0.000 OA
BRANCH  23  25
ATOM     25  C   UNL     1       1.919   8.141  17.871  0.00  0.00    +0.000 C 
ATOM     26  C   UNL     1       1.537   8.959  19.098  0.00  0.00    +0.000 C 
ATOM     27  C   UNL     1       1.927   9.664  17.843  0.00  0.00    +0.000 C 
ENDBRANCH  23  25
ENDBRANCH   6  23
TORSDOF 4
ENDMDL
MODEL 7
REMARK VINA RESULT:      -6.6      7.250      9.821
REMARK  Name = 
REMARK  4 active torsions:
REMARK  status: ('A' for Active; 'I' for Inactive)
REMARK    1  A    between atoms: C_2  and  C_3
REMARK    2  A    between atoms: C_8  and  C_9
REMARK    3  A    between atoms: C_14  and  C_15
REMARK    4  A    between atoms: C_15  and  C_17
REMARK                            x       y       z     vdW  Elec       q    Type
REMARK                         _______ _______ _______ _____ _____    ______ ____
ROOT
ATOM      1  C   UNL     1      -0.108  10.837  20.430  0.00  0.00    +0.000 A 
ATOM      2  C   UNL     1       0.634   9.698  20.848  0.00  0.00    +0.000 A 
ATOM      3  C   UNL     1       1.292   8.839  19.972  0.00  0.00    +0.000 A 
ATOM      4  C   UNL     1       1.163   9.025  18.612  0.00  0.00    +0.000 A 
ATOM      5  C   UNL     1       0.354  10.055  18.145  0.00  0.00    +0.000 A 
ATOM      6  C   UNL     1      -0.287  10.981  19.019  0.00  0.00    +0.000 A 
ATOM      7  O   UNL     1       1.766   8.217  17.687  0.00  0.00    +0.000 OA
ATOM      8  C   UNL     1       2.835   7.459  18.268  0.00  0.00    +0.000 C 
ATOM      9  C   UNL     1       2.429   6.854  19.603  0.00  0.00    +0.000 C 
ATOM     10  O   UNL     1       2.059   7.862  20.546  0.00  0.00    +0.000 OA
ENDROOT
BRANCH   1  16
ATOM     11  C   UNL     1      -0.088  13.053  21.768  0.00  0.00    +0.000 A 
ATOM     12  C   UNL     1      -0.647  13.886  22.751  0.00  0.00    +0.000 A 
ATOM     13  C   UNL     1      -1.801  13.497  23.404  0.00  0.00    +0.000 A 
ATOM     14  C   UNL     1      -2.307  12.217  23.218  0.00  0.00    +0.000 A 
ATOM     15  C   UNL     1      -1.663  11.326  22.354  0.00  0.00    +0.000 A 
ATOM     16  C   UNL     1      -0.613  11.742  21.517  0.00  0.00    +0.000 A 
ATOM     17  O   UNL     1      -3.477  11.786  23.785  0.00  0.00    +0.000 OA
ATOM     18  C   UNL     1      -4.123  12.777  24.595  0.00  0.00    +0.000 C 
ATOM     19  C   UNL     1      -3.837  14.199  24.130  0.00  0.00    +0.000 C 
ATOM     20  O   UNL     1      -2.428  14.442  24.169  0.00  0.00    +0.000 OA
BRANCH  11  22
ATOM     21  N   UNL     1       1.848  14.138  20.410  0.00  0.00    +0.000 NA
ATOM     22  C   UNL     1       1.006  13.657  21.040  0.00  0.00    +0.000 C 
ENDBRANCH  11  22
ENDBRANCH   1  16
BRANCH   6  23
ATOM     23  C   UNL     1      -1.152  11.948  18.247  0.00  0.00    +0.000 C 
ATOM     24  O   UNL     1      -0.685  13.061  18.002  0.00  0.00    +0.000 OA
BRANCH  23  25
ATOM     25  C   UNL     1      -2.552  11.666  17.795  0.00  0.00    +0.000 C 
ATOM     26  C   UNL     1      -2.784  10.967  16.461  0.00  0.00    +0.000 C 
ATOM     27  C   UNL     1      -3.034  10.222  17.729  0.00  0.00    +0.000 C 
ENDBRANCH  23  25
ENDBRANCH   6  23
TORSDOF 4
ENDMDL
MODEL 8
REMARK VINA RESULT:      -6.6      5.601      8.646
REMARK  Name = 
REMARK  4 active torsions:
REMARK  status: ('A' for Active; 'I' for Inactive)
REMARK    1  A    between atoms: C_2  and  C_3
REMARK    2  A    between atoms: C_8  and  C_9
REMARK    3  A    between atoms: C_14  and  C_15
REMARK    4  A    between atoms: C_15  and  C_17
REMARK                            x       y       z     vdW  Elec       q    Type
REMARK                         _______ _______ _______ _____ _____    ______ ____
ROOT
ATOM      1  C   UNL     1       1.353   9.621  19.113  0.00  0.00    +0.000 A 
ATOM      2  C   UNL     1       2.322   9.108  18.208  0.00  0.00    +0.000 A 
ATOM      3  C   UNL     1       2.773   7.791  18.223  0.00  0.00    +0.000 A 
ATOM      4  C   UNL     1       2.340   6.935  19.214  0.00  0.00    +0.000 A 
ATOM      5  C   UNL     1       1.480   7.417  20.194  0.00  0.00    +0.000 A 
ATOM      6  C   UNL     1       0.961   8.744  20.171  0.00  0.00    +0.000 A 
ATOM      7  O   UNL     1       2.747   5.631  19.306  0.00  0.00    +0.000 OA
ATOM      8  C   UNL     1       3.308   5.167  18.071  0.00  0.00    +0.000 C 
ATOM      9  C   UNL     1       4.269   6.186  17.477  0.00  0.00    +0.000 C 
ATOM     10  O   UNL     1       3.617   7.429  17.209  0.00  0.00    +0.000 OA
ENDROOT
BRANCH   1  16
ATOM     11  C   UNL     1      -0.472  11.324  18.426  0.00  0.00    +0.000 A 
ATOM     12  C   UNL     1      -0.897  12.654  18.263  0.00  0.00    +0.000 A 
ATOM     13  C   UNL     1      -0.063  13.690  18.635  0.00  0.00    +0.000 A 
ATOM     14  C   UNL     1       1.251  13.428  19.002  0.00  0.00    +0.000 A 
ATOM     15  C   UNL     1       1.727  12.113  19.017  0.00  0.00    +0.000 A 
ATOM     16  C   UNL     1       0.864  11.016  18.847  0.00  0.00    +0.000 A 
ATOM     17  O   UNL     1       2.114  14.399  19.439  0.00  0.00    +0.000 OA
ATOM     18  C   UNL     1       1.534  15.710  19.471  0.00  0.00    +0.000 C 
ATOM     19  C   UNL     1       0.031  15.687  19.716  0.00  0.00    +0.000 C 
ATOM     20  O   UNL     1      -0.613  14.942  18.679  0.00  0.00    +0.000 OA
BRANCH  11  22
ATOM     21  N   UNL     1      -2.367   9.603  17.966  0.00  0.00    +0.000 NA
ATOM     22  C   UNL     1      -1.503  10.343  18.169  0.00  0.00    +0.000 C 
ENDBRANCH  11  22
ENDBRANCH   1  16
BRANCH   6  23
ATOM     23  C   UNL     1       0.109   9.017  21.389  0.00  0.00    +0.000 C 
ATOM     24  O   UNL     1      -0.744   8.181  21.686  0.00  0.00    +0.000 OA
BRANCH  23  25
ATOM     25  C   UNL     1       0.200  10.249  22.234  0.00  0.00    +0.000 C 
ATOM     26  C   UNL     1      -0.756  11.408  21.979  0.00  0.00    +0.000 C 
ATOM     27  C   UNL     1      -0.932  10.572  23.201  0.00  0.00    +0.000 C 
ENDBRANCH  23  25
ENDBRANCH   6  23
TORSDOF 4
ENDMDL
MODEL 9
REMARK VINA RESULT:      -6.5      1.992      6.843
REMARK  Name = 
REMARK  4 active torsions:
REMARK  status: ('A' for Active; 'I' for Inactive)
REMARK    1  A    between atoms: C_2  and  C_3
REMARK    2  A    between atoms: C_8  and  C_9
REMARK    3  A    between atoms: C_14  and  C_15
REMARK    4  A    between atoms: C_15  and  C_17
REMARK                            x       y       z     vdW  Elec       q    Type
REMARK                         _______ _______ _______ _____ _____    ______ ____
ROOT
ATOM      1  C   UNL     1       4.136   5.758  17.643  0.00  0.00    +0.000 A 
ATOM      2  C   UNL     1       3.421   6.987  17.638  0.00  0.00    +0.000 A 
ATOM      3  C   UNL     1       2.640   7.432  18.702  0.00  0.00    +0.000 A 
ATOM      4  C   UNL     1       2.459   6.618  19.799  0.00  0.00    +0.000 A 
ATOM      5  C   UNL     1       3.042   5.355  19.807  0.00  0.00    +0.000 A 
ATOM      6  C   UNL     1       3.889   4.897  18.757  0.00  0.00    +0.000 A 
ATOM      7  O   UNL     1       1.696   6.975  20.878  0.00  0.00    +0.000 OA
ATOM      8  C   UNL     1       1.473   8.391  20.917  0.00  0.00    +0.000 C 
ATOM      9  C   UNL     1       1.092   8.934  19.549  0.00  0.00    +0.000 C 
ATOM     10  O   UNL     1       2.117   8.690  18.583  0.00  0.00    +0.000 OA
ENDROOT
BRANCH   1  16
ATOM     11  C   UNL     1       6.480   5.677  16.547  0.00  0.00    +0.000 A 
ATOM     12  C   UNL     1       7.300   5.365  15.449  0.00  0.00    +0.000 A 
ATOM     13  C   UNL     1       6.750   4.773  14.328  0.00  0.00    +0.000 A 
ATOM     14  C   UNL     1       5.371   4.647  14.214  0.00  0.00    +0.000 A 
ATOM     15  C   UNL     1       4.538   5.099  15.242  0.00  0.00    +0.000 A 
ATOM     16  C   UNL     1       5.056   5.516  16.481  0.00  0.00    +0.000 A 
ATOM     17  O   UNL     1       4.762   4.018  13.161  0.00  0.00    +0.000 OA
ATOM     18  C   UNL     1       5.683   3.512  12.184  0.00  0.00    +0.000 C 
ATOM     19  C   UNL     1       7.030   3.132  12.782  0.00  0.00    +0.000 C 
ATOM     20  O   UNL     1       7.623   4.278  13.398  0.00  0.00    +0.000 OA
BRANCH  11  22
ATOM     21  N   UNL     1       7.794   6.419  18.665  0.00  0.00    +0.000 NA
ATOM     22  C   UNL     1       7.207   6.121  17.715  0.00  0.00    +0.000 C 
ENDBRANCH  11  22
ENDBRANCH   1  16
BRANCH   6  23
ATOM     23  C   UNL     1       4.326   3.471  18.993  0.00  0.00    +0.000 C 
ATOM     24  O   UNL     1       5.344   3.290  19.661  0.00  0.00    +0.000 OA
BRANCH  23  25
ATOM     25  C   UNL     1       3.634   2.264  18.438  0.00  0.00    +0.000 C 
ATOM     26  C   UNL     1       2.237   1.907  18.929  0.00  0.00    +0.000 C 
ATOM     27  C   UNL     1       2.409   2.453  17.552  0.00  0.00    +0.000 C 
ENDBRANCH  23  25
ENDBRANCH   6  23
TORSDOF 4
ENDMDL
