MODEL 1
REMARK VINA RESULT:      -8.7      0.000      0.000
REMARK  Name = 
REMARK  8 active torsions:
REMARK  status: ('A' for Active; 'I' for Inactive)
REMARK    1  A    between atoms: C_1  and  O_2
REMARK    2  A    between atoms: O_2  and  C_3
REMARK    3  A    between atoms: C_6  and  C_7
REMARK    4  A    between atoms: N_9  and  C_10
REMARK    5  A    between atoms: C_10  and  C_11
REMARK    6  A    between atoms: C_11  and  C_12
REMARK    7  A    between atoms: N_14  and  C_15
REMARK    8  A    between atoms: C_15  and  C_16
REMARK                            x       y       z     vdW  Elec       q    Type
REMARK                         _______ _______ _______ _____ _____    ______ ____
ROOT
ATOM      1  C   UNL     1       2.370   5.657  20.386  0.00  0.00    +0.000 C 
ENDROOT
BRANCH   1   4
ATOM      2  C   UNL     1       1.000   8.964  20.092  0.00  0.00    +0.000 C 
ATOM      3  N   UNL     1       1.452   7.864  20.616  0.00  0.00    +0.000 NA
ATOM      4  N   UNL     1       2.152   6.988  19.813  0.00  0.00    +0.000 N 
ATOM      5  C   UNL     1       2.646   7.303  18.553  0.00  0.00    +0.000 C 
ATOM      6  O   UNL     1       3.225   6.508  17.817  0.00  0.00    +0.000 OA
ATOM      7  C   UNL     1       2.511   8.746  18.155  0.00  0.00    +0.000 C 
ATOM      8  C   UNL     1       1.206   9.320  18.642  0.00  0.00    +0.000 C 
BRANCH   2  12
ATOM      9  C   UNL     1      -1.397  11.594  22.489  0.00  0.00    +0.000 A 
ATOM     10  C   UNL     1      -1.180  11.870  21.137  0.00  0.00    +0.000 A 
ATOM     11  C   UNL     1      -0.392  11.021  20.356  0.00  0.00    +0.000 A 
ATOM     12  C   UNL     1       0.191   9.888  20.933  0.00  0.00    +0.000 A 
ATOM     13  C   UNL     1       0.019   9.642  22.299  0.00  0.00    +0.000 A 
ATOM     14  C   UNL     1      -0.774  10.492  23.074  0.00  0.00    +0.000 A 
BRANCH   9  16
ATOM     15  C   UNL     1      -1.583  13.703  23.529  0.00  0.00    +0.000 C 
ATOM     16  O   UNL     1      -2.204  12.477  23.151  0.00  0.00    +0.000 OA
ENDBRANCH   9  16
ENDBRANCH   2  12
ENDBRANCH   1   4
BRANCH   1  17
ATOM     17  C   UNL     1       1.339   4.649  19.892  0.00  0.00    +0.000 C 
BRANCH  17  18
ATOM     18  C   UNL     1       1.822   3.938  18.647  0.00  0.00    +0.000 C 
ATOM     19  O   UNL     1       1.106   3.676  17.695  0.00  0.00    +0.000 OA
ATOM     20  N   UNL     1       3.160   3.612  18.697  0.00  0.00    +0.000 N 
ATOM     21  H   UNL     1       3.719   3.909  19.489  0.00  0.00    +0.000 HD
BRANCH  20  22
ATOM     22  C   UNL     1       3.830   2.930  17.605  0.00  0.00    +0.000 C 
BRANCH  22  23
ATOM     23  C   UNL     1       5.009   3.760  17.165  0.00  0.00    +0.000 A 
ATOM     24  C   UNL     1       5.112   4.232  15.834  0.00  0.00    +0.000 A 
ATOM     25  C   UNL     1       6.031   5.231  15.497  0.00  0.00    +0.000 A 
ATOM     26  C   UNL     1       6.786   5.760  16.519  0.00  0.00    +0.000 A 
ATOM     27  C   UNL     1       6.744   5.248  17.799  0.00  0.00    +0.000 A 
ATOM     28  C   UNL     1       5.898   4.224  18.146  0.00  0.00    +0.000 A 
ATOM     29  O   UNL     1       7.496   5.980  18.668  0.00  0.00    +0.000 OA
ATOM     30  C   UNL     1       7.651   7.169  17.871  0.00  0.00    +0.000 C 
ATOM     31  O   UNL     1       7.545   6.891  16.458  0.00  0.00    +0.000 OA
ENDBRANCH  22  23
ENDBRANCH  20  22
ENDBRANCH  17  18
ENDBRANCH   1  17
TORSDOF 7
ENDMDL
MODEL 2
REMARK VINA RESULT:      -8.4      0.985      1.334
REMARK  Name = 
REMARK  8 active torsions:
REMARK  status: ('A' for Active; 'I' for Inactive)
REMARK    1  A    between atoms: C_1  and  O_2
REMARK    2  A    between atoms: O_2  and  C_3
REMARK    3  A    between atoms: C_6  and  C_7
REMARK    4  A    between atoms: N_9  and  C_10
REMARK    5  A    between atoms: C_10  and  C_11
REMARK    6  A    between atoms: C_11  and  C_12
REMARK    7  A    between atoms: N_14  and  C_15
REMARK    8  A    between atoms: C_15  and  C_16
REMARK                            x       y       z     vdW  Elec       q    Type
REMARK                         _______ _______ _______ _____ _____    ______ ____
ROOT
ATOM      1  C   UNL     1       2.412   6.593  20.522  0.00  0.00    +0.000 C 
ENDROOT
BRANCH   1   4
ATOM      2  C   UNL     1       0.543   9.593  19.884  0.00  0.00    +0.000 C 
ATOM      3  N   UNL     1       1.177   8.652  20.518  0.00  0.00    +0.000 NA
ATOM      4  N   UNL     1       1.973   7.788  19.796  0.00  0.00    +0.000 N 
ATOM      5  C   UNL     1       2.369   7.999  18.481  0.00  0.00    +0.000 C 
ATOM      6  O   UNL     1       3.036   7.205  17.823  0.00  0.00    +0.000 OA
ATOM      7  C   UNL     1       2.001   9.340  17.910  0.00  0.00    +0.000 C 
ATOM      8  C   UNL     1       0.642   9.777  18.390  0.00  0.00    +0.000 C 
BRANCH   2  12
ATOM      9  C   UNL     1      -2.019  12.235  22.087  0.00  0.00    +0.000 A 
ATOM     10  C   UNL     1      -1.263  11.267  22.751  0.00  0.00    +0.000 A 
ATOM     11  C   UNL     1      -0.434  10.399  22.035  0.00  0.00    +0.000 A 
ATOM     12  C   UNL     1      -0.366  10.493  20.642  0.00  0.00    +0.000 A 
ATOM     13  C   UNL     1      -1.166  11.426  19.973  0.00  0.00    +0.000 A 
ATOM     14  C   UNL     1      -1.989  12.295  20.694  0.00  0.00    +0.000 A 
BRANCH   9  16
ATOM     15  C   UNL     1      -3.480  12.385  23.934  0.00  0.00    +0.000 C 
ATOM     16  O   UNL     1      -2.775  13.047  22.887  0.00  0.00    +0.000 OA
ENDBRANCH   9  16
ENDBRANCH   2  12
ENDBRANCH   1   4
BRANCH   1  17
ATOM     17  C   UNL     1       1.502   5.399  20.257  0.00  0.00    +0.000 C 
BRANCH  17  18
ATOM     18  C   UNL     1       2.283   4.230  19.698  0.00  0.00    +0.000 C 
ATOM     19  O   UNL     1       2.566   3.233  20.343  0.00  0.00    +0.000 OA
ATOM     20  N   UNL     1       2.647   4.405  18.381  0.00  0.00    +0.000 N 
ATOM     21  H   UNL     1       2.330   5.227  17.878  0.00  0.00    +0.000 HD
BRANCH  20  22
ATOM     22  C   UNL     1       3.398   3.402  17.647  0.00  0.00    +0.000 C 
BRANCH  22  23
ATOM     23  C   UNL     1       4.715   4.000  17.219  0.00  0.00    +0.000 A 
ATOM     24  C   UNL     1       5.010   4.207  15.849  0.00  0.00    +0.000 A 
ATOM     25  C   UNL     1       6.081   5.018  15.462  0.00  0.00    +0.000 A 
ATOM     26  C   UNL     1       6.796   5.634  16.464  0.00  0.00    +0.000 A 
ATOM     27  C   UNL     1       6.561   5.372  17.797  0.00  0.00    +0.000 A 
ATOM     28  C   UNL     1       5.557   4.531  18.208  0.00  0.00    +0.000 A 
ATOM     29  O   UNL     1       7.314   6.159  18.615  0.00  0.00    +0.000 OA
ATOM     30  C   UNL     1       7.704   7.158  17.654  0.00  0.00    +0.000 C 
ATOM     31  O   UNL     1       7.701   6.642  16.305  0.00  0.00    +0.000 OA
ENDBRANCH  22  23
ENDBRANCH  20  22
ENDBRANCH  17  18
ENDBRANCH   1  17
TORSDOF 7
ENDMDL
MODEL 3
REMARK VINA RESULT:      -8.3      1.348      1.898
REMARK  Name = 
REMARK  8 active torsions:
REMARK  status: ('A' for Active; 'I' for Inactive)
REMARK    1  A    between atoms: C_1  and  O_2
REMARK    2  A    between atoms: O_2  and  C_3
REMARK    3  A    between atoms: C_6  and  C_7
REMARK    4  A    between atoms: N_9  and  C_10
REMARK    5  A    between atoms: C_10  and  C_11
REMARK    6  A    between atoms: C_11  and  C_12
REMARK    7  A    between atoms: N_14  and  C_15
REMARK    8  A    between atoms: C_15  and  C_16
REMARK                            x       y       z     vdW  Elec       q    Type
REMARK                         _______ _______ _______ _____ _____    ______ ____
ROOT
ATOM      1  C   UNL     1       2.256   6.553  20.700  0.00  0.00    +0.000 C 
ENDROOT
BRANCH   1   4
ATOM      2  C   UNL     1       0.488   9.615  20.070  0.00  0.00    +0.000 C 
ATOM      3  N   UNL     1       1.093   8.654  20.702  0.00  0.00    +0.000 NA
ATOM      4  N   UNL     1       1.854   7.762  19.976  0.00  0.00    +0.000 N 
ATOM      5  C   UNL     1       2.247   7.956  18.658  0.00  0.00    +0.000 C 
ATOM      6  O   UNL     1       2.882   7.139  17.996  0.00  0.00    +0.000 OA
ATOM      7  C   UNL     1       1.923   9.308  18.087  0.00  0.00    +0.000 C 
ATOM      8  C   UNL     1       0.583   9.793  18.575  0.00  0.00    +0.000 C 
BRANCH   2  12
ATOM      9  C   UNL     1      -2.090  12.257  22.256  0.00  0.00    +0.000 A 
ATOM     10  C   UNL     1      -2.021  12.329  20.863  0.00  0.00    +0.000 A 
ATOM     11  C   UNL     1      -1.175  11.476  20.149  0.00  0.00    +0.000 A 
ATOM     12  C   UNL     1      -0.385  10.548  20.833  0.00  0.00    +0.000 A 
ATOM     13  C   UNL     1      -0.412  10.514  22.231  0.00  0.00    +0.000 A 
ATOM     14  C   UNL     1      -1.264  11.366  22.941  0.00  0.00    +0.000 A 
BRANCH   9  16
ATOM     15  C   UNL     1      -3.253  14.304  22.112  0.00  0.00    +0.000 C 
ATOM     16  O   UNL     1      -2.968  13.120  22.851  0.00  0.00    +0.000 OA
ENDBRANCH   9  16
ENDBRANCH   2  12
ENDBRANCH   1   4
BRANCH   1  17
ATOM     17  C   UNL     1       1.338   5.374  20.396  0.00  0.00    +0.000 C 
BRANCH  17  18
ATOM     18  C   UNL     1       2.097   4.252  19.722  0.00  0.00    +0.000 C 
ATOM     19  O   UNL     1       1.573   3.226  19.318  0.00  0.00    +0.000 OA
ATOM     20  N   UNL     1       3.447   4.503  19.612  0.00  0.00    +0.000 N 
ATOM     21  H   UNL     1       3.816   5.399  19.910  0.00  0.00    +0.000 HD
BRANCH  20  22
ATOM     22  C   UNL     1       4.361   3.560  18.993  0.00  0.00    +0.000 C 
BRANCH  22  23
ATOM     23  C   UNL     1       5.162   4.281  17.939  0.00  0.00    +0.000 A 
ATOM     24  C   UNL     1       6.460   4.772  18.219  0.00  0.00    +0.000 A 
ATOM     25  C   UNL     1       7.313   5.170  17.186  0.00  0.00    +0.000 A 
ATOM     26  C   UNL     1       6.853   5.020  15.897  0.00  0.00    +0.000 A 
ATOM     27  C   UNL     1       5.563   4.617  15.625  0.00  0.00    +0.000 A 
ATOM     28  C   UNL     1       4.680   4.279  16.621  0.00  0.00    +0.000 A 
ATOM     29  O   UNL     1       5.350   4.443  14.290  0.00  0.00    +0.000 OA
ATOM     30  C   UNL     1       6.723   4.396  13.858  0.00  0.00    +0.000 C 
ATOM     31  O   UNL     1       7.599   5.107  14.760  0.00  0.00    +0.000 OA
ENDBRANCH  22  23
ENDBRANCH  20  22
ENDBRANCH  17  18
ENDBRANCH   1  17
TORSDOF 7
ENDMDL
MODEL 4
REMARK VINA RESULT:      -8.2      3.708      5.905
REMARK  Name = 
REMARK  8 active torsions:
REMARK  status: ('A' for Active; 'I' for Inactive)
REMARK    1  A    between atoms: C_1  and  O_2
REMARK    2  A    between atoms: O_2  and  C_3
REMARK    3  A    between atoms: C_6  and  C_7
REMARK    4  A    between atoms: N_9  and  C_10
REMARK    5  A    between atoms: C_10  and  C_11
REMARK    6  A    between atoms: C_11  and  C_12
REMARK    7  A    between atoms: N_14  and  C_15
REMARK    8  A    between atoms: C_15  and  C_16
REMARK                            x       y       z     vdW  Elec       q    Type
REMARK                         _______ _______ _______ _____ _____    ______ ____
ROOT
ATOM      1  C   UNL     1       6.034   4.856  17.926  0.00  0.00    +0.000 C 
ENDROOT
BRANCH   1   4
ATOM      2  C   UNL     1       3.045   6.252  19.345  0.00  0.00    +0.000 C 
ATOM      3  N   UNL     1       4.031   6.036  18.527  0.00  0.00    +0.000 NA
ATOM      4  N   UNL     1       4.779   4.887  18.682  0.00  0.00    +0.000 N 
ATOM      5  C   UNL     1       4.405   3.808  19.472  0.00  0.00    +0.000 C 
ATOM      6  O   UNL     1       5.095   2.807  19.649  0.00  0.00    +0.000 OA
ATOM      7  C   UNL     1       3.021   3.889  20.051  0.00  0.00    +0.000 C 
ATOM      8  C   UNL     1       2.687   5.300  20.459  0.00  0.00    +0.000 C 
BRANCH   2  12
ATOM      9  C   UNL     1       0.748   9.856  18.975  0.00  0.00    +0.000 A 
ATOM     10  C   UNL     1       1.453   9.352  17.881  0.00  0.00    +0.000 A 
ATOM     11  C   UNL     1       2.210   8.183  18.001  0.00  0.00    +0.000 A 
ATOM     12  C   UNL     1       2.269   7.516  19.228  0.00  0.00    +0.000 A 
ATOM     13  C   UNL     1       1.608   8.051  20.338  0.00  0.00    +0.000 A 
ATOM     14  C   UNL     1       0.848   9.218  20.212  0.00  0.00    +0.000 A 
BRANCH   9  16
ATOM     15  C   UNL     1       0.241  12.056  19.659  0.00  0.00    +0.000 C 
ATOM     16  O   UNL     1       0.021  10.990  18.740  0.00  0.00    +0.000 OA
ENDBRANCH   9  16
ENDBRANCH   2  12
ENDBRANCH   1   4
BRANCH   1  17
ATOM     17  C   UNL     1       7.067   5.822  18.496  0.00  0.00    +0.000 C 
BRANCH  17  18
ATOM     18  C   UNL     1       7.218   7.042  17.615  0.00  0.00    +0.000 C 
ATOM     19  O   UNL     1       6.702   7.152  16.515  0.00  0.00    +0.000 OA
ATOM     20  N   UNL     1       8.004   8.022  18.181  0.00  0.00    +0.000 N 
ATOM     21  H   UNL     1       8.356   7.900  19.124  0.00  0.00    +0.000 HD
BRANCH  20  22
ATOM     22  C   UNL     1       8.276   9.279  17.508  0.00  0.00    +0.000 C 
BRANCH  22  23
ATOM     23  C   UNL     1       9.145  10.129  18.400  0.00  0.00    +0.000 A 
ATOM     24  C   UNL     1      10.038  11.082  17.854  0.00  0.00    +0.000 A 
ATOM     25  C   UNL     1      10.619  12.065  18.662  0.00  0.00    +0.000 A 
ATOM     26  C   UNL     1      10.248  12.088  19.987  0.00  0.00    +0.000 A 
ATOM     27  C   UNL     1       9.440  11.115  20.537  0.00  0.00    +0.000 A 
ATOM     28  C   UNL     1       8.905  10.101  19.782  0.00  0.00    +0.000 A 
ATOM     29  O   UNL     1       9.122  11.385  21.834  0.00  0.00    +0.000 OA
ATOM     30  C   UNL     1       9.485  12.778  21.859  0.00  0.00    +0.000 C 
ATOM     31  O   UNL     1      10.494  13.094  20.875  0.00  0.00    +0.000 OA
ENDBRANCH  22  23
ENDBRANCH  20  22
ENDBRANCH  17  18
ENDBRANCH   1  17
TORSDOF 7
ENDMDL
MODEL 5
REMARK VINA RESULT:      -8.1      1.054      1.124
REMARK  Name = 
REMARK  8 active torsions:
REMARK  status: ('A' for Active; 'I' for Inactive)
REMARK    1  A    between atoms: C_1  and  O_2
REMARK    2  A    between atoms: O_2  and  C_3
REMARK    3  A    between atoms: C_6  and  C_7
REMARK    4  A    between atoms: N_9  and  C_10
REMARK    5  A    between atoms: C_10  and  C_11
REMARK    6  A    between atoms: C_11  and  C_12
REMARK    7  A    between atoms: N_14  and  C_15
REMARK    8  A    between atoms: C_15  and  C_16
REMARK                            x       y       z     vdW  Elec       q    Type
REMARK                         _______ _______ _______ _____ _____    ______ ____
ROOT
ATOM      1  C   UNL     1       2.311   6.492  20.620  0.00  0.00    +0.000 C 
ENDROOT
BRANCH   1   4
ATOM      2  C   UNL     1       0.664   9.575  19.795  0.00  0.00    +0.000 C 
ATOM      3  N   UNL     1       1.208   8.621  20.490  0.00  0.00    +0.000 NA
ATOM      4  N   UNL     1       1.980   7.684  19.835  0.00  0.00    +0.000 N 
ATOM      5  C   UNL     1       2.446   7.822  18.533  0.00  0.00    +0.000 C 
ATOM      6  O   UNL     1       3.091   6.966  17.934  0.00  0.00    +0.000 OA
ATOM      7  C   UNL     1       2.189   9.161  17.901  0.00  0.00    +0.000 C 
ATOM      8  C   UNL     1       0.839   9.697  18.302  0.00  0.00    +0.000 C 
BRANCH   2  12
ATOM      9  C   UNL     1      -1.943  12.350  21.771  0.00  0.00    +0.000 A 
ATOM     10  C   UNL     1      -2.037  12.151  20.392  0.00  0.00    +0.000 A 
ATOM     11  C   UNL     1      -1.182  11.255  19.744  0.00  0.00    +0.000 A 
ATOM     12  C   UNL     1      -0.221  10.556  20.479  0.00  0.00    +0.000 A 
ATOM     13  C   UNL     1      -0.090  10.796  21.851  0.00  0.00    +0.000 A 
ATOM     14  C   UNL     1      -0.951  11.690  22.495  0.00  0.00    +0.000 A 
BRANCH   9  16
ATOM     15  C   UNL     1      -4.202  12.800  22.283  0.00  0.00    +0.000 C 
ATOM     16  O   UNL     1      -2.844  13.230  22.305  0.00  0.00    +0.000 OA
ENDBRANCH   9  16
ENDBRANCH   2  12
ENDBRANCH   1   4
BRANCH   1  17
ATOM     17  C   UNL     1       1.389   5.322  20.296  0.00  0.00    +0.000 C 
BRANCH  17  18
ATOM     18  C   UNL     1       2.140   4.214  19.589  0.00  0.00    +0.000 C 
ATOM     19  O   UNL     1       1.595   3.297  18.997  0.00  0.00    +0.000 OA
ATOM     20  N   UNL     1       3.508   4.345  19.683  0.00  0.00    +0.000 N 
ATOM     21  H   UNL     1       3.904   5.161  20.136  0.00  0.00    +0.000 HD
BRANCH  20  22
ATOM     22  C   UNL     1       4.419   3.393  19.073  0.00  0.00    +0.000 C 
BRANCH  22  23
ATOM     23  C   UNL     1       5.457   4.152  18.286  0.00  0.00    +0.000 A 
ATOM     24  C   UNL     1       5.311   4.357  16.893  0.00  0.00    +0.000 A 
ATOM     25  C   UNL     1       6.101   5.294  16.220  0.00  0.00    +0.000 A 
ATOM     26  C   UNL     1       6.982   6.033  16.977  0.00  0.00    +0.000 A 
ATOM     27  C   UNL     1       7.181   5.781  18.318  0.00  0.00    +0.000 A 
ATOM     28  C   UNL     1       6.467   4.823  18.993  0.00  0.00    +0.000 A 
ATOM     29  O   UNL     1       8.022   6.688  18.890  0.00  0.00    +0.000 OA
ATOM     30  C   UNL     1       7.973   7.701  17.869  0.00  0.00    +0.000 C 
ATOM     31  O   UNL     1       7.651   7.150  16.573  0.00  0.00    +0.000 OA
ENDBRANCH  22  23
ENDBRANCH  20  22
ENDBRANCH  17  18
ENDBRANCH   1  17
TORSDOF 7
ENDMDL
MODEL 6
REMARK VINA RESULT:      -7.9      2.854      9.209
REMARK  Name = 
REMARK  8 active torsions:
REMARK  status: ('A' for Active; 'I' for Inactive)
REMARK    1  A    between atoms: C_1  and  O_2
REMARK    2  A    between atoms: O_2  and  C_3
REMARK    3  A    between atoms: C_6  and  C_7
REMARK    4  A    between atoms: N_9  and  C_10
REMARK    5  A    between atoms: C_10  and  C_11
REMARK    6  A    between atoms: C_11  and  C_12
REMARK    7  A    between atoms: N_14  and  C_15
REMARK    8  A    between atoms: C_15  and  C_16
REMARK                            x       y       z     vdW  Elec       q    Type
REMARK                         _______ _______ _______ _____ _____    ______ ____
ROOT
ATOM      1  C   UNL     1       1.184   5.909  20.166  0.00  0.00    +0.000 C 
ENDROOT
BRANCH   1   4
ATOM      2  C   UNL     1       3.985   4.217  18.686  0.00  0.00    +0.000 C 
ATOM      3  N   UNL     1       3.200   5.171  19.089  0.00  0.00    +0.000 NA
ATOM      4  N   UNL     1       2.198   4.866  19.987  0.00  0.00    +0.000 N 
ATOM      5  C   UNL     1       2.121   3.679  20.704  0.00  0.00    +0.000 C 
ATOM      6  O   UNL     1       1.202   3.387  21.465  0.00  0.00    +0.000 OA
ATOM      7  C   UNL     1       3.309   2.769  20.565  0.00  0.00    +0.000 C 
ATOM      8  C   UNL     1       3.844   2.791  19.157  0.00  0.00    +0.000 C 
BRANCH   2  12
ATOM      9  C   UNL     1       6.946   5.131  15.719  0.00  0.00    +0.000 A 
ATOM     10  C   UNL     1       6.045   4.084  15.519  0.00  0.00    +0.000 A 
ATOM     11  C   UNL     1       5.085   3.778  16.488  0.00  0.00    +0.000 A 
ATOM     12  C   UNL     1       5.031   4.520  17.671  0.00  0.00    +0.000 A 
ATOM     13  C   UNL     1       5.969   5.532  17.896  0.00  0.00    +0.000 A 
ATOM     14  C   UNL     1       6.924   5.838  16.921  0.00  0.00    +0.000 A 
BRANCH   9  16
ATOM     15  C   UNL     1       7.392   4.924  13.412  0.00  0.00    +0.000 C 
ATOM     16  O   UNL     1       7.826   5.359  14.697  0.00  0.00    +0.000 OA
ENDBRANCH   9  16
ENDBRANCH   2  12
ENDBRANCH   1   4
BRANCH   1  17
ATOM     17  C   UNL     1       1.780   7.191  20.736  0.00  0.00    +0.000 C 
BRANCH  17  18
ATOM     18  C   UNL     1       1.737   8.313  19.721  0.00  0.00    +0.000 C 
ATOM     19  O   UNL     1       2.342   8.292  18.662  0.00  0.00    +0.000 OA
ATOM     20  N   UNL     1       0.943   9.367  20.116  0.00  0.00    +0.000 N 
ATOM     21  H   UNL     1       0.415   9.301  20.980  0.00  0.00    +0.000 HD
BRANCH  20  22
ATOM     22  C   UNL     1       0.756  10.546  19.289  0.00  0.00    +0.000 C 
BRANCH  22  23
ATOM     23  C   UNL     1      -0.675  10.586  18.818  0.00  0.00    +0.000 A 
ATOM     24  C   UNL     1      -1.606  11.486  19.391  0.00  0.00    +0.000 A 
ATOM     25  C   UNL     1      -2.835  11.736  18.773  0.00  0.00    +0.000 A 
ATOM     26  C   UNL     1      -3.071  11.110  17.570  0.00  0.00    +0.000 A 
ATOM     27  C   UNL     1      -2.202  10.175  17.050  0.00  0.00    +0.000 A 
ATOM     28  C   UNL     1      -1.016   9.860  17.666  0.00  0.00    +0.000 A 
ATOM     29  O   UNL     1      -2.582   9.755  15.810  0.00  0.00    +0.000 OA
ATOM     30  C   UNL     1      -3.513  10.808  15.502  0.00  0.00    +0.000 C 
ATOM     31  O   UNL     1      -4.074  11.402  16.693  0.00  0.00    +0.000 OA
ENDBRANCH  22  23
ENDBRANCH  20  22
ENDBRANCH  17  18
ENDBRANCH   1  17
TORSDOF 7
ENDMDL
MODEL 7
REMARK VINA RESULT:      -7.9      4.264      6.558
REMARK  Name = 
REMARK  8 active torsions:
REMARK  status: ('A' for Active; 'I' for Inactive)
REMARK    1  A    between atoms: C_1  and  O_2
REMARK    2  A    between atoms: O_2  and  C_3
REMARK    3  A    between atoms: C_6  and  C_7
REMARK    4  A    between atoms: N_9  and  C_10
REMARK    5  A    between atoms: C_10  and  C_11
REMARK    6  A    between atoms: C_11  and  C_12
REMARK    7  A    between atoms: N_14  and  C_15
REMARK    8  A    between atoms: C_15  and  C_16
REMARK                            x       y       z     vdW  Elec       q    Type
REMARK                         _______ _______ _______ _____ _____    ______ ____
ROOT
ATOM      1  C   UNL     1       6.699   6.188  16.697  0.00  0.00    +0.000 C 
ENDROOT
BRANCH   1   4
ATOM      2  C   UNL     1       3.380   6.517  18.029  0.00  0.00    +0.000 C 
ATOM      3  N   UNL     1       4.520   6.820  17.483  0.00  0.00    +0.000 NA
ATOM      4  N   UNL     1       5.325   5.798  17.024  0.00  0.00    +0.000 N 
ATOM      5  C   UNL     1       4.906   4.485  16.854  0.00  0.00    +0.000 C 
ATOM      6  O   UNL     1       5.637   3.566  16.493  0.00  0.00    +0.000 OA
ATOM      7  C   UNL     1       3.435   4.252  17.054  0.00  0.00    +0.000 C 
ATOM      8  C   UNL     1       2.904   5.094  18.185  0.00  0.00    +0.000 C 
BRANCH   2  12
ATOM      9  C   UNL     1       0.866   9.620  19.595  0.00  0.00    +0.000 A 
ATOM     10  C   UNL     1       1.315   9.674  18.275  0.00  0.00    +0.000 A 
ATOM     11  C   UNL     1       2.142   8.669  17.764  0.00  0.00    +0.000 A 
ATOM     12  C   UNL     1       2.530   7.605  18.584  0.00  0.00    +0.000 A 
ATOM     13  C   UNL     1       2.125   7.580  19.922  0.00  0.00    +0.000 A 
ATOM     14  C   UNL     1       1.294   8.585  20.426  0.00  0.00    +0.000 A 
BRANCH   9  16
ATOM     15  C   UNL     1      -1.094  10.856  19.150  0.00  0.00    +0.000 C 
ATOM     16  O   UNL     1       0.042  10.641  19.982  0.00  0.00    +0.000 OA
ENDBRANCH   9  16
ENDBRANCH   2  12
ENDBRANCH   1   4
BRANCH   1  17
ATOM     17  C   UNL     1       6.941   7.675  16.933  0.00  0.00    +0.000 C 
BRANCH  17  18
ATOM     18  C   UNL     1       7.908   7.895  18.076  0.00  0.00    +0.000 C 
ATOM     19  O   UNL     1       8.298   7.006  18.815  0.00  0.00    +0.000 OA
ATOM     20  N   UNL     1       8.305   9.208  18.201  0.00  0.00    +0.000 N 
ATOM     21  H   UNL     1       7.995   9.893  17.519  0.00  0.00    +0.000 HD
BRANCH  20  22
ATOM     22  C   UNL     1       9.234   9.641  19.229  0.00  0.00    +0.000 C 
BRANCH  22  23
ATOM     23  C   UNL     1       9.624  11.072  18.960  0.00  0.00    +0.000 A 
ATOM     24  C   UNL     1      10.230  11.444  17.735  0.00  0.00    +0.000 A 
ATOM     25  C   UNL     1      10.323  12.788  17.362  0.00  0.00    +0.000 A 
ATOM     26  C   UNL     1       9.762  13.716  18.210  0.00  0.00    +0.000 A 
ATOM     27  C   UNL     1       9.243  13.364  19.438  0.00  0.00    +0.000 A 
ATOM     28  C   UNL     1       9.195  12.058  19.860  0.00  0.00    +0.000 A 
ATOM     29  O   UNL     1       8.656  14.419  20.068  0.00  0.00    +0.000 OA
ATOM     30  C   UNL     1       8.532  15.303  18.939  0.00  0.00    +0.000 C 
ATOM     31  O   UNL     1       9.523  15.028  17.924  0.00  0.00    +0.000 OA
ENDBRANCH  22  23
ENDBRANCH  20  22
ENDBRANCH  17  18
ENDBRANCH   1  17
TORSDOF 7
ENDMDL
MODEL 8
REMARK VINA RESULT:      -7.8      1.244      1.556
REMARK  Name = 
REMARK  8 active torsions:
REMARK  status: ('A' for Active; 'I' for Inactive)
REMARK    1  A    between atoms: C_1  and  O_2
REMARK    2  A    between atoms: O_2  and  C_3
REMARK    3  A    between atoms: C_6  and  C_7
REMARK    4  A    between atoms: N_9  and  C_10
REMARK    5  A    between atoms: C_10  and  C_11
REMARK    6  A    between atoms: C_11  and  C_12
REMARK    7  A    between atoms: N_14  and  C_15
REMARK    8  A    between atoms: C_15  and  C_16
REMARK                            x       y       z     vdW  Elec       q    Type
REMARK                         _______ _______ _______ _____ _____    ______ ____
ROOT
ATOM      1  C   UNL     1       2.160   6.846  20.665  0.00  0.00    +0.000 C 
ENDROOT
BRANCH   1   4
ATOM      2  C   UNL     1       0.695  10.104  20.290  0.00  0.00    +0.000 C 
ATOM      3  N   UNL     1       1.272   9.072  20.828  0.00  0.00    +0.000 NA
ATOM      4  N   UNL     1       1.795   8.101  20.000  0.00  0.00    +0.000 N 
ATOM      5  C   UNL     1       1.995   8.257  18.634  0.00  0.00    +0.000 C 
ATOM      6  O   UNL     1       2.413   7.375  17.889  0.00  0.00    +0.000 OA
ATOM      7  C   UNL     1       1.748   9.643  18.107  0.00  0.00    +0.000 C 
ATOM      8  C   UNL     1       0.571  10.282  18.797  0.00  0.00    +0.000 C 
BRANCH   2  12
ATOM      9  C   UNL     1      -1.049  13.038  22.889  0.00  0.00    +0.000 A 
ATOM     10  C   UNL     1      -1.446  11.701  22.965  0.00  0.00    +0.000 A 
ATOM     11  C   UNL     1      -0.886  10.745  22.113  0.00  0.00    +0.000 A 
ATOM     12  C   UNL     1       0.073  11.129  21.171  0.00  0.00    +0.000 A 
ATOM     13  C   UNL     1       0.430  12.476  21.058  0.00  0.00    +0.000 A 
ATOM     14  C   UNL     1      -0.129  13.428  21.916  0.00  0.00    +0.000 A 
BRANCH   9  16
ATOM     15  C   UNL     1      -3.037  13.676  23.987  0.00  0.00    +0.000 C 
ATOM     16  O   UNL     1      -1.642  13.883  23.786  0.00  0.00    +0.000 OA
ENDBRANCH   9  16
ENDBRANCH   2  12
ENDBRANCH   1   4
BRANCH   1  17
ATOM     17  C   UNL     1       1.113   5.760  20.446  0.00  0.00    +0.000 C 
BRANCH  17  18
ATOM     18  C   UNL     1       1.748   4.483  19.941  0.00  0.00    +0.000 C 
ATOM     19  O   UNL     1       1.866   3.472  20.615  0.00  0.00    +0.000 OA
ATOM     20  N   UNL     1       2.185   4.577  18.638  0.00  0.00    +0.000 N 
ATOM     21  H   UNL     1       2.005   5.422  18.108  0.00  0.00    +0.000 HD
BRANCH  20  22
ATOM     22  C   UNL     1       2.821   3.465  17.955  0.00  0.00    +0.000 C 
BRANCH  22  23
ATOM     23  C   UNL     1       4.259   3.823  17.680  0.00  0.00    +0.000 A 
ATOM     24  C   UNL     1       4.708   4.076  16.361  0.00  0.00    +0.000 A 
ATOM     25  C   UNL     1       5.944   4.687  16.130  0.00  0.00    +0.000 A 
ATOM     26  C   UNL     1       6.673   5.068  17.234  0.00  0.00    +0.000 A 
ATOM     27  C   UNL     1       6.275   4.752  18.516  0.00  0.00    +0.000 A 
ATOM     28  C   UNL     1       5.097   4.096  18.772  0.00  0.00    +0.000 A 
ATOM     29  O   UNL     1       7.089   5.307  19.457  0.00  0.00    +0.000 OA
ATOM     30  C   UNL     1       7.745   6.283  18.626  0.00  0.00    +0.000 C 
ATOM     31  O   UNL     1       7.763   5.887  17.237  0.00  0.00    +0.000 OA
ENDBRANCH  22  23
ENDBRANCH  20  22
ENDBRANCH  17  18
ENDBRANCH   1  17
TORSDOF 7
ENDMDL
MODEL 9
REMARK VINA RESULT:      -7.6      3.831      5.969
REMARK  Name = 
REMARK  8 active torsions:
REMARK  status: ('A' for Active; 'I' for Inactive)
REMARK    1  A    between atoms: C_1  and  O_2
REMARK    2  A    between atoms: O_2  and  C_3
REMARK    3  A    between atoms: C_6  and  C_7
REMARK    4  A    between atoms: N_9  and  C_10
REMARK    5  A    between atoms: C_10  and  C_11
REMARK    6  A    between atoms: C_11  and  C_12
REMARK    7  A    between atoms: N_14  and  C_15
REMARK    8  A    between atoms: C_15  and  C_16
REMARK                            x       y       z     vdW  Elec       q    Type
REMARK                         _______ _______ _______ _____ _____    ______ ____
ROOT
ATOM      1  C   UNL     1       6.576   5.528  19.349  0.00  0.00    +0.000 C 
ENDROOT
BRANCH   1   4
ATOM      2  C   UNL     1       3.201   6.502  18.601  0.00  0.00    +0.000 C 
ATOM      3  N   UNL     1       4.460   6.577  18.913  0.00  0.00    +0.000 NA
ATOM      4  N   UNL     1       5.259   5.470  18.710  0.00  0.00    +0.000 N 
ATOM      5  C   UNL     1       4.891   4.366  17.952  0.00  0.00    +0.000 C 
ATOM      6  O   UNL     1       5.583   3.360  17.813  0.00  0.00    +0.000 OA
ATOM      7  C   UNL     1       3.593   4.504  17.207  0.00  0.00    +0.000 C 
ATOM      8  C   UNL     1       2.577   5.253  18.029  0.00  0.00    +0.000 C 
BRANCH   2  12
ATOM      9  C   UNL     1       0.589   9.820  19.355  0.00  0.00    +0.000 A 
ATOM     10  C   UNL     1       1.094   9.595  18.073  0.00  0.00    +0.000 A 
ATOM     11  C   UNL     1       1.953   8.520  17.826  0.00  0.00    +0.000 A 
ATOM     12  C   UNL     1       2.316   7.667  18.872  0.00  0.00    +0.000 A 
ATOM     13  C   UNL     1       1.855   7.924  20.167  0.00  0.00    +0.000 A 
ATOM     14  C   UNL     1       0.992   8.997  20.407  0.00  0.00    +0.000 A 
BRANCH   9  16
ATOM     15  C   UNL     1       0.349  12.108  19.876  0.00  0.00    +0.000 C 
ATOM     16  O   UNL     1      -0.262  10.883  19.479  0.00  0.00    +0.000 OA
ENDBRANCH   9  16
ENDBRANCH   2  12
ENDBRANCH   1   4
BRANCH   1  17
ATOM     17  C   UNL     1       7.690   5.771  18.338  0.00  0.00    +0.000 C 
BRANCH  17  18
ATOM     18  C   UNL     1       7.512   7.101  17.638  0.00  0.00    +0.000 C 
ATOM     19  O   UNL     1       6.871   7.246  16.610  0.00  0.00    +0.000 OA
ATOM     20  N   UNL     1       8.153   8.138  18.280  0.00  0.00    +0.000 N 
ATOM     21  H   UNL     1       8.619   7.969  19.164  0.00  0.00    +0.000 HD
BRANCH  20  22
ATOM     22  C   UNL     1       8.108   9.501  17.781  0.00  0.00    +0.000 C 
BRANCH  22  23
ATOM     23  C   UNL     1       9.167  10.310  18.485  0.00  0.00    +0.000 A 
ATOM     24  C   UNL     1      10.173  10.988  17.754  0.00  0.00    +0.000 A 
ATOM     25  C   UNL     1      10.968  11.964  18.363  0.00  0.00    +0.000 A 
ATOM     26  C   UNL     1      10.696  12.263  19.679  0.00  0.00    +0.000 A 
ATOM     27  C   UNL     1       9.772  11.551  20.414  0.00  0.00    +0.000 A 
ATOM     28  C   UNL     1       9.021  10.544  19.861  0.00  0.00    +0.000 A 
ATOM     29  O   UNL     1       9.593  12.076  21.659  0.00  0.00    +0.000 OA
ATOM     30  C   UNL     1      10.191  13.367  21.437  0.00  0.00    +0.000 C 
ATOM     31  O   UNL     1      11.171  13.335  20.375  0.00  0.00    +0.000 OA
ENDBRANCH  22  23
ENDBRANCH  20  22
ENDBRANCH  17  18
ENDBRANCH   1  17
TORSDOF 7
ENDMDL
