MODEL 1
REMARK VINA RESULT:      -6.1      0.000      0.000
REMARK  Name = 
REMARK  10 active torsions:
REMARK  status: ('A' for Active; 'I' for Inactive)
REMARK    1  A    between atoms: C_1  and  C_2
REMARK    2  A    between atoms: C_2  and  C_3
REMARK    3  A    between atoms: C_2  and  N_8
REMARK    4  A    between atoms: C_3  and  S_4
REMARK    5  A    between atoms: S_4  and  C_5
REMARK    6  A    between atoms: N_8  and  C_9
REMARK    7  A    between atoms: C_9  and  C_10
REMARK    8  A    between atoms: C_9  and  C_11
REMARK    9  A    between atoms: C_9  and  C_12
REMARK   10  A    between atoms: C_12  and  C_13
REMARK                            x       y       z     vdW  Elec       q    Type
REMARK                         _______ _______ _______ _____ _____    ______ ____
ROOT
ATOM      1  C   UNL     1       2.928   6.483  18.579  0.00  0.00    +0.000 C 
ATOM      2  C   UNL     1       1.908   5.658  17.770  0.00  0.00    +0.000 C 
ATOM      3  C   UNL     1       2.206   7.479  19.512  0.00  0.00    +0.000 C 
ENDROOT
BRANCH   1   4
ATOM      4  N   UNL     1       3.799   5.559  19.396  0.00  0.00    +0.000 NA
ATOM      5  H   UNL     1       4.773   5.843  19.277  0.00  0.00    +0.000 HD
BRANCH   4   7
ATOM      6  C   UNL     1       5.005   3.422  18.800  0.00  0.00    +0.000 C 
ATOM      7  C   UNL     1       3.674   4.090  19.197  0.00  0.00    +0.000 C 
BRANCH   7   8
ATOM      8  C   UNL     1       3.261   3.354  20.491  0.00  0.00    +0.000 C 
BRANCH   8   9
ATOM      9  S   UNL     1       1.526   3.240  20.843  0.00  0.00    +0.000 S 
ATOM     10  C   UNL     1       0.839   2.394  19.457  0.00  0.00    +0.000 C 
ATOM     11  O   UNL     1       1.343   2.425  22.032  0.00  0.00    +0.000 OA
ATOM     12  O   UNL     1       0.999   4.597  20.809  0.00  0.00    +0.000 OA
ENDBRANCH   8   9
ENDBRANCH   7   8
ENDBRANCH   4   7
ENDBRANCH   1   4
BRANCH   1  13
ATOM     13  C   UNL     1       3.850   7.287  17.565  0.00  0.00    +0.000 C 
BRANCH  13  14
ATOM     14  C   UNL     1       5.100   6.573  17.037  0.00  0.00    +0.000 A 
ATOM     15  C   UNL     1       6.324   6.663  17.725  0.00  0.00    +0.000 A 
ATOM     16  C   UNL     1       7.438   5.919  17.326  0.00  0.00    +0.000 A 
ATOM     17  C   UNL     1       7.367   5.104  16.199  0.00  0.00    +0.000 A 
ATOM     18  C   UNL     1       6.179   5.050  15.475  0.00  0.00    +0.000 A 
ATOM     19 BR   UNL     1       6.083   3.955  13.934  0.00  0.00    +0.000 Br
ATOM     20  C   UNL     1       5.054   5.776  15.882  0.00  0.00    +0.000 A 
ENDBRANCH  13  14
ENDBRANCH   1  13
TORSDOF 6
ENDMDL
MODEL 2
REMARK VINA RESULT:      -6.0      2.834      4.418
REMARK  Name = 
REMARK  10 active torsions:
REMARK  status: ('A' for Active; 'I' for Inactive)
REMARK    1  A    between atoms: C_1  and  C_2
REMARK    2  A    between atoms: C_2  and  C_3
REMARK    3  A    between atoms: C_2  and  N_8
REMARK    4  A    between atoms: C_3  and  S_4
REMARK    5  A    between atoms: S_4  and  C_5
REMARK    6  A    between atoms: N_8  and  C_9
REMARK    7  A    between atoms: C_9  and  C_10
REMARK    8  A    between atoms: C_9  and  C_11
REMARK    9  A    between atoms: C_9  and  C_12
REMARK   10  A    between atoms: C_12  and  C_13
REMARK                            x       y       z     vdW  Elec       q    Type
REMARK                         _______ _______ _______ _____ _____    ______ ____
ROOT
ATOM      1  C   UNL     1       4.511   4.995  18.006  0.00  0.00    +0.000 C 
ATOM      2  C   UNL     1       5.187   5.767  19.156  0.00  0.00    +0.000 C 
ATOM      3  C   UNL     1       5.129   5.390  16.648  0.00  0.00    +0.000 C 
ENDROOT
BRANCH   1   4
ATOM      4  N   UNL     1       4.669   3.510  18.225  0.00  0.00    +0.000 NA
ATOM      5  H   UNL     1       4.995   3.087  17.355  0.00  0.00    +0.000 HD
BRANCH   4   7
ATOM      6  C   UNL     1       3.499   1.273  18.278  0.00  0.00    +0.000 C 
ATOM      7  C   UNL     1       3.517   2.736  18.762  0.00  0.00    +0.000 C 
BRANCH   7   8
ATOM      8  C   UNL     1       3.554   2.617  20.302  0.00  0.00    +0.000 C 
BRANCH   8   9
ATOM      9  S   UNL     1       2.125   3.170  21.195  0.00  0.00    +0.000 S 
ATOM     10  C   UNL     1       0.831   3.205  19.998  0.00  0.00    +0.000 C 
ATOM     11  O   UNL     1       1.801   2.185  22.213  0.00  0.00    +0.000 OA
ATOM     12  O   UNL     1       2.378   4.551  21.580  0.00  0.00    +0.000 OA
ENDBRANCH   8   9
ENDBRANCH   7   8
ENDBRANCH   4   7
ENDBRANCH   1   4
BRANCH   1  13
ATOM     13  C   UNL     1       2.962   5.347  18.000  0.00  0.00    +0.000 C 
BRANCH  13  14
ATOM     14  C   UNL     1       2.566   6.776  18.390  0.00  0.00    +0.000 A 
ATOM     15  C   UNL     1       2.637   7.823  17.453  0.00  0.00    +0.000 A 
ATOM     16  C   UNL     1       2.164   9.103  17.756  0.00  0.00    +0.000 A 
ATOM     17  C   UNL     1       1.652   9.377  19.023  0.00  0.00    +0.000 A 
ATOM     18  C   UNL     1       1.629   8.365  19.979  0.00  0.00    +0.000 A 
ATOM     19 BR   UNL     1       0.947   8.737  21.705  0.00  0.00    +0.000 Br
ATOM     20  C   UNL     1       2.082   7.076  19.674  0.00  0.00    +0.000 A 
ENDBRANCH  13  14
ENDBRANCH   1  13
TORSDOF 6
ENDMDL
MODEL 3
REMARK VINA RESULT:      -5.9      2.239      3.412
REMARK  Name = 
REMARK  10 active torsions:
REMARK  status: ('A' for Active; 'I' for Inactive)
REMARK    1  A    between atoms: C_1  and  C_2
REMARK    2  A    between atoms: C_2  and  C_3
REMARK    3  A    between atoms: C_2  and  N_8
REMARK    4  A    between atoms: C_3  and  S_4
REMARK    5  A    between atoms: S_4  and  C_5
REMARK    6  A    between atoms: N_8  and  C_9
REMARK    7  A    between atoms: C_9  and  C_10
REMARK    8  A    between atoms: C_9  and  C_11
REMARK    9  A    between atoms: C_9  and  C_12
REMARK   10  A    between atoms: C_12  and  C_13
REMARK                            x       y       z     vdW  Elec       q    Type
REMARK                         _______ _______ _______ _____ _____    ______ ____
ROOT
ATOM      1  C   UNL     1       5.406   5.447  16.997  0.00  0.00    +0.000 C 
ATOM      2  C   UNL     1       5.130   6.538  15.944  0.00  0.00    +0.000 C 
ATOM      3  C   UNL     1       6.311   5.993  18.122  0.00  0.00    +0.000 C 
ENDROOT
BRANCH   1   4
ATOM      4  N   UNL     1       4.102   4.960  17.582  0.00  0.00    +0.000 NA
ATOM      5  H   UNL     1       3.384   5.008  16.857  0.00  0.00    +0.000 HD
BRANCH   4   7
ATOM      6  C   UNL     1       2.587   6.720  18.574  0.00  0.00    +0.000 C 
ATOM      7  C   UNL     1       3.598   5.586  18.834  0.00  0.00    +0.000 C 
BRANCH   7   8
ATOM      8  C   UNL     1       2.816   4.587  19.717  0.00  0.00    +0.000 C 
BRANCH   8   9
ATOM      9  S   UNL     1       3.532   2.982  19.958  0.00  0.00    +0.000 S 
ATOM     10  C   UNL     1       2.713   1.943  18.793  0.00  0.00    +0.000 C 
ATOM     11  O   UNL     1       4.945   3.046  19.623  0.00  0.00    +0.000 OA
ATOM     12  O   UNL     1       3.122   2.533  21.281  0.00  0.00    +0.000 OA
ENDBRANCH   8   9
ENDBRANCH   7   8
ENDBRANCH   4   7
ENDBRANCH   1   4
BRANCH   1  13
ATOM     13  C   UNL     1       6.132   4.226  16.285  0.00  0.00    +0.000 C 
BRANCH  13  14
ATOM     14  C   UNL     1       6.342   4.323  14.770  0.00  0.00    +0.000 A 
ATOM     15  C   UNL     1       7.489   4.941  14.240  0.00  0.00    +0.000 A 
ATOM     16  C   UNL     1       7.755   4.927  12.867  0.00  0.00    +0.000 A 
ATOM     17  C   UNL     1       6.852   4.335  11.987  0.00  0.00    +0.000 A 
ATOM     18  C   UNL     1       5.684   3.769  12.492  0.00  0.00    +0.000 A 
ATOM     19 BR   UNL     1       4.448   2.976  11.297  0.00  0.00    +0.000 Br
ATOM     20  C   UNL     1       5.423   3.762  13.866  0.00  0.00    +0.000 A 
ENDBRANCH  13  14
ENDBRANCH   1  13
TORSDOF 6
ENDMDL
MODEL 4
REMARK VINA RESULT:      -5.9      2.305      3.535
REMARK  Name = 
REMARK  10 active torsions:
REMARK  status: ('A' for Active; 'I' for Inactive)
REMARK    1  A    between atoms: C_1  and  C_2
REMARK    2  A    between atoms: C_2  and  C_3
REMARK    3  A    between atoms: C_2  and  N_8
REMARK    4  A    between atoms: C_3  and  S_4
REMARK    5  A    between atoms: S_4  and  C_5
REMARK    6  A    between atoms: N_8  and  C_9
REMARK    7  A    between atoms: C_9  and  C_10
REMARK    8  A    between atoms: C_9  and  C_11
REMARK    9  A    between atoms: C_9  and  C_12
REMARK   10  A    between atoms: C_12  and  C_13
REMARK                            x       y       z     vdW  Elec       q    Type
REMARK                         _______ _______ _______ _____ _____    ______ ____
ROOT
ATOM      1  C   UNL     1       5.519   5.552  16.900  0.00  0.00    +0.000 C 
ATOM      2  C   UNL     1       5.214   6.606  15.817  0.00  0.00    +0.000 C 
ATOM      3  C   UNL     1       6.327   6.177  18.057  0.00  0.00    +0.000 C 
ENDROOT
BRANCH   1   4
ATOM      4  N   UNL     1       4.229   4.977  17.431  0.00  0.00    +0.000 NA
ATOM      5  H   UNL     1       3.537   4.984  16.680  0.00  0.00    +0.000 HD
BRANCH   4   7
ATOM      6  C   UNL     1       2.792   6.818  18.392  0.00  0.00    +0.000 C 
ATOM      7  C   UNL     1       3.637   5.559  18.666  0.00  0.00    +0.000 C 
BRANCH   7   8
ATOM      8  C   UNL     1       2.649   4.593  19.357  0.00  0.00    +0.000 C 
BRANCH   8   9
ATOM      9  S   UNL     1       1.901   3.337  18.349  0.00  0.00    +0.000 S 
ATOM     10  C   UNL     1       0.685   2.592  19.386  0.00  0.00    +0.000 C 
ATOM     11  O   UNL     1       1.238   3.976  17.225  0.00  0.00    +0.000 OA
ATOM     12  O   UNL     1       2.923   2.328  18.108  0.00  0.00    +0.000 OA
ENDBRANCH   8   9
ENDBRANCH   7   8
ENDBRANCH   4   7
ENDBRANCH   1   4
BRANCH   1  13
ATOM     13  C   UNL     1       6.366   4.379  16.242  0.00  0.00    +0.000 C 
BRANCH  13  14
ATOM     14  C   UNL     1       6.547   4.414  14.720  0.00  0.00    +0.000 A 
ATOM     15  C   UNL     1       7.630   5.099  14.140  0.00  0.00    +0.000 A 
ATOM     16  C   UNL     1       7.878   5.036  12.765  0.00  0.00    +0.000 A 
ATOM     17  C   UNL     1       7.018   4.323  11.932  0.00  0.00    +0.000 A 
ATOM     18  C   UNL     1       5.909   3.688  12.486  0.00  0.00    +0.000 A 
ATOM     19 BR   UNL     1       4.730   2.732  11.355  0.00  0.00    +0.000 Br
ATOM     20  C   UNL     1       5.668   3.731  13.863  0.00  0.00    +0.000 A 
ENDBRANCH  13  14
ENDBRANCH   1  13
TORSDOF 6
ENDMDL
MODEL 5
REMARK VINA RESULT:      -5.9      3.537      5.607
REMARK  Name = 
REMARK  10 active torsions:
REMARK  status: ('A' for Active; 'I' for Inactive)
REMARK    1  A    between atoms: C_1  and  C_2
REMARK    2  A    between atoms: C_2  and  C_3
REMARK    3  A    between atoms: C_2  and  N_8
REMARK    4  A    between atoms: C_3  and  S_4
REMARK    5  A    between atoms: S_4  and  C_5
REMARK    6  A    between atoms: N_8  and  C_9
REMARK    7  A    between atoms: C_9  and  C_10
REMARK    8  A    between atoms: C_9  and  C_11
REMARK    9  A    between atoms: C_9  and  C_12
REMARK   10  A    between atoms: C_12  and  C_13
REMARK                            x       y       z     vdW  Elec       q    Type
REMARK                         _______ _______ _______ _____ _____    ______ ____
ROOT
ATOM      1  C   UNL     1       3.027   3.593  18.172  0.00  0.00    +0.000 C 
ATOM      2  C   UNL     1       1.503   3.698  17.967  0.00  0.00    +0.000 C 
ATOM      3  C   UNL     1       3.444   2.126  18.410  0.00  0.00    +0.000 C 
ENDROOT
BRANCH   1   4
ATOM      4  N   UNL     1       3.745   4.138  16.961  0.00  0.00    +0.000 NA
ATOM      5  H   UNL     1       3.381   3.669  16.131  0.00  0.00    +0.000 HD
BRANCH   4   7
ATOM      6  C   UNL     1       5.809   3.874  15.530  0.00  0.00    +0.000 C 
ATOM      7  C   UNL     1       5.233   4.119  16.939  0.00  0.00    +0.000 C 
BRANCH   7   8
ATOM      8  C   UNL     1       5.844   5.475  17.359  0.00  0.00    +0.000 C 
BRANCH   8   9
ATOM      9  S   UNL     1       7.223   5.434  18.475  0.00  0.00    +0.000 S 
ATOM     10  C   UNL     1       8.008   7.001  18.279  0.00  0.00    +0.000 C 
ATOM     11  O   UNL     1       6.720   5.323  19.834  0.00  0.00    +0.000 OA
ATOM     12  O   UNL     1       8.150   4.434  17.962  0.00  0.00    +0.000 OA
ENDBRANCH   8   9
ENDBRANCH   7   8
ENDBRANCH   4   7
ENDBRANCH   1   4
BRANCH   1  13
ATOM     13  C   UNL     1       3.430   4.465  19.438  0.00  0.00    +0.000 C 
BRANCH  13  14
ATOM     14  C   UNL     1       2.637   5.754  19.682  0.00  0.00    +0.000 A 
ATOM     15  C   UNL     1       1.893   5.928  20.863  0.00  0.00    +0.000 A 
ATOM     16  C   UNL     1       1.267   7.144  21.155  0.00  0.00    +0.000 A 
ATOM     17  C   UNL     1       1.333   8.199  20.249  0.00  0.00    +0.000 A 
ATOM     18  C   UNL     1       2.018   8.022  19.049  0.00  0.00    +0.000 A 
ATOM     19 BR   UNL     1       2.097   9.449  17.808  0.00  0.00    +0.000 Br
ATOM     20  C   UNL     1       2.663   6.815  18.761  0.00  0.00    +0.000 A 
ENDBRANCH  13  14
ENDBRANCH   1  13
TORSDOF 6
ENDMDL
MODEL 6
REMARK VINA RESULT:      -5.8      4.185      5.965
REMARK  Name = 
REMARK  10 active torsions:
REMARK  status: ('A' for Active; 'I' for Inactive)
REMARK    1  A    between atoms: C_1  and  C_2
REMARK    2  A    between atoms: C_2  and  C_3
REMARK    3  A    between atoms: C_2  and  N_8
REMARK    4  A    between atoms: C_3  and  S_4
REMARK    5  A    between atoms: S_4  and  C_5
REMARK    6  A    between atoms: N_8  and  C_9
REMARK    7  A    between atoms: C_9  and  C_10
REMARK    8  A    between atoms: C_9  and  C_11
REMARK    9  A    between atoms: C_9  and  C_12
REMARK   10  A    between atoms: C_12  and  C_13
REMARK                            x       y       z     vdW  Elec       q    Type
REMARK                         _______ _______ _______ _____ _____    ______ ____
ROOT
ATOM      1  C   UNL     1       3.082   4.348  18.205  0.00  0.00    +0.000 C 
ATOM      2  C   UNL     1       1.587   4.467  17.849  0.00  0.00    +0.000 C 
ATOM      3  C   UNL     1       3.400   2.941  18.755  0.00  0.00    +0.000 C 
ENDROOT
BRANCH   1   4
ATOM      4  N   UNL     1       3.921   4.620  16.980  0.00  0.00    +0.000 NA
ATOM      5  H   UNL     1       3.337   4.492  16.153  0.00  0.00    +0.000 HD
BRANCH   4   7
ATOM      6  C   UNL     1       5.570   3.649  15.332  0.00  0.00    +0.000 C 
ATOM      7  C   UNL     1       5.204   3.884  16.811  0.00  0.00    +0.000 C 
BRANCH   7   8
ATOM      8  C   UNL     1       6.411   4.670  17.370  0.00  0.00    +0.000 C 
BRANCH   8   9
ATOM      9  S   UNL     1       6.808   6.214  16.591  0.00  0.00    +0.000 S 
ATOM     10  C   UNL     1       7.657   7.139  17.829  0.00  0.00    +0.000 C 
ATOM     11  O   UNL     1       7.716   5.958  15.486  0.00  0.00    +0.000 OA
ATOM     12  O   UNL     1       5.546   6.898  16.347  0.00  0.00    +0.000 OA
ENDBRANCH   8   9
ENDBRANCH   7   8
ENDBRANCH   4   7
ENDBRANCH   1   4
BRANCH   1  13
ATOM     13  C   UNL     1       3.428   5.435  19.311  0.00  0.00    +0.000 C 
BRANCH  13  14
ATOM     14  C   UNL     1       2.766   6.810  19.173  0.00  0.00    +0.000 A 
ATOM     15  C   UNL     1       2.916   7.566  17.996  0.00  0.00    +0.000 A 
ATOM     16  C   UNL     1       2.219   8.764  17.807  0.00  0.00    +0.000 A 
ATOM     17  C   UNL     1       1.392   9.257  18.813  0.00  0.00    +0.000 A 
ATOM     18  C   UNL     1       1.279   8.548  20.006  0.00  0.00    +0.000 A 
ATOM     19 BR   UNL     1       0.166   9.223  21.382  0.00  0.00    +0.000 Br
ATOM     20  C   UNL     1       1.957   7.339  20.193  0.00  0.00    +0.000 A 
ENDBRANCH  13  14
ENDBRANCH   1  13
TORSDOF 6
ENDMDL
MODEL 7
REMARK VINA RESULT:      -5.8      4.342      5.965
REMARK  Name = 
REMARK  10 active torsions:
REMARK  status: ('A' for Active; 'I' for Inactive)
REMARK    1  A    between atoms: C_1  and  C_2
REMARK    2  A    between atoms: C_2  and  C_3
REMARK    3  A    between atoms: C_2  and  N_8
REMARK    4  A    between atoms: C_3  and  S_4
REMARK    5  A    between atoms: S_4  and  C_5
REMARK    6  A    between atoms: N_8  and  C_9
REMARK    7  A    between atoms: C_9  and  C_10
REMARK    8  A    between atoms: C_9  and  C_11
REMARK    9  A    between atoms: C_9  and  C_12
REMARK   10  A    between atoms: C_12  and  C_13
REMARK                            x       y       z     vdW  Elec       q    Type
REMARK                         _______ _______ _______ _____ _____    ______ ____
ROOT
ATOM      1  C   UNL     1       2.622   4.417  18.978  0.00  0.00    +0.000 C 
ATOM      2  C   UNL     1       1.727   4.906  17.822  0.00  0.00    +0.000 C 
ATOM      3  C   UNL     1       1.847   3.445  19.893  0.00  0.00    +0.000 C 
ENDROOT
BRANCH   1   4
ATOM      4  N   UNL     1       3.845   3.728  18.421  0.00  0.00    +0.000 NA
ATOM      5  H   UNL     1       4.286   3.195  19.172  0.00  0.00    +0.000 HD
BRANCH   4   7
ATOM      6  C   UNL     1       6.113   4.828  18.576  0.00  0.00    +0.000 C 
ATOM      7  C   UNL     1       4.868   4.542  17.712  0.00  0.00    +0.000 C 
BRANCH   7   8
ATOM      8  C   UNL     1       5.437   3.820  16.470  0.00  0.00    +0.000 C 
BRANCH   8   9
ATOM      9  S   UNL     1       6.373   4.795  15.320  0.00  0.00    +0.000 S 
ATOM     10  C   UNL     1       6.198   3.962  13.776  0.00  0.00    +0.000 C 
ATOM     11  O   UNL     1       5.763   6.111  15.220  0.00  0.00    +0.000 OA
ATOM     12  O   UNL     1       7.772   4.675  15.706  0.00  0.00    +0.000 OA
ENDBRANCH   8   9
ENDBRANCH   7   8
ENDBRANCH   4   7
ENDBRANCH   1   4
BRANCH   1  13
ATOM     13  C   UNL     1       3.090   5.676  19.826  0.00  0.00    +0.000 C 
BRANCH  13  14
ATOM     14  C   UNL     1       2.521   7.042  19.424  0.00  0.00    +0.000 A 
ATOM     15  C   UNL     1       2.783   7.585  18.153  0.00  0.00    +0.000 A 
ATOM     16  C   UNL     1       2.172   8.768  17.727  0.00  0.00    +0.000 A 
ATOM     17  C   UNL     1       1.319   9.461  18.583  0.00  0.00    +0.000 A 
ATOM     18  C   UNL     1       1.095   8.965  19.866  0.00  0.00    +0.000 A 
ATOM     19 BR   UNL     1      -0.051   9.913  21.037  0.00  0.00    +0.000 Br
ATOM     20  C   UNL     1       1.689   7.771  20.290  0.00  0.00    +0.000 A 
ENDBRANCH  13  14
ENDBRANCH   1  13
TORSDOF 6
ENDMDL
MODEL 8
REMARK VINA RESULT:      -5.8      4.358      6.205
REMARK  Name = 
REMARK  10 active torsions:
REMARK  status: ('A' for Active; 'I' for Inactive)
REMARK    1  A    between atoms: C_1  and  C_2
REMARK    2  A    between atoms: C_2  and  C_3
REMARK    3  A    between atoms: C_2  and  N_8
REMARK    4  A    between atoms: C_3  and  S_4
REMARK    5  A    between atoms: S_4  and  C_5
REMARK    6  A    between atoms: N_8  and  C_9
REMARK    7  A    between atoms: C_9  and  C_10
REMARK    8  A    between atoms: C_9  and  C_11
REMARK    9  A    between atoms: C_9  and  C_12
REMARK   10  A    between atoms: C_12  and  C_13
REMARK                            x       y       z     vdW  Elec       q    Type
REMARK                         _______ _______ _______ _____ _____    ______ ____
ROOT
ATOM      1  C   UNL     1       2.719   5.488  18.870  0.00  0.00    +0.000 C 
ATOM      2  C   UNL     1       1.840   4.771  17.827  0.00  0.00    +0.000 C 
ATOM      3  C   UNL     1       2.001   5.551  20.236  0.00  0.00    +0.000 C 
ENDROOT
BRANCH   1   4
ATOM      4  N   UNL     1       4.033   4.761  19.017  0.00  0.00    +0.000 NA
ATOM      5  H   UNL     1       4.215   4.618  20.012  0.00  0.00    +0.000 HD
BRANCH   4   7
ATOM      6  C   UNL     1       6.484   5.315  19.276  0.00  0.00    +0.000 C 
ATOM      7  C   UNL     1       5.244   5.324  18.360  0.00  0.00    +0.000 C 
BRANCH   7   8
ATOM      8  C   UNL     1       5.684   4.497  17.132  0.00  0.00    +0.000 C 
BRANCH   8   9
ATOM      9  S   UNL     1       6.214   5.394  15.695  0.00  0.00    +0.000 S 
ATOM     10  C   UNL     1       6.290   4.186  14.412  0.00  0.00    +0.000 C 
ATOM     11  O   UNL     1       5.198   6.378  15.359  0.00  0.00    +0.000 OA
ATOM     12  O   UNL     1       7.582   5.824  15.948  0.00  0.00    +0.000 OA
ENDBRANCH   8   9
ENDBRANCH   7   8
ENDBRANCH   4   7
ENDBRANCH   1   4
BRANCH   1  13
ATOM     13  C   UNL     1       3.008   6.965  18.361  0.00  0.00    +0.000 C 
BRANCH  13  14
ATOM     14  C   UNL     1       2.052   8.068  18.830  0.00  0.00    +0.000 A 
ATOM     15  C   UNL     1       1.430   8.923  17.901  0.00  0.00    +0.000 A 
ATOM     16  C   UNL     1       0.462   9.850  18.301  0.00  0.00    +0.000 A 
ATOM     17  C   UNL     1       0.130   9.976  19.648  0.00  0.00    +0.000 A 
ATOM     18  C   UNL     1       0.780   9.176  20.585  0.00  0.00    +0.000 A 
ATOM     19 BR   UNL     1       0.341   9.355  22.418  0.00  0.00    +0.000 Br
ATOM     20  C   UNL     1       1.734   8.232  20.188  0.00  0.00    +0.000 A 
ENDBRANCH  13  14
ENDBRANCH   1  13
TORSDOF 6
ENDMDL
MODEL 9
REMARK VINA RESULT:      -5.8      3.938      5.781
REMARK  Name = 
REMARK  10 active torsions:
REMARK  status: ('A' for Active; 'I' for Inactive)
REMARK    1  A    between atoms: C_1  and  C_2
REMARK    2  A    between atoms: C_2  and  C_3
REMARK    3  A    between atoms: C_2  and  N_8
REMARK    4  A    between atoms: C_3  and  S_4
REMARK    5  A    between atoms: S_4  and  C_5
REMARK    6  A    between atoms: N_8  and  C_9
REMARK    7  A    between atoms: C_9  and  C_10
REMARK    8  A    between atoms: C_9  and  C_11
REMARK    9  A    between atoms: C_9  and  C_12
REMARK   10  A    between atoms: C_12  and  C_13
REMARK                            x       y       z     vdW  Elec       q    Type
REMARK                         _______ _______ _______ _____ _____    ______ ____
ROOT
ATOM      1  C   UNL     1       2.840   4.094  18.868  0.00  0.00    +0.000 C 
ATOM      2  C   UNL     1       1.346   3.853  18.578  0.00  0.00    +0.000 C 
ATOM      3  C   UNL     1       3.500   2.814  19.425  0.00  0.00    +0.000 C 
ENDROOT
BRANCH   1   4
ATOM      4  N   UNL     1       3.544   4.521  17.602  0.00  0.00    +0.000 NA
ATOM      5  H   UNL     1       3.070   4.090  16.807  0.00  0.00    +0.000 HD
BRANCH   4   7
ATOM      6  C   UNL     1       5.445   3.836  16.087  0.00  0.00    +0.000 C 
ATOM      7  C   UNL     1       5.013   4.308  17.490  0.00  0.00    +0.000 C 
BRANCH   7   8
ATOM      8  C   UNL     1       5.814   5.612  17.705  0.00  0.00    +0.000 C 
BRANCH   8   9
ATOM      9  S   UNL     1       7.328   5.492  18.622  0.00  0.00    +0.000 S 
ATOM     10  C   UNL     1       8.122   7.049  18.386  0.00  0.00    +0.000 C 
ATOM     11  O   UNL     1       7.010   5.333  20.031  0.00  0.00    +0.000 OA
ATOM     12  O   UNL     1       8.150   4.496  17.949  0.00  0.00    +0.000 OA
ENDBRANCH   8   9
ENDBRANCH   7   8
ENDBRANCH   4   7
ENDBRANCH   1   4
BRANCH   1  13
ATOM     13  C   UNL     1       2.968   5.259  19.940  0.00  0.00    +0.000 C 
BRANCH  13  14
ATOM     14  C   UNL     1       2.484   6.652  19.522  0.00  0.00    +0.000 A 
ATOM     15  C   UNL     1       2.639   7.100  18.197  0.00  0.00    +0.000 A 
ATOM     16  C   UNL     1       2.092   8.315  17.771  0.00  0.00    +0.000 A 
ATOM     17  C   UNL     1       1.418   9.132  18.675  0.00  0.00    +0.000 A 
ATOM     18  C   UNL     1       1.306   8.728  20.003  0.00  0.00    +0.000 A 
ATOM     19 BR   UNL     1       0.403   9.843  21.238  0.00  0.00    +0.000 Br
ATOM     20  C   UNL     1       1.833   7.504  20.430  0.00  0.00    +0.000 A 
ENDBRANCH  13  14
ENDBRANCH   1  13
TORSDOF 6
ENDMDL
