MODEL 1
REMARK VINA RESULT:      -8.1      0.000      0.000
REMARK  Name = 
REMARK  5 active torsions:
REMARK  status: ('A' for Active; 'I' for Inactive)
REMARK    1  A    between atoms: C_1  and  N_2
REMARK    2  A    between atoms: C_10  and  C_11
REMARK    3  A    between atoms: C_19  and  N_20
REMARK    4  A    between atoms: N_20  and  C_21
REMARK    5  A    between atoms: C_24  and  O_25
REMARK                            x       y       z     vdW  Elec       q    Type
REMARK                         _______ _______ _______ _____ _____    ______ ____
ROOT
ATOM      1  C   UNL     1       1.662   3.593  17.971  0.00  0.00    +0.000 C 
ATOM      2  N   UNL     1       2.961   4.176  17.728  0.00  0.00    +0.000 N 
ATOM      3  N   UNL     1       3.700   3.642  16.735  0.00  0.00    +0.000 NA
ATOM      4  C   UNL     1       4.730   4.464  16.656  0.00  0.00    +0.000 A 
ATOM      5  N   UNL     1       5.732   4.267  15.691  0.00  0.00    +0.000 NA
ATOM      6  C   UNL     1       6.692   5.155  15.685  0.00  0.00    +0.000 A 
ATOM      7  N   UNL     1       7.709   5.071  14.764  0.00  0.00    +0.000 N 
ATOM      8  N   UNL     1       6.743   6.215  16.619  0.00  0.00    +0.000 N 
ATOM      9  N   UNL     1       7.740   7.110  16.650  0.00  0.00    +0.000 NA
ATOM     10  C   UNL     1       7.375   7.866  17.700  0.00  0.00    +0.000 A 
ATOM     11  N   UNL     1       6.198   7.470  18.328  0.00  0.00    +0.000 NA
ATOM     12  C   UNL     1       5.824   6.438  17.603  0.00  0.00    +0.000 A 
ATOM     13  C   UNL     1       4.689   5.505  17.608  0.00  0.00    +0.000 A 
ATOM     14  C   UNL     1       3.523   5.309  18.317  0.00  0.00    +0.000 A 
ATOM     15  H   UNL     1       7.843   4.153  14.360  0.00  0.00    +0.000 HD
ATOM     16  H   UNL     1       8.558   5.582  15.001  0.00  0.00    +0.000 HD
ENDROOT
BRANCH  10  17
ATOM     17  C   UNL     1       8.224   9.035  18.087  0.00  0.00    +0.000 A 
ATOM     18  C   UNL     1       8.378  10.234  17.418  0.00  0.00    +0.000 A 
ATOM     19  C   UNL     1       9.290  11.014  18.174  0.00  0.00    +0.000 A 
ATOM     20  C   UNL     1       9.644  10.246  19.261  0.00  0.00    +0.000 A 
ATOM     21  O   UNL     1       8.994   9.059  19.225  0.00  0.00    +0.000 OA
ENDBRANCH  10  17
BRANCH  14  22
ATOM     22  N   UNL     1       2.921   5.933  19.368  0.00  0.00    +0.000 N 
ATOM     23  H   UNL     1       2.638   5.398  20.185  0.00  0.00    +0.000 HD
BRANCH  22  24
ATOM     24  C   UNL     1       2.290   7.200  19.358  0.00  0.00    +0.000 A 
ATOM     25  C   UNL     1       1.664   7.755  20.480  0.00  0.00    +0.000 A 
ATOM     26  C   UNL     1       1.031   9.001  20.415  0.00  0.00    +0.000 A 
ATOM     27  C   UNL     1       1.011   9.695  19.211  0.00  0.00    +0.000 A 
ATOM     28  C   UNL     1       1.612   9.164  18.079  0.00  0.00    +0.000 A 
ATOM     29  C   UNL     1       2.247   7.921  18.154  0.00  0.00    +0.000 A 
BRANCH  27  30
ATOM     30  O   UNL     1       0.407  10.913  19.104  0.00  0.00    +0.000 OA
ATOM     31  H   UNL     1      -0.384  10.915  19.667  0.00  0.00    +0.000 HD
ENDBRANCH  27  30
ENDBRANCH  22  24
ENDBRANCH  14  22
TORSDOF 4
ENDMDL
MODEL 2
REMARK VINA RESULT:      -8.0      0.554      1.181
REMARK  Name = 
REMARK  5 active torsions:
REMARK  status: ('A' for Active; 'I' for Inactive)
REMARK    1  A    between atoms: C_1  and  N_2
REMARK    2  A    between atoms: C_10  and  C_11
REMARK    3  A    between atoms: C_19  and  N_20
REMARK    4  A    between atoms: N_20  and  C_21
REMARK    5  A    between atoms: C_24  and  O_25
REMARK                            x       y       z     vdW  Elec       q    Type
REMARK                         _______ _______ _______ _____ _____    ______ ____
ROOT
ATOM      1  C   UNL     1       1.650   3.635  18.013  0.00  0.00    +0.000 C 
ATOM      2  N   UNL     1       2.947   4.221  17.768  0.00  0.00    +0.000 N 
ATOM      3  N   UNL     1       3.708   3.657  16.808  0.00  0.00    +0.000 NA
ATOM      4  C   UNL     1       4.731   4.487  16.712  0.00  0.00    +0.000 A 
ATOM      5  N   UNL     1       5.750   4.262  15.773  0.00  0.00    +0.000 NA
ATOM      6  C   UNL     1       6.701   5.159  15.746  0.00  0.00    +0.000 A 
ATOM      7  N   UNL     1       7.734   5.050  14.846  0.00  0.00    +0.000 N 
ATOM      8  N   UNL     1       6.726   6.256  16.638  0.00  0.00    +0.000 N 
ATOM      9  N   UNL     1       7.713   7.162  16.650  0.00  0.00    +0.000 NA
ATOM     10  C   UNL     1       7.324   7.955  17.663  0.00  0.00    +0.000 A 
ATOM     11  N   UNL     1       6.141   7.571  18.287  0.00  0.00    +0.000 NA
ATOM     12  C   UNL     1       5.789   6.507  17.597  0.00  0.00    +0.000 A 
ATOM     13  C   UNL     1       4.663   5.563  17.622  0.00  0.00    +0.000 A 
ATOM     14  C   UNL     1       3.488   5.383  18.320  0.00  0.00    +0.000 A 
ATOM     15  H   UNL     1       7.884   4.118  14.481  0.00  0.00    +0.000 HD
ATOM     16  H   UNL     1       8.573   5.579  15.075  0.00  0.00    +0.000 HD
ENDROOT
BRANCH  10  17
ATOM     17  C   UNL     1       8.154   9.148  18.016  0.00  0.00    +0.000 A 
ATOM     18  C   UNL     1       9.073   9.273  19.040  0.00  0.00    +0.000 A 
ATOM     19  C   UNL     1       9.592  10.591  18.971  0.00  0.00    +0.000 A 
ATOM     20  C   UNL     1       8.958  11.198  17.911  0.00  0.00    +0.000 A 
ATOM     21  O   UNL     1       8.102  10.330  17.319  0.00  0.00    +0.000 OA
ENDBRANCH  10  17
BRANCH  14  22
ATOM     22  N   UNL     1       2.863   6.042  19.335  0.00  0.00    +0.000 N 
ATOM     23  H   UNL     1       2.557   5.533  20.162  0.00  0.00    +0.000 HD
BRANCH  22  24
ATOM     24  C   UNL     1       2.239   7.310  19.271  0.00  0.00    +0.000 A 
ATOM     25  C   UNL     1       2.233   8.106  18.120  0.00  0.00    +0.000 A 
ATOM     26  C   UNL     1       1.623   9.366  18.113  0.00  0.00    +0.000 A 
ATOM     27  C   UNL     1       1.024   9.841  19.272  0.00  0.00    +0.000 A 
ATOM     28  C   UNL     1       1.026   9.081  20.432  0.00  0.00    +0.000 A 
ATOM     29  C   UNL     1       1.632   7.821  20.430  0.00  0.00    +0.000 A 
BRANCH  27  30
ATOM     30  O   UNL     1       0.417  11.062  19.309  0.00  0.00    +0.000 OA
ATOM     31  H   UNL     1      -0.104  11.172  18.497  0.00  0.00    +0.000 HD
ENDBRANCH  27  30
ENDBRANCH  22  24
ENDBRANCH  14  22
TORSDOF 4
ENDMDL
MODEL 3
REMARK VINA RESULT:      -7.5      1.034      1.492
REMARK  Name = 
REMARK  5 active torsions:
REMARK  status: ('A' for Active; 'I' for Inactive)
REMARK    1  A    between atoms: C_1  and  N_2
REMARK    2  A    between atoms: C_10  and  C_11
REMARK    3  A    between atoms: C_19  and  N_20
REMARK    4  A    between atoms: N_20  and  C_21
REMARK    5  A    between atoms: C_24  and  O_25
REMARK                            x       y       z     vdW  Elec       q    Type
REMARK                         _______ _______ _______ _____ _____    ______ ____
ROOT
ATOM      1  C   UNL     1       2.647   2.232  17.780  0.00  0.00    +0.000 C 
ATOM      2  N   UNL     1       3.788   3.073  17.503  0.00  0.00    +0.000 N 
ATOM      3  N   UNL     1       4.499   2.801  16.390  0.00  0.00    +0.000 NA
ATOM      4  C   UNL     1       5.352   3.807  16.328  0.00  0.00    +0.000 A 
ATOM      5  N   UNL     1       6.264   3.909  15.265  0.00  0.00    +0.000 NA
ATOM      6  C   UNL     1       7.044   4.958  15.290  0.00  0.00    +0.000 A 
ATOM      7  N   UNL     1       7.956   5.170  14.282  0.00  0.00    +0.000 N 
ATOM      8  N   UNL     1       7.007   5.900  16.343  0.00  0.00    +0.000 N 
ATOM      9  N   UNL     1       7.826   6.958  16.403  0.00  0.00    +0.000 NA
ATOM     10  C   UNL     1       7.448   7.512  17.568  0.00  0.00    +0.000 A 
ATOM     11  N   UNL     1       6.435   6.834  18.238  0.00  0.00    +0.000 NA
ATOM     12  C   UNL     1       6.174   5.836  17.422  0.00  0.00    +0.000 A 
ATOM     13  C   UNL     1       5.230   4.710  17.406  0.00  0.00    +0.000 A 
ATOM     14  C   UNL     1       4.200   4.220  18.181  0.00  0.00    +0.000 A 
ATOM     15  H   UNL     1       8.207   4.343  13.754  0.00  0.00    +0.000 HD
ATOM     16  H   UNL     1       8.721   5.803  14.508  0.00  0.00    +0.000 HD
ENDROOT
BRANCH  10  17
ATOM     17  C   UNL     1       8.113   8.772  18.027  0.00  0.00    +0.000 A 
ATOM     18  C   UNL     1       8.072  10.020  17.436  0.00  0.00    +0.000 A 
ATOM     19  C   UNL     1       8.863  10.881  18.238  0.00  0.00    +0.000 A 
ATOM     20  C   UNL     1       9.346  10.110  19.271  0.00  0.00    +0.000 A 
ATOM     21  O   UNL     1       8.885   8.841  19.161  0.00  0.00    +0.000 OA
ENDBRANCH  10  17
BRANCH  14  22
ATOM     22  N   UNL     1       3.614   4.601  19.350  0.00  0.00    +0.000 N 
ATOM     23  H   UNL     1       3.434   3.913  20.078  0.00  0.00    +0.000 HD
BRANCH  22  24
ATOM     24  C   UNL     1       2.871   5.782  19.586  0.00  0.00    +0.000 A 
ATOM     25  C   UNL     1       2.954   6.917  18.770  0.00  0.00    +0.000 A 
ATOM     26  C   UNL     1       2.217   8.072  19.059  0.00  0.00    +0.000 A 
ATOM     27  C   UNL     1       1.399   8.098  20.182  0.00  0.00    +0.000 A 
ATOM     28  C   UNL     1       1.308   6.993  21.016  0.00  0.00    +0.000 A 
ATOM     29  C   UNL     1       2.042   5.841  20.718  0.00  0.00    +0.000 A 
BRANCH  27  30
ATOM     30  O   UNL     1       0.664   9.202  20.499  0.00  0.00    +0.000 OA
ATOM     31  H   UNL     1      -0.213   8.912  20.799  0.00  0.00    +0.000 HD
ENDBRANCH  27  30
ENDBRANCH  22  24
ENDBRANCH  14  22
TORSDOF 4
ENDMDL
MODEL 4
REMARK VINA RESULT:      -7.4      3.398      4.706
REMARK  Name = 
REMARK  5 active torsions:
REMARK  status: ('A' for Active; 'I' for Inactive)
REMARK    1  A    between atoms: C_1  and  N_2
REMARK    2  A    between atoms: C_10  and  C_11
REMARK    3  A    between atoms: C_19  and  N_20
REMARK    4  A    between atoms: N_20  and  C_21
REMARK    5  A    between atoms: C_24  and  O_25
REMARK                            x       y       z     vdW  Elec       q    Type
REMARK                         _______ _______ _______ _____ _____    ______ ____
ROOT
ATOM      1  C   UNL     1       0.921   8.184  20.844  0.00  0.00    +0.000 C 
ATOM      2  N   UNL     1       1.841   7.292  20.176  0.00  0.00    +0.000 N 
ATOM      3  N   UNL     1       2.052   6.088  20.742  0.00  0.00    +0.000 NA
ATOM      4  C   UNL     1       2.791   5.462  19.845  0.00  0.00    +0.000 A 
ATOM      5  N   UNL     1       3.199   4.134  20.052  0.00  0.00    +0.000 NA
ATOM      6  C   UNL     1       3.906   3.604  19.087  0.00  0.00    +0.000 A 
ATOM      7  N   UNL     1       4.334   2.301  19.176  0.00  0.00    +0.000 N 
ATOM      8  N   UNL     1       4.277   4.335  17.936  0.00  0.00    +0.000 N 
ATOM      9  N   UNL     1       5.033   3.820  16.958  0.00  0.00    +0.000 NA
ATOM     10  C   UNL     1       5.143   4.874  16.132  0.00  0.00    +0.000 A 
ATOM     11  N   UNL     1       4.494   6.027  16.564  0.00  0.00    +0.000 NA
ATOM     12  C   UNL     1       3.946   5.637  17.695  0.00  0.00    +0.000 A 
ATOM     13  C   UNL     1       3.094   6.257  18.719  0.00  0.00    +0.000 A 
ATOM     14  C   UNL     1       2.470   7.466  18.943  0.00  0.00    +0.000 A 
ATOM     15  H   UNL     1       4.367   1.926  20.116  0.00  0.00    +0.000 HD
ATOM     16  H   UNL     1       5.115   2.053  18.570  0.00  0.00    +0.000 HD
ENDROOT
BRANCH  10  17
ATOM     17  C   UNL     1       5.913   4.727  14.858  0.00  0.00    +0.000 A 
ATOM     18  C   UNL     1       5.611   3.934  13.767  0.00  0.00    +0.000 A 
ATOM     19  C   UNL     1       6.645   4.130  12.816  0.00  0.00    +0.000 A 
ATOM     20  C   UNL     1       7.521   5.029  13.381  0.00  0.00    +0.000 A 
ATOM     21  O   UNL     1       7.079   5.406  14.604  0.00  0.00    +0.000 OA
ENDBRANCH  10  17
BRANCH  14  22
ATOM     22  N   UNL     1       2.393   8.646  18.269  0.00  0.00    +0.000 N 
ATOM     23  H   UNL     1       3.240   9.087  17.914  0.00  0.00    +0.000 HD
BRANCH  22  24
ATOM     24  C   UNL     1       1.320   9.568  18.283  0.00  0.00    +0.000 A 
ATOM     25  C   UNL     1       0.061   9.290  17.738  0.00  0.00    +0.000 A 
ATOM     26  C   UNL     1      -0.963  10.245  17.754  0.00  0.00    +0.000 A 
ATOM     27  C   UNL     1      -0.722  11.496  18.309  0.00  0.00    +0.000 A 
ATOM     28  C   UNL     1       0.520  11.805  18.844  0.00  0.00    +0.000 A 
ATOM     29  C   UNL     1       1.536  10.844  18.829  0.00  0.00    +0.000 A 
BRANCH  27  30
ATOM     30  O   UNL     1      -1.691  12.454  18.346  0.00  0.00    +0.000 OA
ATOM     31  H   UNL     1      -2.447  12.108  18.848  0.00  0.00    +0.000 HD
ENDBRANCH  27  30
ENDBRANCH  22  24
ENDBRANCH  14  22
TORSDOF 4
ENDMDL
MODEL 5
REMARK VINA RESULT:      -7.4      3.419      4.824
REMARK  Name = 
REMARK  5 active torsions:
REMARK  status: ('A' for Active; 'I' for Inactive)
REMARK    1  A    between atoms: C_1  and  N_2
REMARK    2  A    between atoms: C_10  and  C_11
REMARK    3  A    between atoms: C_19  and  N_20
REMARK    4  A    between atoms: N_20  and  C_21
REMARK    5  A    between atoms: C_24  and  O_25
REMARK                            x       y       z     vdW  Elec       q    Type
REMARK                         _______ _______ _______ _____ _____    ______ ____
ROOT
ATOM      1  C   UNL     1       0.585   8.485  21.124  0.00  0.00    +0.000 C 
ATOM      2  N   UNL     1       1.485   7.550  20.490  0.00  0.00    +0.000 N 
ATOM      3  N   UNL     1       1.591   6.325  21.042  0.00  0.00    +0.000 NA
ATOM      4  C   UNL     1       2.339   5.670  20.174  0.00  0.00    +0.000 A 
ATOM      5  N   UNL     1       2.654   4.316  20.376  0.00  0.00    +0.000 NA
ATOM      6  C   UNL     1       3.379   3.760  19.442  0.00  0.00    +0.000 A 
ATOM      7  N   UNL     1       3.722   2.431  19.527  0.00  0.00    +0.000 N 
ATOM      8  N   UNL     1       3.857   4.486  18.327  0.00  0.00    +0.000 N 
ATOM      9  N   UNL     1       4.634   3.941  17.381  0.00  0.00    +0.000 NA
ATOM     10  C   UNL     1       4.853   5.001  16.584  0.00  0.00    +0.000 A 
ATOM     11  N   UNL     1       4.253   6.184  17.003  0.00  0.00    +0.000 NA
ATOM     12  C   UNL     1       3.620   5.810  18.094  0.00  0.00    +0.000 A 
ATOM     13  C   UNL     1       2.752   6.464  19.083  0.00  0.00    +0.000 A 
ATOM     14  C   UNL     1       2.190   7.705  19.297  0.00  0.00    +0.000 A 
ATOM     15  H   UNL     1       3.680   2.040  20.459  0.00  0.00    +0.000 HD
ATOM     16  H   UNL     1       4.518   2.146  18.960  0.00  0.00    +0.000 HD
ENDROOT
BRANCH  10  17
ATOM     17  C   UNL     1       5.683   4.827  15.351  0.00  0.00    +0.000 A 
ATOM     18  C   UNL     1       5.441   4.001  14.271  0.00  0.00    +0.000 A 
ATOM     19  C   UNL     1       6.514   4.183  13.363  0.00  0.00    +0.000 A 
ATOM     20  C   UNL     1       7.354   5.108  13.941  0.00  0.00    +0.000 A 
ATOM     21  O   UNL     1       6.852   5.514  15.132  0.00  0.00    +0.000 OA
ENDBRANCH  10  17
BRANCH  14  22
ATOM     22  N   UNL     1       2.224   8.899  18.643  0.00  0.00    +0.000 N 
ATOM     23  H   UNL     1       3.114   9.361  18.468  0.00  0.00    +0.000 HD
BRANCH  22  24
ATOM     24  C   UNL     1       1.151   9.804  18.466  0.00  0.00    +0.000 A 
ATOM     25  C   UNL     1       1.172  11.123  18.935  0.00  0.00    +0.000 A 
ATOM     26  C   UNL     1       0.075  11.973  18.758  0.00  0.00    +0.000 A 
ATOM     27  C   UNL     1      -1.062  11.498  18.117  0.00  0.00    +0.000 A 
ATOM     28  C   UNL     1      -1.118  10.191  17.653  0.00  0.00    +0.000 A 
ATOM     29  C   UNL     1      -0.016   9.349  17.829  0.00  0.00    +0.000 A 
BRANCH  27  30
ATOM     30  O   UNL     1      -2.153  12.292  17.922  0.00  0.00    +0.000 OA
ATOM     31  H   UNL     1      -2.483  12.147  17.020  0.00  0.00    +0.000 HD
ENDBRANCH  27  30
ENDBRANCH  22  24
ENDBRANCH  14  22
TORSDOF 4
ENDMDL
MODEL 6
REMARK VINA RESULT:      -7.2      8.440     11.791
REMARK  Name = 
REMARK  5 active torsions:
REMARK  status: ('A' for Active; 'I' for Inactive)
REMARK    1  A    between atoms: C_1  and  N_2
REMARK    2  A    between atoms: C_10  and  C_11
REMARK    3  A    between atoms: C_19  and  N_20
REMARK    4  A    between atoms: N_20  and  C_21
REMARK    5  A    between atoms: C_24  and  O_25
REMARK                            x       y       z     vdW  Elec       q    Type
REMARK                         _______ _______ _______ _____ _____    ______ ____
ROOT
ATOM      1  C   UNL     1      -2.980  14.690  24.976  0.00  0.00    +0.000 C 
ATOM      2  N   UNL     1      -3.534  14.097  23.781  0.00  0.00    +0.000 N 
ATOM      3  N   UNL     1      -4.855  14.263  23.566  0.00  0.00    +0.000 NA
ATOM      4  C   UNL     1      -5.025  13.762  22.356  0.00  0.00    +0.000 A 
ATOM      5  N   UNL     1      -6.288  13.782  21.743  0.00  0.00    +0.000 NA
ATOM      6  C   UNL     1      -6.336  13.283  20.535  0.00  0.00    +0.000 A 
ATOM      7  N   UNL     1      -7.519  13.278  19.833  0.00  0.00    +0.000 N 
ATOM      8  N   UNL     1      -5.204  12.716  19.908  0.00  0.00    +0.000 N 
ATOM      9  N   UNL     1      -5.246  12.166  18.688  0.00  0.00    +0.000 NA
ATOM     10  C   UNL     1      -3.978  11.743  18.550  0.00  0.00    +0.000 A 
ATOM     11  N   UNL     1      -3.153  12.000  19.641  0.00  0.00    +0.000 NA
ATOM     12  C   UNL     1      -3.961  12.630  20.466  0.00  0.00    +0.000 A 
ATOM     13  C   UNL     1      -3.839  13.239  21.797  0.00  0.00    +0.000 A 
ATOM     14  C   UNL     1      -2.859  13.458  22.742  0.00  0.00    +0.000 A 
ATOM     15  H   UNL     1      -8.352  13.353  20.403  0.00  0.00    +0.000 HD
ATOM     16  H   UNL     1      -7.567  12.618  19.059  0.00  0.00    +0.000 HD
ENDROOT
BRANCH  10  17
ATOM     17  C   UNL     1      -3.567  11.069  17.280  0.00  0.00    +0.000 A 
ATOM     18  C   UNL     1      -2.725   9.984  17.125  0.00  0.00    +0.000 A 
ATOM     19  C   UNL     1      -2.641   9.723  15.734  0.00  0.00    +0.000 A 
ATOM     20  C   UNL     1      -3.433  10.664  15.116  0.00  0.00    +0.000 A 
ATOM     21  O   UNL     1      -4.008  11.469  16.042  0.00  0.00    +0.000 OA
ENDBRANCH  10  17
BRANCH  14  22
ATOM     22  N   UNL     1      -1.530  13.172  22.830  0.00  0.00    +0.000 N 
ATOM     23  H   UNL     1      -0.849  13.925  22.889  0.00  0.00    +0.000 HD
BRANCH  22  24
ATOM     24  C   UNL     1      -0.897  11.952  22.493  0.00  0.00    +0.000 A 
ATOM     25  C   UNL     1      -1.118  10.754  23.182  0.00  0.00    +0.000 A 
ATOM     26  C   UNL     1      -0.448   9.578  22.825  0.00  0.00    +0.000 A 
ATOM     27  C   UNL     1       0.463   9.602  21.777  0.00  0.00    +0.000 A 
ATOM     28  C   UNL     1       0.714  10.777  21.085  0.00  0.00    +0.000 A 
ATOM     29  C   UNL     1       0.036  11.947  21.443  0.00  0.00    +0.000 A 
BRANCH  27  30
ATOM     30  O   UNL     1       1.136   8.479  21.396  0.00  0.00    +0.000 OA
ATOM     31  H   UNL     1       1.724   8.708  20.658  0.00  0.00    +0.000 HD
ENDBRANCH  27  30
ENDBRANCH  22  24
ENDBRANCH  14  22
TORSDOF 4
ENDMDL
MODEL 7
REMARK VINA RESULT:      -7.2      5.329      8.735
REMARK  Name = 
REMARK  5 active torsions:
REMARK  status: ('A' for Active; 'I' for Inactive)
REMARK    1  A    between atoms: C_1  and  N_2
REMARK    2  A    between atoms: C_10  and  C_11
REMARK    3  A    between atoms: C_19  and  N_20
REMARK    4  A    between atoms: N_20  and  C_21
REMARK    5  A    between atoms: C_24  and  O_25
REMARK                            x       y       z     vdW  Elec       q    Type
REMARK                         _______ _______ _______ _____ _____    ______ ____
ROOT
ATOM      1  C   UNL     1      -3.804  14.008  21.017  0.00  0.00    +0.000 C 
ATOM      2  N   UNL     1      -2.755  13.031  21.193  0.00  0.00    +0.000 N 
ATOM      3  N   UNL     1      -2.512  12.606  22.448  0.00  0.00    +0.000 NA
ATOM      4  C   UNL     1      -1.638  11.632  22.270  0.00  0.00    +0.000 A 
ATOM      5  N   UNL     1      -1.154  10.894  23.362  0.00  0.00    +0.000 NA
ATOM      6  C   UNL     1      -0.313   9.937  23.068  0.00  0.00    +0.000 A 
ATOM      7  N   UNL     1       0.202   9.136  24.060  0.00  0.00    +0.000 N 
ATOM      8  N   UNL     1       0.117   9.692  21.744  0.00  0.00    +0.000 N 
ATOM      9  N   UNL     1       1.006   8.741  21.431  0.00  0.00    +0.000 NA
ATOM     10  C   UNL     1       1.120   8.919  20.103  0.00  0.00    +0.000 A 
ATOM     11  N   UNL     1       0.344   9.950  19.582  0.00  0.00    +0.000 NA
ATOM     12  C   UNL     1      -0.286  10.397  20.647  0.00  0.00    +0.000 A 
ATOM     13  C   UNL     1      -1.283  11.442  20.917  0.00  0.00    +0.000 A 
ATOM     14  C   UNL     1      -2.018  12.370  20.210  0.00  0.00    +0.000 A 
ATOM     15  H   UNL     1       0.167   9.534  24.990  0.00  0.00    +0.000 HD
ATOM     16  H   UNL     1       1.057   8.637  23.821  0.00  0.00    +0.000 HD
ENDROOT
BRANCH  10  17
ATOM     17  C   UNL     1       2.026   8.022  19.321  0.00  0.00    +0.000 A 
ATOM     18  C   UNL     1       2.564   8.238  18.067  0.00  0.00    +0.000 A 
ATOM     19  C   UNL     1       3.347   7.099  17.753  0.00  0.00    +0.000 A 
ATOM     20  C   UNL     1       3.242   6.249  18.830  0.00  0.00    +0.000 A 
ATOM     21  O   UNL     1       2.460   6.805  19.787  0.00  0.00    +0.000 OA
ENDBRANCH  10  17
BRANCH  14  22
ATOM     22  N   UNL     1      -2.115  12.719  18.897  0.00  0.00    +0.000 N 
ATOM     23  H   UNL     1      -2.049  13.696  18.623  0.00  0.00    +0.000 HD
BRANCH  22  24
ATOM     24  C   UNL     1      -2.659  11.942  17.847  0.00  0.00    +0.000 A 
ATOM     25  C   UNL     1      -1.874  11.234  16.929  0.00  0.00    +0.000 A 
ATOM     26  C   UNL     1      -2.459  10.499  15.891  0.00  0.00    +0.000 A 
ATOM     27  C   UNL     1      -3.842  10.482  15.760  0.00  0.00    +0.000 A 
ATOM     28  C   UNL     1      -4.644  11.186  16.646  0.00  0.00    +0.000 A 
ATOM     29  C   UNL     1      -4.054  11.913  17.684  0.00  0.00    +0.000 A 
BRANCH  27  30
ATOM     30  O   UNL     1      -4.453   9.779  14.764  0.00  0.00    +0.000 OA
ATOM     31  H   UNL     1      -5.324  10.173  14.598  0.00  0.00    +0.000 HD
ENDBRANCH  27  30
ENDBRANCH  22  24
ENDBRANCH  14  22
TORSDOF 4
ENDMDL
MODEL 8
REMARK VINA RESULT:      -7.1      4.359      7.614
REMARK  Name = 
REMARK  5 active torsions:
REMARK  status: ('A' for Active; 'I' for Inactive)
REMARK    1  A    between atoms: C_1  and  N_2
REMARK    2  A    between atoms: C_10  and  C_11
REMARK    3  A    between atoms: C_19  and  N_20
REMARK    4  A    between atoms: N_20  and  C_21
REMARK    5  A    between atoms: C_24  and  O_25
REMARK                            x       y       z     vdW  Elec       q    Type
REMARK                         _______ _______ _______ _____ _____    ______ ____
ROOT
ATOM      1  C   UNL     1       2.934   7.786  17.778  0.00  0.00    +0.000 C 
ATOM      2  N   UNL     1       3.033   6.645  18.658  0.00  0.00    +0.000 N 
ATOM      3  N   UNL     1       1.972   6.382  19.447  0.00  0.00    +0.000 NA
ATOM      4  C   UNL     1       2.291   5.226  20.000  0.00  0.00    +0.000 A 
ATOM      5  N   UNL     1       1.406   4.584  20.881  0.00  0.00    +0.000 NA
ATOM      6  C   UNL     1       1.812   3.433  21.349  0.00  0.00    +0.000 A 
ATOM      7  N   UNL     1       1.011   2.707  22.198  0.00  0.00    +0.000 N 
ATOM      8  N   UNL     1       3.079   2.894  21.029  0.00  0.00    +0.000 N 
ATOM      9  N   UNL     1       3.525   1.735  21.531  0.00  0.00    +0.000 NA
ATOM     10  C   UNL     1       4.752   1.672  20.985  0.00  0.00    +0.000 A 
ATOM     11  N   UNL     1       5.088   2.750  20.172  0.00  0.00    +0.000 NA
ATOM     12  C   UNL     1       3.999   3.486  20.213  0.00  0.00    +0.000 A 
ATOM     13  C   UNL     1       3.561   4.752  19.608  0.00  0.00    +0.000 A 
ATOM     14  C   UNL     1       4.050   5.692  18.726  0.00  0.00    +0.000 A 
ATOM     15  H   UNL     1       0.300   3.246  22.678  0.00  0.00    +0.000 HD
ATOM     16  H   UNL     1       1.488   2.003  22.758  0.00  0.00    +0.000 HD
ENDROOT
BRANCH  10  17
ATOM     17  C   UNL     1       5.618   0.486  21.272  0.00  0.00    +0.000 A 
ATOM     18  C   UNL     1       5.769  -0.661  20.518  0.00  0.00    +0.000 A 
ATOM     19  C   UNL     1       6.690  -1.490  21.208  0.00  0.00    +0.000 A 
ATOM     20  C   UNL     1       7.048  -0.804  22.346  0.00  0.00    +0.000 A 
ATOM     21  O   UNL     1       6.419   0.396  22.384  0.00  0.00    +0.000 OA
ENDBRANCH  10  17
BRANCH  14  22
ATOM     22  N   UNL     1       5.208   5.841  18.025  0.00  0.00    +0.000 N 
ATOM     23  H   UNL     1       5.842   6.606  18.245  0.00  0.00    +0.000 HD
BRANCH  22  24
ATOM     24  C   UNL     1       5.517   5.285  16.762  0.00  0.00    +0.000 A 
ATOM     25  C   UNL     1       5.544   6.032  15.578  0.00  0.00    +0.000 A 
ATOM     26  C   UNL     1       5.831   5.431  14.348  0.00  0.00    +0.000 A 
ATOM     27  C   UNL     1       6.081   4.065  14.296  0.00  0.00    +0.000 A 
ATOM     28  C   UNL     1       6.049   3.296  15.450  0.00  0.00    +0.000 A 
ATOM     29  C   UNL     1       5.767   3.905  16.677  0.00  0.00    +0.000 A 
BRANCH  27  30
ATOM     30  O   UNL     1       6.366   3.440  13.118  0.00  0.00    +0.000 OA
ATOM     31  H   UNL     1       6.955   4.012  12.600  0.00  0.00    +0.000 HD
ENDBRANCH  27  30
ENDBRANCH  22  24
ENDBRANCH  14  22
TORSDOF 4
ENDMDL
MODEL 9
REMARK VINA RESULT:      -6.9      7.118     11.107
REMARK  Name = 
REMARK  5 active torsions:
REMARK  status: ('A' for Active; 'I' for Inactive)
REMARK    1  A    between atoms: C_1  and  N_2
REMARK    2  A    between atoms: C_10  and  C_11
REMARK    3  A    between atoms: C_19  and  N_20
REMARK    4  A    between atoms: N_20  and  C_21
REMARK    5  A    between atoms: C_24  and  O_25
REMARK                            x       y       z     vdW  Elec       q    Type
REMARK                         _______ _______ _______ _____ _____    ______ ____
ROOT
ATOM      1  C   UNL     1      -2.502  10.022  15.309  0.00  0.00    +0.000 C 
ATOM      2  N   UNL     1      -3.147  10.745  16.380  0.00  0.00    +0.000 N 
ATOM      3  N   UNL     1      -4.490  10.847  16.333  0.00  0.00    +0.000 NA
ATOM      4  C   UNL     1      -4.788  11.406  17.492  0.00  0.00    +0.000 A 
ATOM      5  N   UNL     1      -6.124  11.651  17.847  0.00  0.00    +0.000 NA
ATOM      6  C   UNL     1      -6.305  12.184  19.028  0.00  0.00    +0.000 A 
ATOM      7  N   UNL     1      -7.575  12.441  19.487  0.00  0.00    +0.000 N 
ATOM      8  N   UNL     1      -5.225  12.536  19.869  0.00  0.00    +0.000 N 
ATOM      9  N   UNL     1      -5.392  13.118  21.063  0.00  0.00    +0.000 NA
ATOM     10  C   UNL     1      -4.115  13.288  21.449  0.00  0.00    +0.000 A 
ATOM     11  N   UNL     1      -3.163  12.844  20.537  0.00  0.00    +0.000 NA
ATOM     12  C   UNL     1      -3.906  12.361  19.565  0.00  0.00    +0.000 A 
ATOM     13  C   UNL     1      -3.653  11.703  18.276  0.00  0.00    +0.000 A 
ATOM     14  C   UNL     1      -2.571  11.269  17.537  0.00  0.00    +0.000 A 
ATOM     15  H   UNL     1      -8.282  12.514  18.765  0.00  0.00    +0.000 HD
ATOM     16  H   UNL     1      -7.640  13.119  20.243  0.00  0.00    +0.000 HD
ENDROOT
BRANCH  10  17
ATOM     17  C   UNL     1      -3.832  13.905  22.782  0.00  0.00    +0.000 A 
ATOM     18  C   UNL     1      -3.329  13.294  23.914  0.00  0.00    +0.000 A 
ATOM     19  C   UNL     1      -3.247  14.290  24.920  0.00  0.00    +0.000 A 
ATOM     20  C   UNL     1      -3.708  15.454  24.347  0.00  0.00    +0.000 A 
ATOM     21  O   UNL     1      -4.047  15.234  23.054  0.00  0.00    +0.000 OA
ENDBRANCH  10  17
BRANCH  14  22
ATOM     22  N   UNL     1      -1.221  11.287  17.712  0.00  0.00    +0.000 N 
ATOM     23  H   UNL     1      -0.623  11.729  17.018  0.00  0.00    +0.000 HD
BRANCH  22  24
ATOM     24  C   UNL     1      -0.461  10.453  18.566  0.00  0.00    +0.000 A 
ATOM     25  C   UNL     1      -0.744  10.284  19.926  0.00  0.00    +0.000 A 
ATOM     26  C   UNL     1       0.053   9.467  20.736  0.00  0.00    +0.000 A 
ATOM     27  C   UNL     1       1.152   8.821  20.185  0.00  0.00    +0.000 A 
ATOM     28  C   UNL     1       1.465   8.980  18.842  0.00  0.00    +0.000 A 
ATOM     29  C   UNL     1       0.661   9.793  18.038  0.00  0.00    +0.000 A 
BRANCH  27  30
ATOM     30  O   UNL     1       1.954   8.015  20.937  0.00  0.00    +0.000 OA
ATOM     31  H   UNL     1       1.541   7.137  20.995  0.00  0.00    +0.000 HD
ENDBRANCH  27  30
ENDBRANCH  22  24
ENDBRANCH  14  22
TORSDOF 4
ENDMDL
