MODEL 1
REMARK VINA RESULT:      -7.4      0.000      0.000
REMARK  Name = 
REMARK  11 active torsions:
REMARK  status: ('A' for Active; 'I' for Inactive)
REMARK    1  A    between atoms: C_1  and  O_2
REMARK    2  A    between atoms: O_2  and  C_3
REMARK    3  A    between atoms: C_3  and  C_4
REMARK    4  A    between atoms: C_6  and  C_7
REMARK    5  A    between atoms: C_9  and  N_10
REMARK    6  A    between atoms: N_10  and  C_11
REMARK    7  A    between atoms: C_11  and  C_12
REMARK    8  A    between atoms: C_12  and  C_13
REMARK    9  A    between atoms: C_12  and  C_15
REMARK   10  A    between atoms: C_13  and  O_14
REMARK   11  A    between atoms: C_15  and  C_16
REMARK                            x       y       z     vdW  Elec       q    Type
REMARK                         _______ _______ _______ _____ _____    ______ ____
ROOT
ATOM      1  C   UNL     1       4.630   3.694  19.116  0.00  0.00    +0.000 C 
ENDROOT
BRANCH   1   2
ATOM      2  N   UNL     1       6.051   3.666  18.811  0.00  0.00    +0.000 N 
ATOM      3  H   UNL     1       6.654   3.643  19.640  0.00  0.00    +0.000 HD
BRANCH   2   9
ATOM      4  C   UNL     1       7.057   5.188  15.774  0.00  0.00    +0.000 A 
ATOM      5  N   UNL     1       7.452   6.436  16.103  0.00  0.00    +0.000 NA
ATOM      6  C   UNL     1       7.408   6.760  17.406  0.00  0.00    +0.000 A 
ATOM      7  C   UNL     1       7.873   8.130  17.798  0.00  0.00    +0.000 C 
ATOM      8  C   UNL     1       6.960   5.880  18.370  0.00  0.00    +0.000 A 
ATOM      9  C   UNL     1       6.578   4.621  17.953  0.00  0.00    +0.000 A 
ATOM     10  N   UNL     1       6.616   4.270  16.662  0.00  0.00    +0.000 NA
BRANCH   4  11
ATOM     11  C   UNL     1       7.010   4.825  14.306  0.00  0.00    +0.000 C 
BRANCH  11  13
ATOM     12  C   UNL     1       5.928   3.460  12.720  0.00  0.00    +0.000 C 
ATOM     13  O   UNL     1       5.805   4.128  13.966  0.00  0.00    +0.000 OA
ENDBRANCH  11  13
ENDBRANCH   4  11
ENDBRANCH   2   9
ENDBRANCH   1   2
BRANCH   1  14
ATOM     14  C   UNL     1       3.809   3.145  17.927  0.00  0.00    +0.000 C 
BRANCH  14  15
ATOM     15  C   UNL     1       3.330   1.709  18.185  0.00  0.00    +0.000 C 
BRANCH  15  16
ATOM     16  O   UNL     1       1.910   1.627  18.209  0.00  0.00    +0.000 OA
ATOM     17  H   UNL     1       1.574   2.050  17.399  0.00  0.00    +0.000 HD
ENDBRANCH  15  16
ENDBRANCH  14  15
BRANCH  14  18
ATOM     18  C   UNL     1       2.584   4.047  17.636  0.00  0.00    +0.000 C 
BRANCH  18  19
ATOM     19  C   UNL     1       2.334   5.092  18.705  0.00  0.00    +0.000 A 
ATOM     20  C   UNL     1       1.583   4.733  19.837  0.00  0.00    +0.000 A 
ATOM     21  C   UNL     1       1.260   5.703  20.776  0.00  0.00    +0.000 A 
ATOM     22  N   UNL     1       1.644   6.991  20.681  0.00  0.00    +0.000 NA
ATOM     23  C   UNL     1       2.394   7.318  19.602  0.00  0.00    +0.000 A 
ATOM     24  C   UNL     1       2.763   6.422  18.603  0.00  0.00    +0.000 A 
ATOM     25 CL   UNL     1       3.699   7.009  17.282  0.00  0.00    +0.000 Cl
ENDBRANCH  18  19
ENDBRANCH  14  18
ENDBRANCH   1  14
TORSDOF 9
ENDMDL
MODEL 2
REMARK VINA RESULT:      -7.0      1.657      2.980
REMARK  Name = 
REMARK  11 active torsions:
REMARK  status: ('A' for Active; 'I' for Inactive)
REMARK    1  A    between atoms: C_1  and  O_2
REMARK    2  A    between atoms: O_2  and  C_3
REMARK    3  A    between atoms: C_3  and  C_4
REMARK    4  A    between atoms: C_6  and  C_7
REMARK    5  A    between atoms: C_9  and  N_10
REMARK    6  A    between atoms: N_10  and  C_11
REMARK    7  A    between atoms: C_11  and  C_12
REMARK    8  A    between atoms: C_12  and  C_13
REMARK    9  A    between atoms: C_12  and  C_15
REMARK   10  A    between atoms: C_13  and  O_14
REMARK   11  A    between atoms: C_15  and  C_16
REMARK                            x       y       z     vdW  Elec       q    Type
REMARK                         _______ _______ _______ _____ _____    ______ ____
ROOT
ATOM      1  C   UNL     1       4.558   3.709  19.343  0.00  0.00    +0.000 C 
ENDROOT
BRANCH   1   2
ATOM      2  N   UNL     1       5.967   3.872  19.029  0.00  0.00    +0.000 N 
ATOM      3  H   UNL     1       6.536   4.186  19.822  0.00  0.00    +0.000 HD
BRANCH   2   9
ATOM      4  C   UNL     1       7.088   6.694  17.204  0.00  0.00    +0.000 A 
ATOM      5  N   UNL     1       7.217   6.276  15.927  0.00  0.00    +0.000 NA
ATOM      6  C   UNL     1       6.878   5.002  15.670  0.00  0.00    +0.000 A 
ATOM      7  C   UNL     1       6.982   4.527  14.253  0.00  0.00    +0.000 C 
ATOM      8  C   UNL     1       6.442   4.142  16.658  0.00  0.00    +0.000 A 
ATOM      9  C   UNL     1       6.333   4.647  17.937  0.00  0.00    +0.000 A 
ATOM     10  N   UNL     1       6.660   5.914  18.221  0.00  0.00    +0.000 NA
BRANCH   4  11
ATOM     11  C   UNL     1       7.547   8.096  17.539  0.00  0.00    +0.000 C 
BRANCH  11  13
ATOM     12  C   UNL     1       8.922   9.423  18.917  0.00  0.00    +0.000 C 
ATOM     13  O   UNL     1       8.540   8.100  18.574  0.00  0.00    +0.000 OA
ENDBRANCH  11  13
ENDBRANCH   4  11
ENDBRANCH   2   9
ENDBRANCH   1   2
BRANCH   1  14
ATOM     14  C   UNL     1       3.790   3.159  18.121  0.00  0.00    +0.000 C 
BRANCH  14  15
ATOM     15  C   UNL     1       3.260   1.740  18.377  0.00  0.00    +0.000 C 
BRANCH  15  16
ATOM     16  O   UNL     1       4.304   0.775  18.332  0.00  0.00    +0.000 OA
ATOM     17  H   UNL     1       4.830   0.868  19.146  0.00  0.00    +0.000 HD
ENDBRANCH  15  16
ENDBRANCH  14  15
BRANCH  14  18
ATOM     18  C   UNL     1       2.607   4.085  17.745  0.00  0.00    +0.000 C 
BRANCH  18  19
ATOM     19  C   UNL     1       2.337   5.168  18.770  0.00  0.00    +0.000 A 
ATOM     20  C   UNL     1       1.648   4.827  19.947  0.00  0.00    +0.000 A 
ATOM     21  C   UNL     1       1.306   5.825  20.849  0.00  0.00    +0.000 A 
ATOM     22  N   UNL     1       1.613   7.125  20.676  0.00  0.00    +0.000 NA
ATOM     23  C   UNL     1       2.305   7.437  19.554  0.00  0.00    +0.000 A 
ATOM     24  C   UNL     1       2.687   6.512  18.587  0.00  0.00    +0.000 A 
ATOM     25 CL   UNL     1       3.541   7.081  17.203  0.00  0.00    +0.000 Cl
ENDBRANCH  18  19
ENDBRANCH  14  18
ENDBRANCH   1  14
TORSDOF 9
ENDMDL
MODEL 3
REMARK VINA RESULT:      -6.8      1.604      2.106
REMARK  Name = 
REMARK  11 active torsions:
REMARK  status: ('A' for Active; 'I' for Inactive)
REMARK    1  A    between atoms: C_1  and  O_2
REMARK    2  A    between atoms: O_2  and  C_3
REMARK    3  A    between atoms: C_3  and  C_4
REMARK    4  A    between atoms: C_6  and  C_7
REMARK    5  A    between atoms: C_9  and  N_10
REMARK    6  A    between atoms: N_10  and  C_11
REMARK    7  A    between atoms: C_11  and  C_12
REMARK    8  A    between atoms: C_12  and  C_13
REMARK    9  A    between atoms: C_12  and  C_15
REMARK   10  A    between atoms: C_13  and  O_14
REMARK   11  A    between atoms: C_15  and  C_16
REMARK                            x       y       z     vdW  Elec       q    Type
REMARK                         _______ _______ _______ _____ _____    ______ ____
ROOT
ATOM      1  C   UNL     1       3.274   3.504  17.403  0.00  0.00    +0.000 C 
ENDROOT
BRANCH   1   2
ATOM      2  N   UNL     1       4.587   3.549  18.024  0.00  0.00    +0.000 N 
ATOM      3  H   UNL     1       4.566   3.773  19.025  0.00  0.00    +0.000 HD
BRANCH   2   9
ATOM      4  C   UNL     1       6.730   4.884  15.538  0.00  0.00    +0.000 A 
ATOM      5  N   UNL     1       7.398   5.893  16.134  0.00  0.00    +0.000 NA
ATOM      6  C   UNL     1       7.139   6.105  17.435  0.00  0.00    +0.000 A 
ATOM      7  C   UNL     1       7.895   7.199  18.126  0.00  0.00    +0.000 C 
ATOM      8  C   UNL     1       6.218   5.353  18.135  0.00  0.00    +0.000 A 
ATOM      9  C   UNL     1       5.578   4.336  17.455  0.00  0.00    +0.000 A 
ATOM     10  N   UNL     1       5.821   4.100  16.160  0.00  0.00    +0.000 NA
BRANCH   4  11
ATOM     11  C   UNL     1       6.934   4.680  14.053  0.00  0.00    +0.000 C 
BRANCH  11  13
ATOM     12  C   UNL     1       6.288   3.325  12.237  0.00  0.00    +0.000 C 
ATOM     13  O   UNL     1       5.883   3.898  13.471  0.00  0.00    +0.000 OA
ENDBRANCH  11  13
ENDBRANCH   4  11
ENDBRANCH   2   9
ENDBRANCH   1   2
BRANCH   1  14
ATOM     14  C   UNL     1       2.202   4.077  18.357  0.00  0.00    +0.000 C 
BRANCH  14  15
ATOM     15  C   UNL     1       1.506   2.967  19.159  0.00  0.00    +0.000 C 
BRANCH  15  16
ATOM     16  O   UNL     1       2.001   1.680  18.811  0.00  0.00    +0.000 OA
ATOM     17  H   UNL     1       1.660   1.460  17.926  0.00  0.00    +0.000 HD
ENDBRANCH  15  16
ENDBRANCH  14  15
BRANCH  14  18
ATOM     18  C   UNL     1       2.823   5.102  19.338  0.00  0.00    +0.000 C 
BRANCH  18  19
ATOM     19  C   UNL     1       2.505   6.542  18.988  0.00  0.00    +0.000 A 
ATOM     20  C   UNL     1       2.998   7.069  17.782  0.00  0.00    +0.000 A 
ATOM     21  C   UNL     1       2.801   8.412  17.495  0.00  0.00    +0.000 A 
ATOM     22  N   UNL     1       2.138   9.260  18.304  0.00  0.00    +0.000 NA
ATOM     23  C   UNL     1       1.640   8.734  19.449  0.00  0.00    +0.000 A 
ATOM     24  C   UNL     1       1.790   7.404  19.831  0.00  0.00    +0.000 A 
ATOM     25 CL   UNL     1       1.117   6.904  21.335  0.00  0.00    +0.000 Cl
ENDBRANCH  18  19
ENDBRANCH  14  18
ENDBRANCH   1  14
TORSDOF 9
ENDMDL
MODEL 4
REMARK VINA RESULT:      -6.8      1.416      1.993
REMARK  Name = 
REMARK  11 active torsions:
REMARK  status: ('A' for Active; 'I' for Inactive)
REMARK    1  A    between atoms: C_1  and  O_2
REMARK    2  A    between atoms: O_2  and  C_3
REMARK    3  A    between atoms: C_3  and  C_4
REMARK    4  A    between atoms: C_6  and  C_7
REMARK    5  A    between atoms: C_9  and  N_10
REMARK    6  A    between atoms: N_10  and  C_11
REMARK    7  A    between atoms: C_11  and  C_12
REMARK    8  A    between atoms: C_12  and  C_13
REMARK    9  A    between atoms: C_12  and  C_15
REMARK   10  A    between atoms: C_13  and  O_14
REMARK   11  A    between atoms: C_15  and  C_16
REMARK                            x       y       z     vdW  Elec       q    Type
REMARK                         _______ _______ _______ _____ _____    ______ ____
ROOT
ATOM      1  C   UNL     1       2.928   3.984  18.220  0.00  0.00    +0.000 C 
ENDROOT
BRANCH   1   2
ATOM      2  N   UNL     1       4.280   3.968  18.752  0.00  0.00    +0.000 N 
ATOM      3  H   UNL     1       4.345   4.263  19.732  0.00  0.00    +0.000 HD
BRANCH   2   9
ATOM      4  C   UNL     1       6.206   5.119  16.010  0.00  0.00    +0.000 A 
ATOM      5  N   UNL     1       7.110   5.975  16.531  0.00  0.00    +0.000 NA
ATOM      6  C   UNL     1       7.089   6.140  17.864  0.00  0.00    +0.000 A 
ATOM      7  C   UNL     1       8.106   7.060  18.468  0.00  0.00    +0.000 C 
ATOM      8  C   UNL     1       6.176   5.492  18.672  0.00  0.00    +0.000 A 
ATOM      9  C   UNL     1       5.287   4.631  18.063  0.00  0.00    +0.000 A 
ATOM     10  N   UNL     1       5.289   4.444  16.737  0.00  0.00    +0.000 NA
BRANCH   4  11
ATOM     11  C   UNL     1       6.148   4.983  14.504  0.00  0.00    +0.000 C 
BRANCH  11  13
ATOM     12  C   UNL     1       6.229   3.503  12.672  0.00  0.00    +0.000 C 
ATOM     13  O   UNL     1       6.241   3.614  14.087  0.00  0.00    +0.000 OA
ENDBRANCH  11  13
ENDBRANCH   4  11
ENDBRANCH   2   9
ENDBRANCH   1   2
BRANCH   1  14
ATOM     14  C   UNL     1       1.969   4.699  19.197  0.00  0.00    +0.000 C 
BRANCH  14  15
ATOM     15  C   UNL     1       1.288   3.707  20.151  0.00  0.00    +0.000 C 
BRANCH  15  16
ATOM     16  O   UNL     1       1.887   2.418  20.081  0.00  0.00    +0.000 OA
ATOM     17  H   UNL     1       2.097   2.138  20.990  0.00  0.00    +0.000 HD
ENDBRANCH  15  16
ENDBRANCH  14  15
BRANCH  14  18
ATOM     18  C   UNL     1       2.718   5.772  20.026  0.00  0.00    +0.000 C 
BRANCH  18  19
ATOM     19  C   UNL     1       2.130   7.161  19.890  0.00  0.00    +0.000 A 
ATOM     20  C   UNL     1       1.314   7.653  20.923  0.00  0.00    +0.000 A 
ATOM     21  C   UNL     1       0.687   8.882  20.769  0.00  0.00    +0.000 A 
ATOM     22  N   UNL     1       0.827   9.661  19.680  0.00  0.00    +0.000 NA
ATOM     23  C   UNL     1       1.642   9.192  18.705  0.00  0.00    +0.000 A 
ATOM     24  C   UNL     1       2.308   7.971  18.759  0.00  0.00    +0.000 A 
ATOM     25 CL   UNL     1       3.286   7.511  17.418  0.00  0.00    +0.000 Cl
ENDBRANCH  18  19
ENDBRANCH  14  18
ENDBRANCH   1  14
TORSDOF 9
ENDMDL
MODEL 5
REMARK VINA RESULT:      -6.8      2.117      3.399
REMARK  Name = 
REMARK  11 active torsions:
REMARK  status: ('A' for Active; 'I' for Inactive)
REMARK    1  A    between atoms: C_1  and  O_2
REMARK    2  A    between atoms: O_2  and  C_3
REMARK    3  A    between atoms: C_3  and  C_4
REMARK    4  A    between atoms: C_6  and  C_7
REMARK    5  A    between atoms: C_9  and  N_10
REMARK    6  A    between atoms: N_10  and  C_11
REMARK    7  A    between atoms: C_11  and  C_12
REMARK    8  A    between atoms: C_12  and  C_13
REMARK    9  A    between atoms: C_12  and  C_15
REMARK   10  A    between atoms: C_13  and  O_14
REMARK   11  A    between atoms: C_15  and  C_16
REMARK                            x       y       z     vdW  Elec       q    Type
REMARK                         _______ _______ _______ _____ _____    ______ ____
ROOT
ATOM      1  C   UNL     1       4.077   3.353  17.602  0.00  0.00    +0.000 C 
ENDROOT
BRANCH   1   2
ATOM      2  N   UNL     1       4.437   3.423  16.195  0.00  0.00    +0.000 N 
ATOM      3  H   UNL     1       4.609   2.509  15.764  0.00  0.00    +0.000 HD
BRANCH   2   9
ATOM      4  C   UNL     1       6.979   5.879  16.442  0.00  0.00    +0.000 A 
ATOM      5  N   UNL     1       7.613   5.871  15.250  0.00  0.00    +0.000 NA
ATOM      6  C   UNL     1       7.138   5.027  14.319  0.00  0.00    +0.000 A 
ATOM      7  C   UNL     1       7.806   5.025  12.977  0.00  0.00    +0.000 C 
ATOM      8  C   UNL     1       6.071   4.186  14.561  0.00  0.00    +0.000 A 
ATOM      9  C   UNL     1       5.475   4.257  15.803  0.00  0.00    +0.000 A 
ATOM     10  N   UNL     1       5.925   5.092  16.749  0.00  0.00    +0.000 NA
BRANCH   4  11
ATOM     11  C   UNL     1       7.548   6.752  17.539  0.00  0.00    +0.000 C 
BRANCH  11  13
ATOM     12  C   UNL     1       8.277   8.912  18.132  0.00  0.00    +0.000 C 
ATOM     13  O   UNL     1       7.835   8.077  17.073  0.00  0.00    +0.000 OA
ENDBRANCH  11  13
ENDBRANCH   4  11
ENDBRANCH   2   9
ENDBRANCH   1   2
BRANCH   1  14
ATOM     14  C   UNL     1       2.969   2.299  17.826  0.00  0.00    +0.000 C 
BRANCH  14  15
ATOM     15  C   UNL     1       3.324   1.339  18.970  0.00  0.00    +0.000 C 
BRANCH  15  16
ATOM     16  O   UNL     1       4.448   0.529  18.644  0.00  0.00    +0.000 OA
ATOM     17  H   UNL     1       5.134   1.111  18.270  0.00  0.00    +0.000 HD
ENDBRANCH  15  16
ENDBRANCH  14  15
BRANCH  14  18
ATOM     18  C   UNL     1       1.611   2.979  18.133  0.00  0.00    +0.000 C 
BRANCH  18  19
ATOM     19  C   UNL     1       1.749   4.329  18.807  0.00  0.00    +0.000 A 
ATOM     20  C   UNL     1       2.068   5.448  18.018  0.00  0.00    +0.000 A 
ATOM     21  C   UNL     1       2.295   6.671  18.632  0.00  0.00    +0.000 A 
ATOM     22  N   UNL     1       2.212   6.866  19.963  0.00  0.00    +0.000 NA
ATOM     23  C   UNL     1       1.873   5.788  20.709  0.00  0.00    +0.000 A 
ATOM     24  C   UNL     1       1.633   4.520  20.190  0.00  0.00    +0.000 A 
ATOM     25 CL   UNL     1       1.238   3.249  21.284  0.00  0.00    +0.000 Cl
ENDBRANCH  18  19
ENDBRANCH  14  18
ENDBRANCH   1  14
TORSDOF 9
ENDMDL
MODEL 6
REMARK VINA RESULT:      -6.7      1.927      2.522
REMARK  Name = 
REMARK  11 active torsions:
REMARK  status: ('A' for Active; 'I' for Inactive)
REMARK    1  A    between atoms: C_1  and  O_2
REMARK    2  A    between atoms: O_2  and  C_3
REMARK    3  A    between atoms: C_3  and  C_4
REMARK    4  A    between atoms: C_6  and  C_7
REMARK    5  A    between atoms: C_9  and  N_10
REMARK    6  A    between atoms: N_10  and  C_11
REMARK    7  A    between atoms: C_11  and  C_12
REMARK    8  A    between atoms: C_12  and  C_13
REMARK    9  A    between atoms: C_12  and  C_15
REMARK   10  A    between atoms: C_13  and  O_14
REMARK   11  A    between atoms: C_15  and  C_16
REMARK                            x       y       z     vdW  Elec       q    Type
REMARK                         _______ _______ _______ _____ _____    ______ ____
ROOT
ATOM      1  C   UNL     1       3.860   3.885  19.476  0.00  0.00    +0.000 C 
ENDROOT
BRANCH   1   2
ATOM      2  N   UNL     1       4.833   3.369  18.528  0.00  0.00    +0.000 N 
ATOM      3  H   UNL     1       5.385   2.583  18.886  0.00  0.00    +0.000 HD
BRANCH   2   9
ATOM      4  C   UNL     1       6.572   5.059  15.945  0.00  0.00    +0.000 A 
ATOM      5  N   UNL     1       7.312   6.005  16.560  0.00  0.00    +0.000 NA
ATOM      6  C   UNL     1       7.246   6.047  17.901  0.00  0.00    +0.000 A 
ATOM      7  C   UNL     1       8.086   7.069  18.607  0.00  0.00    +0.000 C 
ATOM      8  C   UNL     1       6.445   5.189  18.627  0.00  0.00    +0.000 A 
ATOM      9  C   UNL     1       5.722   4.248  17.925  0.00  0.00    +0.000 A 
ATOM     10  N   UNL     1       5.773   4.180  16.588  0.00  0.00    +0.000 NA
BRANCH   4  11
ATOM     11  C   UNL     1       6.557   5.046  14.432  0.00  0.00    +0.000 C 
BRANCH  11  13
ATOM     12  C   UNL     1       7.956   5.186  12.542  0.00  0.00    +0.000 C 
ATOM     13  O   UNL     1       7.753   5.612  13.881  0.00  0.00    +0.000 OA
ENDBRANCH  11  13
ENDBRANCH   4  11
ENDBRANCH   2   9
ENDBRANCH   1   2
BRANCH   1  14
ATOM     14  C   UNL     1       2.989   4.979  18.819  0.00  0.00    +0.000 C 
BRANCH  14  15
ATOM     15  C   UNL     1       1.781   4.377  18.086  0.00  0.00    +0.000 C 
BRANCH  15  16
ATOM     16  O   UNL     1       2.145   3.227  17.332  0.00  0.00    +0.000 OA
ATOM     17  H   UNL     1       3.117   3.174  17.323  0.00  0.00    +0.000 HD
ENDBRANCH  15  16
ENDBRANCH  14  15
BRANCH  14  18
ATOM     18  C   UNL     1       2.490   5.999  19.872  0.00  0.00    +0.000 C 
BRANCH  18  19
ATOM     19  C   UNL     1       2.162   7.359  19.290  0.00  0.00    +0.000 A 
ATOM     20  C   UNL     1       2.685   7.698  18.030  0.00  0.00    +0.000 A 
ATOM     21  C   UNL     1       2.477   8.975  17.527  0.00  0.00    +0.000 A 
ATOM     22  N   UNL     1       1.775   9.927  18.173  0.00  0.00    +0.000 NA
ATOM     23  C   UNL     1       1.249   9.578  19.371  0.00  0.00    +0.000 A 
ATOM     24  C   UNL     1       1.407   8.329  19.964  0.00  0.00    +0.000 A 
ATOM     25 CL   UNL     1       0.694   8.059  21.508  0.00  0.00    +0.000 Cl
ENDBRANCH  18  19
ENDBRANCH  14  18
ENDBRANCH   1  14
TORSDOF 9
ENDMDL
MODEL 7
REMARK VINA RESULT:      -6.7      1.880      2.695
REMARK  Name = 
REMARK  11 active torsions:
REMARK  status: ('A' for Active; 'I' for Inactive)
REMARK    1  A    between atoms: C_1  and  O_2
REMARK    2  A    between atoms: O_2  and  C_3
REMARK    3  A    between atoms: C_3  and  C_4
REMARK    4  A    between atoms: C_6  and  C_7
REMARK    5  A    between atoms: C_9  and  N_10
REMARK    6  A    between atoms: N_10  and  C_11
REMARK    7  A    between atoms: C_11  and  C_12
REMARK    8  A    between atoms: C_12  and  C_13
REMARK    9  A    between atoms: C_12  and  C_15
REMARK   10  A    between atoms: C_13  and  O_14
REMARK   11  A    between atoms: C_15  and  C_16
REMARK                            x       y       z     vdW  Elec       q    Type
REMARK                         _______ _______ _______ _____ _____    ______ ____
ROOT
ATOM      1  C   UNL     1       2.023   4.503  18.656  0.00  0.00    +0.000 C 
ENDROOT
BRANCH   1   2
ATOM      2  N   UNL     1       3.274   3.770  18.752  0.00  0.00    +0.000 N 
ATOM      3  H   UNL     1       3.477   3.416  19.692  0.00  0.00    +0.000 HD
BRANCH   2   9
ATOM      4  C   UNL     1       5.523   5.293  16.477  0.00  0.00    +0.000 A 
ATOM      5  N   UNL     1       6.599   5.649  17.209  0.00  0.00    +0.000 NA
ATOM      6  C   UNL     1       6.576   5.329  18.514  0.00  0.00    +0.000 A 
ATOM      7  C   UNL     1       7.775   5.685  19.339  0.00  0.00    +0.000 C 
ATOM      8  C   UNL     1       5.500   4.690  19.097  0.00  0.00    +0.000 A 
ATOM      9  C   UNL     1       4.440   4.356  18.280  0.00  0.00    +0.000 A 
ATOM     10  N   UNL     1       4.439   4.659  16.975  0.00  0.00    +0.000 NA
BRANCH   4  11
ATOM     11  C   UNL     1       5.482   5.721  15.026  0.00  0.00    +0.000 C 
BRANCH  11  13
ATOM     12  C   UNL     1       6.455   3.999  13.746  0.00  0.00    +0.000 C 
ATOM     13  O   UNL     1       6.645   5.288  14.308  0.00  0.00    +0.000 OA
ENDBRANCH  11  13
ENDBRANCH   4  11
ENDBRANCH   2   9
ENDBRANCH   1   2
BRANCH   1  14
ATOM     14  C   UNL     1       1.612   5.058  20.038  0.00  0.00    +0.000 C 
BRANCH  14  15
ATOM     15  C   UNL     1       1.708   3.984  21.131  0.00  0.00    +0.000 C 
BRANCH  15  16
ATOM     16  O   UNL     1       0.797   2.916  20.899  0.00  0.00    +0.000 OA
ATOM     17  H   UNL     1       1.230   2.090  21.179  0.00  0.00    +0.000 HD
ENDBRANCH  15  16
ENDBRANCH  14  15
BRANCH  14  18
ATOM     18  C   UNL     1       2.492   6.269  20.434  0.00  0.00    +0.000 C 
BRANCH  18  19
ATOM     19  C   UNL     1       1.833   7.608  20.169  0.00  0.00    +0.000 A 
ATOM     20  C   UNL     1       0.970   8.140  21.142  0.00  0.00    +0.000 A 
ATOM     21  C   UNL     1       0.282   9.315  20.872  0.00  0.00    +0.000 A 
ATOM     22  N   UNL     1       0.403  10.005  19.721  0.00  0.00    +0.000 NA
ATOM     23  C   UNL     1       1.262   9.499  18.804  0.00  0.00    +0.000 A 
ATOM     24  C   UNL     1       1.991   8.326  18.976  0.00  0.00    +0.000 A 
ATOM     25 CL   UNL     1       3.020   7.807  17.696  0.00  0.00    +0.000 Cl
ENDBRANCH  18  19
ENDBRANCH  14  18
ENDBRANCH   1  14
TORSDOF 9
ENDMDL
MODEL 8
REMARK VINA RESULT:      -6.7      2.444      3.888
REMARK  Name = 
REMARK  11 active torsions:
REMARK  status: ('A' for Active; 'I' for Inactive)
REMARK    1  A    between atoms: C_1  and  O_2
REMARK    2  A    between atoms: O_2  and  C_3
REMARK    3  A    between atoms: C_3  and  C_4
REMARK    4  A    between atoms: C_6  and  C_7
REMARK    5  A    between atoms: C_9  and  N_10
REMARK    6  A    between atoms: N_10  and  C_11
REMARK    7  A    between atoms: C_11  and  C_12
REMARK    8  A    between atoms: C_12  and  C_13
REMARK    9  A    between atoms: C_12  and  C_15
REMARK   10  A    between atoms: C_13  and  O_14
REMARK   11  A    between atoms: C_15  and  C_16
REMARK                            x       y       z     vdW  Elec       q    Type
REMARK                         _______ _______ _______ _____ _____    ______ ____
ROOT
ATOM      1  C   UNL     1       2.760   4.496  18.206  0.00  0.00    +0.000 C 
ENDROOT
BRANCH   1   2
ATOM      2  N   UNL     1       4.160   4.544  18.595  0.00  0.00    +0.000 N 
ATOM      3  H   UNL     1       4.331   5.052  19.468  0.00  0.00    +0.000 HD
BRANCH   2   9
ATOM      4  C   UNL     1       6.942   6.321  17.309  0.00  0.00    +0.000 A 
ATOM      5  N   UNL     1       7.118   5.865  16.051  0.00  0.00    +0.000 NA
ATOM      6  C   UNL     1       6.240   4.948  15.611  0.00  0.00    +0.000 A 
ATOM      7  C   UNL     1       6.396   4.453  14.205  0.00  0.00    +0.000 C 
ATOM      8  C   UNL     1       5.217   4.467  16.404  0.00  0.00    +0.000 A 
ATOM      9  C   UNL     1       5.102   4.986  17.677  0.00  0.00    +0.000 A 
ATOM     10  N   UNL     1       5.961   5.904  18.139  0.00  0.00    +0.000 NA
BRANCH   4  11
ATOM     11  C   UNL     1       7.968   7.285  17.861  0.00  0.00    +0.000 C 
BRANCH  11  13
ATOM     12  C   UNL     1       8.499   9.555  18.206  0.00  0.00    +0.000 C 
ATOM     13  O   UNL     1       7.681   8.641  17.492  0.00  0.00    +0.000 OA
ENDBRANCH  11  13
ENDBRANCH   4  11
ENDBRANCH   2   9
ENDBRANCH   1   2
BRANCH   1  14
ATOM     14  C   UNL     1       1.874   5.151  19.289  0.00  0.00    +0.000 C 
BRANCH  14  15
ATOM     15  C   UNL     1       1.521   4.160  20.408  0.00  0.00    +0.000 C 
BRANCH  15  16
ATOM     16  O   UNL     1       2.418   3.057  20.432  0.00  0.00    +0.000 OA
ATOM     17  H   UNL     1       3.053   3.206  21.156  0.00  0.00    +0.000 HD
ENDBRANCH  15  16
ENDBRANCH  14  15
BRANCH  14  18
ATOM     18  C   UNL     1       2.572   6.389  19.904  0.00  0.00    +0.000 C 
BRANCH  18  19
ATOM     19  C   UNL     1       2.030   7.707  19.392  0.00  0.00    +0.000 A 
ATOM     20  C   UNL     1       2.292   8.073  18.060  0.00  0.00    +0.000 A 
ATOM     21  C   UNL     1       1.888   9.321  17.605  0.00  0.00    +0.000 A 
ATOM     22  N   UNL     1       1.231  10.217  18.366  0.00  0.00    +0.000 NA
ATOM     23  C   UNL     1       0.956   9.841  19.638  0.00  0.00    +0.000 A 
ATOM     24  C   UNL     1       1.325   8.618  20.190  0.00  0.00    +0.000 A 
ATOM     25 CL   UNL     1       0.920   8.308  21.836  0.00  0.00    +0.000 Cl
ENDBRANCH  18  19
ENDBRANCH  14  18
ENDBRANCH   1  14
TORSDOF 9
ENDMDL
MODEL 9
REMARK VINA RESULT:      -6.6      2.014      3.454
REMARK  Name = 
REMARK  11 active torsions:
REMARK  status: ('A' for Active; 'I' for Inactive)
REMARK    1  A    between atoms: C_1  and  O_2
REMARK    2  A    between atoms: O_2  and  C_3
REMARK    3  A    between atoms: C_3  and  C_4
REMARK    4  A    between atoms: C_6  and  C_7
REMARK    5  A    between atoms: C_9  and  N_10
REMARK    6  A    between atoms: N_10  and  C_11
REMARK    7  A    between atoms: C_11  and  C_12
REMARK    8  A    between atoms: C_12  and  C_13
REMARK    9  A    between atoms: C_12  and  C_15
REMARK   10  A    between atoms: C_13  and  O_14
REMARK   11  A    between atoms: C_15  and  C_16
REMARK                            x       y       z     vdW  Elec       q    Type
REMARK                         _______ _______ _______ _____ _____    ______ ____
ROOT
ATOM      1  C   UNL     1       3.980   4.413  19.431  0.00  0.00    +0.000 C 
ENDROOT
BRANCH   1   2
ATOM      2  N   UNL     1       4.441   3.811  18.191  0.00  0.00    +0.000 N 
ATOM      3  H   UNL     1       4.814   2.863  18.303  0.00  0.00    +0.000 HD
BRANCH   2   9
ATOM      4  C   UNL     1       6.961   6.138  17.303  0.00  0.00    +0.000 A 
ATOM      5  N   UNL     1       7.255   5.884  16.011  0.00  0.00    +0.000 NA
ATOM      6  C   UNL     1       6.548   4.913  15.410  0.00  0.00    +0.000 A 
ATOM      7  C   UNL     1       6.835   4.637  13.965  0.00  0.00    +0.000 C 
ATOM      8  C   UNL     1       5.583   4.184  16.075  0.00  0.00    +0.000 A 
ATOM      9  C   UNL     1       5.339   4.507  17.394  0.00  0.00    +0.000 A 
ATOM     10  N   UNL     1       6.025   5.474  18.016  0.00  0.00    +0.000 NA
BRANCH   4  11
ATOM     11  C   UNL     1       7.801   7.164  18.032  0.00  0.00    +0.000 C 
BRANCH  11  13
ATOM     12  C   UNL     1       8.416   9.437  18.116  0.00  0.00    +0.000 C 
ATOM     13  O   UNL     1       7.884   8.399  17.308  0.00  0.00    +0.000 OA
ENDBRANCH  11  13
ENDBRANCH   4  11
ENDBRANCH   2   9
ENDBRANCH   1   2
BRANCH   1  14
ATOM     14  C   UNL     1       2.654   5.174  19.205  0.00  0.00    +0.000 C 
BRANCH  14  15
ATOM     15  C   UNL     1       1.508   4.219  18.841  0.00  0.00    +0.000 C 
BRANCH  15  16
ATOM     16  O   UNL     1       1.371   4.079  17.431  0.00  0.00    +0.000 OA
ATOM     17  H   UNL     1       1.794   3.240  17.174  0.00  0.00    +0.000 HD
ENDBRANCH  15  16
ENDBRANCH  14  15
BRANCH  14  18
ATOM     18  C   UNL     1       2.260   5.988  20.462  0.00  0.00    +0.000 C 
BRANCH  18  19
ATOM     19  C   UNL     1       1.785   7.392  20.149  0.00  0.00    +0.000 A 
ATOM     20  C   UNL     1       0.948   8.043  21.073  0.00  0.00    +0.000 A 
ATOM     21  C   UNL     1       0.424   9.288  20.756  0.00  0.00    +0.000 A 
ATOM     22  N   UNL     1       0.683   9.937  19.604  0.00  0.00    +0.000 NA
ATOM     23  C   UNL     1       1.515   9.314  18.736  0.00  0.00    +0.000 A 
ATOM     24  C   UNL     1       2.085   8.064  18.957  0.00  0.00    +0.000 A 
ATOM     25 CL   UNL     1       3.102   7.401  17.735  0.00  0.00    +0.000 Cl
ENDBRANCH  18  19
ENDBRANCH  14  18
ENDBRANCH   1  14
TORSDOF 9
ENDMDL
