MODEL 1
REMARK VINA RESULT:      -8.3      0.000      0.000
REMARK  Name = 
REMARK  7 active torsions:
REMARK  status: ('A' for Active; 'I' for Inactive)
REMARK    1  A    between atoms: C_1  and  C_2
REMARK    2  A    between atoms: N_4  and  C_5
REMARK    3  A    between atoms: C_16  and  O_17
REMARK    4  A    between atoms: O_17  and  C_18
REMARK    5  A    between atoms: C_18  and  C_19
REMARK    6  A    between atoms: C_19  and  N_20
REMARK    7  A    between atoms: C_24  and  C_25
REMARK                            x       y       z     vdW  Elec       q    Type
REMARK                         _______ _______ _______ _____ _____    ______ ____
ROOT
ATOM      1  C   UNL     1       2.067   9.019  18.020  0.00  0.00    +0.000 C 
ATOM      2  C   UNL     1       2.811   7.749  18.172  0.00  0.00    +0.000 A 
ATOM      3  N   UNL     1       3.721   7.325  17.257  0.00  0.00    +0.000 NA
ATOM      4  N   UNL     1       4.087   6.073  17.681  0.00  0.00    +0.000 N 
ATOM      5  C   UNL     1       3.337   5.738  18.816  0.00  0.00    +0.000 A 
ATOM      6  C   UNL     1       2.579   6.807  19.193  0.00  0.00    +0.000 A 
ATOM      7  C   UNL     1       1.605   6.694  20.322  0.00  0.00    +0.000 C 
ATOM      8  C   UNL     1       1.782   5.402  21.136  0.00  0.00    +0.000 C 
ATOM      9  C   UNL     1       2.378   4.228  20.394  0.00  0.00    +0.000 C 
ATOM     10  O   UNL     1       2.163   3.065  20.723  0.00  0.00    +0.000 OA
ATOM     11  N   UNL     1       3.286   4.502  19.393  0.00  0.00    +0.000 N 
ATOM     12  H   UNL     1       3.811   3.723  18.985  0.00  0.00    +0.000 HD
ENDROOT
BRANCH   4  13
ATOM     13  C   UNL     1       5.132   5.243  17.142  0.00  0.00    +0.000 A 
ATOM     14  N   UNL     1       5.993   4.692  18.060  0.00  0.00    +0.000 NA
ATOM     15  C   UNL     1       7.267   4.506  17.693  0.00  0.00    +0.000 A 
ATOM     16  N   UNL     1       7.820   4.804  16.524  0.00  0.00    +0.000 NA
ATOM     17  C   UNL     1       6.896   4.960  15.561  0.00  0.00    +0.000 A 
ATOM     18  N   UNL     1       7.160   4.636  14.266  0.00  0.00    +0.000 NA
ATOM     19  C   UNL     1       6.041   4.083  13.871  0.00  0.00    +0.000 A 
ATOM     20  N   UNL     1       5.022   4.309  14.769  0.00  0.00    +0.000 N 
ATOM     21  C   UNL     1       5.525   5.076  15.821  0.00  0.00    +0.000 A 
ATOM     22  H   UNL     1       4.199   3.727  14.822  0.00  0.00    +0.000 HD
ENDBRANCH   4  13
BRANCH   7  23
ATOM     23  O   UNL     1       1.469   7.885  21.145  0.00  0.00    +0.000 OA
BRANCH  23  24
ATOM     24  C   UNL     1       0.184   8.516  21.155  0.00  0.00    +0.000 C 
BRANCH  24  25
ATOM     25  C   UNL     1       0.034   9.408  22.387  0.00  0.00    +0.000 C 
BRANCH  25  26
ATOM     26  N   UNL     1       0.077  10.811  22.017  0.00  0.00    +0.000 N 
ATOM     27  N   UNL     1       1.055  11.236  21.180  0.00  0.00    +0.000 NA
ATOM     28  C   UNL     1       0.765  12.533  20.998  0.00  0.00    +0.000 A 
ATOM     29  C   UNL     1      -0.390  12.929  21.694  0.00  0.00    +0.000 A 
ATOM     30  C   UNL     1      -0.817  11.796  22.351  0.00  0.00    +0.000 A 
ATOM     31  C   UNL     1      -1.982  11.576  23.239  0.00  0.00    +0.000 C 
ENDBRANCH  25  26
ENDBRANCH  24  25
ENDBRANCH  23  24
ENDBRANCH   7  23
TORSDOF 5
ENDMDL
MODEL 2
REMARK VINA RESULT:      -8.2      0.540      1.182
REMARK  Name = 
REMARK  7 active torsions:
REMARK  status: ('A' for Active; 'I' for Inactive)
REMARK    1  A    between atoms: C_1  and  C_2
REMARK    2  A    between atoms: N_4  and  C_5
REMARK    3  A    between atoms: C_16  and  O_17
REMARK    4  A    between atoms: O_17  and  C_18
REMARK    5  A    between atoms: C_18  and  C_19
REMARK    6  A    between atoms: C_19  and  N_20
REMARK    7  A    between atoms: C_24  and  C_25
REMARK                            x       y       z     vdW  Elec       q    Type
REMARK                         _______ _______ _______ _____ _____    ______ ____
ROOT
ATOM      1  C   UNL     1       2.162   9.149  17.848  0.00  0.00    +0.000 C 
ATOM      2  C   UNL     1       2.879   7.867  18.035  0.00  0.00    +0.000 A 
ATOM      3  N   UNL     1       3.769   7.392  17.126  0.00  0.00    +0.000 NA
ATOM      4  N   UNL     1       4.110   6.146  17.589  0.00  0.00    +0.000 N 
ATOM      5  C   UNL     1       3.365   5.867  18.741  0.00  0.00    +0.000 A 
ATOM      6  C   UNL     1       2.636   6.965  19.090  0.00  0.00    +0.000 A 
ATOM      7  C   UNL     1       1.671   6.913  20.231  0.00  0.00    +0.000 C 
ATOM      8  C   UNL     1       1.826   5.645  21.086  0.00  0.00    +0.000 C 
ATOM      9  C   UNL     1       2.387   4.433  20.378  0.00  0.00    +0.000 C 
ATOM     10  O   UNL     1       2.149   3.287  20.748  0.00  0.00    +0.000 OA
ATOM     11  N   UNL     1       3.291   4.653  19.360  0.00  0.00    +0.000 N 
ATOM     12  H   UNL     1       3.794   3.848  18.973  0.00  0.00    +0.000 HD
ENDROOT
BRANCH   4  13
ATOM     13  C   UNL     1       5.131   5.275  17.069  0.00  0.00    +0.000 A 
ATOM     14  N   UNL     1       5.966   4.707  18.000  0.00  0.00    +0.000 NA
ATOM     15  C   UNL     1       7.236   4.474  17.645  0.00  0.00    +0.000 A 
ATOM     16  N   UNL     1       7.807   4.738  16.476  0.00  0.00    +0.000 NA
ATOM     17  C   UNL     1       6.895   4.912  15.504  0.00  0.00    +0.000 A 
ATOM     18  N   UNL     1       7.158   4.563  14.216  0.00  0.00    +0.000 NA
ATOM     19  C   UNL     1       6.024   4.043  13.820  0.00  0.00    +0.000 A 
ATOM     20  N   UNL     1       5.007   4.315  14.707  0.00  0.00    +0.000 N 
ATOM     21  C   UNL     1       5.527   5.078  15.752  0.00  0.00    +0.000 A 
ATOM     22  H   UNL     1       4.164   3.761  14.761  0.00  0.00    +0.000 HD
ENDBRANCH   4  13
BRANCH   7  23
ATOM     23  O   UNL     1       1.570   8.133  21.014  0.00  0.00    +0.000 OA
BRANCH  23  24
ATOM     24  C   UNL     1       0.260   8.510  21.453  0.00  0.00    +0.000 C 
BRANCH  24  25
ATOM     25  C   UNL     1       0.345   9.411  22.684  0.00  0.00    +0.000 C 
BRANCH  25  26
ATOM     26  N   UNL     1      -0.428  10.624  22.491  0.00  0.00    +0.000 N 
ATOM     27  N   UNL     1      -1.526  10.829  23.258  0.00  0.00    +0.000 NA
ATOM     28  C   UNL     1      -1.950  12.043  22.876  0.00  0.00    +0.000 A 
ATOM     29  C   UNL     1      -1.126  12.615  21.892  0.00  0.00    +0.000 A 
ATOM     30  C   UNL     1      -0.146  11.675  21.655  0.00  0.00    +0.000 A 
ATOM     31  C   UNL     1       1.011  11.699  20.732  0.00  0.00    +0.000 C 
ENDBRANCH  25  26
ENDBRANCH  24  25
ENDBRANCH  23  24
ENDBRANCH   7  23
TORSDOF 5
ENDMDL
MODEL 3
REMARK VINA RESULT:      -8.2      1.104      1.494
REMARK  Name = 
REMARK  7 active torsions:
REMARK  status: ('A' for Active; 'I' for Inactive)
REMARK    1  A    between atoms: C_1  and  C_2
REMARK    2  A    between atoms: N_4  and  C_5
REMARK    3  A    between atoms: C_16  and  O_17
REMARK    4  A    between atoms: O_17  and  C_18
REMARK    5  A    between atoms: C_18  and  C_19
REMARK    6  A    between atoms: C_19  and  N_20
REMARK    7  A    between atoms: C_24  and  C_25
REMARK                            x       y       z     vdW  Elec       q    Type
REMARK                         _______ _______ _______ _____ _____    ______ ____
ROOT
ATOM      1  C   UNL     1       2.016   8.955  18.004  0.00  0.00    +0.000 C 
ATOM      2  C   UNL     1       2.788   7.704  18.176  0.00  0.00    +0.000 A 
ATOM      3  N   UNL     1       3.698   7.279  17.261  0.00  0.00    +0.000 NA
ATOM      4  N   UNL     1       4.093   6.044  17.709  0.00  0.00    +0.000 N 
ATOM      5  C   UNL     1       3.361   5.718  18.857  0.00  0.00    +0.000 A 
ATOM      6  C   UNL     1       2.585   6.779  19.219  0.00  0.00    +0.000 A 
ATOM      7  C   UNL     1       1.624   6.671  20.359  0.00  0.00    +0.000 C 
ATOM      8  C   UNL     1       1.834   5.400  21.199  0.00  0.00    +0.000 C 
ATOM      9  C   UNL     1       2.447   4.223  20.476  0.00  0.00    +0.000 C 
ATOM     10  O   UNL     1       2.259   3.063  20.832  0.00  0.00    +0.000 OA
ATOM     11  N   UNL     1       3.340   4.494  19.461  0.00  0.00    +0.000 N 
ATOM     12  H   UNL     1       3.877   3.717  19.065  0.00  0.00    +0.000 HD
ENDROOT
BRANCH   4  13
ATOM     13  C   UNL     1       5.150   5.224  17.178  0.00  0.00    +0.000 A 
ATOM     14  N   UNL     1       5.932   4.579  18.105  0.00  0.00    +0.000 NA
ATOM     15  C   UNL     1       7.223   4.381  17.809  0.00  0.00    +0.000 A 
ATOM     16  N   UNL     1       7.861   4.748  16.705  0.00  0.00    +0.000 NA
ATOM     17  C   UNL     1       7.009   5.004  15.698  0.00  0.00    +0.000 A 
ATOM     18  N   UNL     1       7.351   4.769  14.402  0.00  0.00    +0.000 NA
ATOM     19  C   UNL     1       6.248   4.282  13.894  0.00  0.00    +0.000 A 
ATOM     20  N   UNL     1       5.176   4.473  14.738  0.00  0.00    +0.000 N 
ATOM     21  C   UNL     1       5.627   5.143  15.876  0.00  0.00    +0.000 A 
ATOM     22  H   UNL     1       4.337   3.914  14.692  0.00  0.00    +0.000 HD
ENDBRANCH   4  13
BRANCH   7  23
ATOM     23  O   UNL     1       1.471   7.876  21.158  0.00  0.00    +0.000 OA
BRANCH  23  24
ATOM     24  C   UNL     1       0.164   8.462  21.194  0.00  0.00    +0.000 C 
BRANCH  24  25
ATOM     25  C   UNL     1       0.260   9.973  21.406  0.00  0.00    +0.000 C 
BRANCH  25  26
ATOM     26  N   UNL     1      -0.128  10.688  20.205  0.00  0.00    +0.000 N 
ATOM     27  N   UNL     1      -1.107  10.171  19.424  0.00  0.00    +0.000 NA
ATOM     28  C   UNL     1      -1.258  11.094  18.462  0.00  0.00    +0.000 A 
ATOM     29  C   UNL     1      -0.401  12.195  18.634  0.00  0.00    +0.000 A 
ATOM     30  C   UNL     1       0.325  11.908  19.770  0.00  0.00    +0.000 A 
ATOM     31  C   UNL     1       1.379  12.683  20.462  0.00  0.00    +0.000 C 
ENDBRANCH  25  26
ENDBRANCH  24  25
ENDBRANCH  23  24
ENDBRANCH   7  23
TORSDOF 5
ENDMDL
MODEL 4
REMARK VINA RESULT:      -8.0      0.917      1.152
REMARK  Name = 
REMARK  7 active torsions:
REMARK  status: ('A' for Active; 'I' for Inactive)
REMARK    1  A    between atoms: C_1  and  C_2
REMARK    2  A    between atoms: N_4  and  C_5
REMARK    3  A    between atoms: C_16  and  O_17
REMARK    4  A    between atoms: O_17  and  C_18
REMARK    5  A    between atoms: C_18  and  C_19
REMARK    6  A    between atoms: C_19  and  N_20
REMARK    7  A    between atoms: C_24  and  C_25
REMARK                            x       y       z     vdW  Elec       q    Type
REMARK                         _______ _______ _______ _____ _____    ______ ____
ROOT
ATOM      1  C   UNL     1       1.872   9.123  17.854  0.00  0.00    +0.000 C 
ATOM      2  C   UNL     1       2.678   7.906  18.102  0.00  0.00    +0.000 A 
ATOM      3  N   UNL     1       3.612   7.461  17.222  0.00  0.00    +0.000 NA
ATOM      4  N   UNL     1       4.038   6.264  17.740  0.00  0.00    +0.000 N 
ATOM      5  C   UNL     1       3.300   5.978  18.895  0.00  0.00    +0.000 A 
ATOM      6  C   UNL     1       2.488   7.033  19.191  0.00  0.00    +0.000 A 
ATOM      7  C   UNL     1       1.516   6.956  20.323  0.00  0.00    +0.000 C 
ATOM      8  C   UNL     1       1.752   5.739  21.232  0.00  0.00    +0.000 C 
ATOM      9  C   UNL     1       2.409   4.544  20.581  0.00  0.00    +0.000 C 
ATOM     10  O   UNL     1       2.251   3.400  20.996  0.00  0.00    +0.000 OA
ATOM     11  N   UNL     1       3.307   4.787  19.563  0.00  0.00    +0.000 N 
ATOM     12  H   UNL     1       3.872   4.007  19.215  0.00  0.00    +0.000 HD
ENDROOT
BRANCH   4  13
ATOM     13  C   UNL     1       5.126   5.449  17.266  0.00  0.00    +0.000 A 
ATOM     14  N   UNL     1       5.881   4.835  18.235  0.00  0.00    +0.000 NA
ATOM     15  C   UNL     1       7.184   4.650  17.992  0.00  0.00    +0.000 A 
ATOM     16  N   UNL     1       7.859   5.005  16.905  0.00  0.00    +0.000 NA
ATOM     17  C   UNL     1       7.042   5.228  15.862  0.00  0.00    +0.000 A 
ATOM     18  N   UNL     1       7.437   4.972  14.585  0.00  0.00    +0.000 NA
ATOM     19  C   UNL     1       6.360   4.459  14.046  0.00  0.00    +0.000 A 
ATOM     20  N   UNL     1       5.255   4.651  14.844  0.00  0.00    +0.000 N 
ATOM     21  C   UNL     1       5.653   5.350  15.984  0.00  0.00    +0.000 A 
ATOM     22  H   UNL     1       4.426   4.079  14.778  0.00  0.00    +0.000 HD
ENDBRANCH   4  13
BRANCH   7  23
ATOM     23  O   UNL     1       1.316   8.197  21.055  0.00  0.00    +0.000 OA
BRANCH  23  24
ATOM     24  C   UNL     1      -0.033   8.658  21.183  0.00  0.00    +0.000 C 
BRANCH  24  25
ATOM     25  C   UNL     1      -0.071  10.023  21.870  0.00  0.00    +0.000 C 
BRANCH  25  26
ATOM     26  N   UNL     1       0.342  11.072  20.957  0.00  0.00    +0.000 N 
ATOM     27  N   UNL     1       1.445  11.801  21.255  0.00  0.00    +0.000 NA
ATOM     28  C   UNL     1       1.576  12.613  20.196  0.00  0.00    +0.000 A 
ATOM     29  C   UNL     1       0.583  12.396  19.225  0.00  0.00    +0.000 A 
ATOM     30  C   UNL     1      -0.209  11.394  19.742  0.00  0.00    +0.000 A 
ATOM     31  C   UNL     1      -1.408  10.728  19.186  0.00  0.00    +0.000 C 
ENDBRANCH  25  26
ENDBRANCH  24  25
ENDBRANCH  23  24
ENDBRANCH   7  23
TORSDOF 5
ENDMDL
MODEL 5
REMARK VINA RESULT:      -7.9      1.212      1.279
REMARK  Name = 
REMARK  7 active torsions:
REMARK  status: ('A' for Active; 'I' for Inactive)
REMARK    1  A    between atoms: C_1  and  C_2
REMARK    2  A    between atoms: N_4  and  C_5
REMARK    3  A    between atoms: C_16  and  O_17
REMARK    4  A    between atoms: O_17  and  C_18
REMARK    5  A    between atoms: C_18  and  C_19
REMARK    6  A    between atoms: C_19  and  N_20
REMARK    7  A    between atoms: C_24  and  C_25
REMARK                            x       y       z     vdW  Elec       q    Type
REMARK                         _______ _______ _______ _____ _____    ______ ____
ROOT
ATOM      1  C   UNL     1       2.037   9.438  17.787  0.00  0.00    +0.000 C 
ATOM      2  C   UNL     1       2.748   8.168  18.060  0.00  0.00    +0.000 A 
ATOM      3  N   UNL     1       3.684   7.663  17.216  0.00  0.00    +0.000 NA
ATOM      4  N   UNL     1       4.005   6.438  17.743  0.00  0.00    +0.000 N 
ATOM      5  C   UNL     1       3.203   6.200  18.866  0.00  0.00    +0.000 A 
ATOM      6  C   UNL     1       2.454   7.307  19.135  0.00  0.00    +0.000 A 
ATOM      7  C   UNL     1       1.434   7.294  20.227  0.00  0.00    +0.000 C 
ATOM      8  C   UNL     1       1.549   6.061  21.138  0.00  0.00    +0.000 C 
ATOM      9  C   UNL     1       2.149   4.825  20.507  0.00  0.00    +0.000 C 
ATOM     10  O   UNL     1       1.896   3.693  20.909  0.00  0.00    +0.000 OA
ATOM     11  N   UNL     1       3.102   5.009  19.527  0.00  0.00    +0.000 N 
ATOM     12  H   UNL     1       3.626   4.194  19.198  0.00  0.00    +0.000 HD
ENDROOT
BRANCH   4  13
ATOM     13  C   UNL     1       5.053   5.552  17.309  0.00  0.00    +0.000 A 
ATOM     14  N   UNL     1       5.718   4.877  18.303  0.00  0.00    +0.000 NA
ATOM     15  C   UNL     1       7.015   4.602  18.116  0.00  0.00    +0.000 A 
ATOM     16  N   UNL     1       7.761   4.916  17.065  0.00  0.00    +0.000 NA
ATOM     17  C   UNL     1       7.010   5.206  15.989  0.00  0.00    +0.000 A 
ATOM     18  N   UNL     1       7.443   4.934  14.728  0.00  0.00    +0.000 NA
ATOM     19  C   UNL     1       6.359   4.504  14.135  0.00  0.00    +0.000 A 
ATOM     20  N   UNL     1       5.235   4.767  14.886  0.00  0.00    +0.000 N 
ATOM     21  C   UNL     1       5.629   5.427  16.051  0.00  0.00    +0.000 A 
ATOM     22  H   UNL     1       4.371   4.257  14.777  0.00  0.00    +0.000 HD
ENDBRANCH   4  13
BRANCH   7  23
ATOM     23  O   UNL     1       1.291   8.543  20.957  0.00  0.00    +0.000 OA
BRANCH  23  24
ATOM     24  C   UNL     1       0.065   9.260  20.771  0.00  0.00    +0.000 C 
BRANCH  24  25
ATOM     25  C   UNL     1       0.320  10.767  20.766  0.00  0.00    +0.000 C 
BRANCH  25  26
ATOM     26  N   UNL     1      -0.918  11.499  20.574  0.00  0.00    +0.000 N 
ATOM     27  N   UNL     1      -1.465  11.545  19.335  0.00  0.00    +0.000 NA
ATOM     28  C   UNL     1      -2.605  12.225  19.524  0.00  0.00    +0.000 A 
ATOM     29  C   UNL     1      -2.795  12.595  20.867  0.00  0.00    +0.000 A 
ATOM     30  C   UNL     1      -1.686  12.116  21.530  0.00  0.00    +0.000 A 
ATOM     31  C   UNL     1      -1.311  12.186  22.960  0.00  0.00    +0.000 C 
ENDBRANCH  25  26
ENDBRANCH  24  25
ENDBRANCH  23  24
ENDBRANCH   7  23
TORSDOF 5
ENDMDL
MODEL 6
REMARK VINA RESULT:      -7.8      3.400      8.390
REMARK  Name = 
REMARK  7 active torsions:
REMARK  status: ('A' for Active; 'I' for Inactive)
REMARK    1  A    between atoms: C_1  and  C_2
REMARK    2  A    between atoms: N_4  and  C_5
REMARK    3  A    between atoms: C_16  and  O_17
REMARK    4  A    between atoms: O_17  and  C_18
REMARK    5  A    between atoms: C_18  and  C_19
REMARK    6  A    between atoms: C_19  and  N_20
REMARK    7  A    between atoms: C_24  and  C_25
REMARK                            x       y       z     vdW  Elec       q    Type
REMARK                         _______ _______ _______ _____ _____    ______ ____
ROOT
ATOM      1  C   UNL     1       2.627   8.487  18.057  0.00  0.00    +0.000 C 
ATOM      2  C   UNL     1       1.402   9.130  18.584  0.00  0.00    +0.000 A 
ATOM      3  N   UNL     1       0.576   9.871  17.802  0.00  0.00    +0.000 NA
ATOM      4  N   UNL     1      -0.353  10.390  18.668  0.00  0.00    +0.000 N 
ATOM      5  C   UNL     1      -0.027  10.002  19.973  0.00  0.00    +0.000 A 
ATOM      6  C   UNL     1       1.031   9.142  19.943  0.00  0.00    +0.000 A 
ATOM      7  C   UNL     1       1.650   8.646  21.210  0.00  0.00    +0.000 C 
ATOM      8  C   UNL     1       0.805   8.966  22.453  0.00  0.00    +0.000 C 
ATOM      9  C   UNL     1      -0.090  10.179  22.352  0.00  0.00    +0.000 C 
ATOM     10  O   UNL     1      -0.448  10.816  23.338  0.00  0.00    +0.000 OA
ATOM     11  N   UNL     1      -0.605  10.489  21.110  0.00  0.00    +0.000 N 
ATOM     12  H   UNL     1      -1.329  11.211  21.050  0.00  0.00    +0.000 HD
ENDROOT
BRANCH   4  13
ATOM     13  C   UNL     1      -1.538  11.134  18.329  0.00  0.00    +0.000 A 
ATOM     14  N   UNL     1      -1.934  12.079  19.243  0.00  0.00    +0.000 NA
ATOM     15  C   UNL     1      -3.246  12.314  19.374  0.00  0.00    +0.000 A 
ATOM     16  N   UNL     1      -4.239  11.725  18.720  0.00  0.00    +0.000 NA
ATOM     17  C   UNL     1      -3.809  11.124  17.598  0.00  0.00    +0.000 A 
ATOM     18  N   UNL     1      -4.601  11.030  16.496  0.00  0.00    +0.000 NA
ATOM     19  C   UNL     1      -3.762  11.250  15.516  0.00  0.00    +0.000 A 
ATOM     20  N   UNL     1      -2.456  11.192  15.947  0.00  0.00    +0.000 N 
ATOM     21  C   UNL     1      -2.456  10.903  17.313  0.00  0.00    +0.000 A 
ATOM     22  H   UNL     1      -1.695  11.632  15.451  0.00  0.00    +0.000 HD
ENDBRANCH   4  13
BRANCH   7  23
ATOM     23  O   UNL     1       2.129   7.273  21.170  0.00  0.00    +0.000 OA
BRANCH  23  24
ATOM     24  C   UNL     1       1.197   6.280  20.726  0.00  0.00    +0.000 C 
BRANCH  24  25
ATOM     25  C   UNL     1       1.901   4.939  20.519  0.00  0.00    +0.000 C 
BRANCH  25  26
ATOM     26  N   UNL     1       2.862   5.022  19.435  0.00  0.00    +0.000 N 
ATOM     27  N   UNL     1       4.133   5.399  19.716  0.00  0.00    +0.000 NA
ATOM     28  C   UNL     1       4.754   5.305  18.531  0.00  0.00    +0.000 A 
ATOM     29  C   UNL     1       3.898   4.859  17.509  0.00  0.00    +0.000 A 
ATOM     30  C   UNL     1       2.674   4.684  18.119  0.00  0.00    +0.000 A 
ATOM     31  C   UNL     1       1.379   4.225  17.569  0.00  0.00    +0.000 C 
ENDBRANCH  25  26
ENDBRANCH  24  25
ENDBRANCH  23  24
ENDBRANCH   7  23
TORSDOF 5
ENDMDL
MODEL 7
REMARK VINA RESULT:      -7.8      2.461      3.485
REMARK  Name = 
REMARK  7 active torsions:
REMARK  status: ('A' for Active; 'I' for Inactive)
REMARK    1  A    between atoms: C_1  and  C_2
REMARK    2  A    between atoms: N_4  and  C_5
REMARK    3  A    between atoms: C_16  and  O_17
REMARK    4  A    between atoms: O_17  and  C_18
REMARK    5  A    between atoms: C_18  and  C_19
REMARK    6  A    between atoms: C_19  and  N_20
REMARK    7  A    between atoms: C_24  and  C_25
REMARK                            x       y       z     vdW  Elec       q    Type
REMARK                         _______ _______ _______ _____ _____    ______ ____
ROOT
ATOM      1  C   UNL     1       0.656   3.770  17.579  0.00  0.00    +0.000 C 
ATOM      2  C   UNL     1       2.117   3.740  17.817  0.00  0.00    +0.000 A 
ATOM      3  N   UNL     1       3.019   4.035  16.845  0.00  0.00    +0.000 NA
ATOM      4  N   UNL     1       4.241   3.772  17.411  0.00  0.00    +0.000 N 
ATOM      5  C   UNL     1       4.047   3.259  18.699  0.00  0.00    +0.000 A 
ATOM      6  C   UNL     1       2.720   3.299  19.011  0.00  0.00    +0.000 A 
ATOM      7  C   UNL     1       2.218   2.720  20.294  0.00  0.00    +0.000 C 
ATOM      8  C   UNL     1       3.349   2.376  21.277  0.00  0.00    +0.000 C 
ATOM      9  C   UNL     1       4.691   2.060  20.659  0.00  0.00    +0.000 C 
ATOM     10  O   UNL     1       5.522   1.349  21.217  0.00  0.00    +0.000 OA
ATOM     11  N   UNL     1       5.017   2.702  19.482  0.00  0.00    +0.000 N 
ATOM     12  H   UNL     1       5.975   2.619  19.131  0.00  0.00    +0.000 HD
ENDROOT
BRANCH   4  13
ATOM     13  C   UNL     1       5.537   4.054  16.851  0.00  0.00    +0.000 A 
ATOM     14  N   UNL     1       6.532   4.336  17.754  0.00  0.00    +0.000 NA
ATOM     15  C   UNL     1       7.485   5.202  17.388  0.00  0.00    +0.000 A 
ATOM     16  N   UNL     1       7.587   5.847  16.233  0.00  0.00    +0.000 NA
ATOM     17  C   UNL     1       6.852   5.263  15.270  0.00  0.00    +0.000 A 
ATOM     18  N   UNL     1       7.243   5.290  13.967  0.00  0.00    +0.000 NA
ATOM     19  C   UNL     1       6.938   4.087  13.548  0.00  0.00    +0.000 A 
ATOM     20  N   UNL     1       6.130   3.429  14.447  0.00  0.00    +0.000 N 
ATOM     21  C   UNL     1       5.888   4.281  15.526  0.00  0.00    +0.000 A 
ATOM     22  H   UNL     1       6.047   2.424  14.477  0.00  0.00    +0.000 HD
ENDBRANCH   4  13
BRANCH   7  23
ATOM     23  O   UNL     1       1.113   3.437  20.909  0.00  0.00    +0.000 OA
BRANCH  23  24
ATOM     24  C   UNL     1       0.868   4.767  20.436  0.00  0.00    +0.000 C 
BRANCH  24  25
ATOM     25  C   UNL     1       1.965   5.717  20.915  0.00  0.00    +0.000 C 
BRANCH  25  26
ATOM     26  N   UNL     1       2.011   6.910  20.091  0.00  0.00    +0.000 N 
ATOM     27  N   UNL     1       2.616   6.845  18.879  0.00  0.00    +0.000 NA
ATOM     28  C   UNL     1       2.422   8.070  18.369  0.00  0.00    +0.000 A 
ATOM     29  C   UNL     1       1.689   8.902  19.232  0.00  0.00    +0.000 A 
ATOM     30  C   UNL     1       1.436   8.130  20.345  0.00  0.00    +0.000 A 
ATOM     31  C   UNL     1       0.703   8.444  21.591  0.00  0.00    +0.000 C 
ENDBRANCH  25  26
ENDBRANCH  24  25
ENDBRANCH  23  24
ENDBRANCH   7  23
TORSDOF 5
ENDMDL
MODEL 8
REMARK VINA RESULT:      -7.7      3.433      8.493
REMARK  Name = 
REMARK  7 active torsions:
REMARK  status: ('A' for Active; 'I' for Inactive)
REMARK    1  A    between atoms: C_1  and  C_2
REMARK    2  A    between atoms: N_4  and  C_5
REMARK    3  A    between atoms: C_16  and  O_17
REMARK    4  A    between atoms: O_17  and  C_18
REMARK    5  A    between atoms: C_18  and  C_19
REMARK    6  A    between atoms: C_19  and  N_20
REMARK    7  A    between atoms: C_24  and  C_25
REMARK                            x       y       z     vdW  Elec       q    Type
REMARK                         _______ _______ _______ _____ _____    ______ ____
ROOT
ATOM      1  C   UNL     1       2.596   8.486  18.073  0.00  0.00    +0.000 C 
ATOM      2  C   UNL     1       1.375   9.139  18.596  0.00  0.00    +0.000 A 
ATOM      3  N   UNL     1       0.551   9.877  17.808  0.00  0.00    +0.000 NA
ATOM      4  N   UNL     1      -0.374  10.408  18.671  0.00  0.00    +0.000 N 
ATOM      5  C   UNL     1      -0.049  10.030  19.979  0.00  0.00    +0.000 A 
ATOM      6  C   UNL     1       1.006   9.165  19.955  0.00  0.00    +0.000 A 
ATOM      7  C   UNL     1       1.625   8.677  21.225  0.00  0.00    +0.000 C 
ATOM      8  C   UNL     1       0.782   9.012  22.467  0.00  0.00    +0.000 C 
ATOM      9  C   UNL     1      -0.107  10.229  22.356  0.00  0.00    +0.000 C 
ATOM     10  O   UNL     1      -0.460  10.876  23.337  0.00  0.00    +0.000 OA
ATOM     11  N   UNL     1      -0.623  10.529  21.113  0.00  0.00    +0.000 N 
ATOM     12  H   UNL     1      -1.343  11.254  21.047  0.00  0.00    +0.000 HD
ENDROOT
BRANCH   4  13
ATOM     13  C   UNL     1      -1.556  11.154  18.327  0.00  0.00    +0.000 A 
ATOM     14  N   UNL     1      -1.936  12.122  19.224  0.00  0.00    +0.000 NA
ATOM     15  C   UNL     1      -3.245  12.371  19.363  0.00  0.00    +0.000 A 
ATOM     16  N   UNL     1      -4.248  11.776  18.731  0.00  0.00    +0.000 NA
ATOM     17  C   UNL     1      -3.834  11.147  17.618  0.00  0.00    +0.000 A 
ATOM     18  N   UNL     1      -4.638  11.036  16.525  0.00  0.00    +0.000 NA
ATOM     19  C   UNL     1      -3.806  11.228  15.533  0.00  0.00    +0.000 A 
ATOM     20  N   UNL     1      -2.496  11.169  15.953  0.00  0.00    +0.000 N 
ATOM     21  C   UNL     1      -2.486  10.909  17.324  0.00  0.00    +0.000 A 
ATOM     22  H   UNL     1      -1.737  11.592  15.441  0.00  0.00    +0.000 HD
ENDBRANCH   4  13
BRANCH   7  23
ATOM     23  O   UNL     1       2.097   7.302  21.197  0.00  0.00    +0.000 OA
BRANCH  23  24
ATOM     24  C   UNL     1       1.187   6.321  20.687  0.00  0.00    +0.000 C 
BRANCH  24  25
ATOM     25  C   UNL     1       1.816   4.929  20.739  0.00  0.00    +0.000 C 
BRANCH  25  26
ATOM     26  N   UNL     1       2.217   4.493  19.414  0.00  0.00    +0.000 N 
ATOM     27  N   UNL     1       1.316   3.841  18.640  0.00  0.00    +0.000 NA
ATOM     28  C   UNL     1       1.977   3.650  17.489  0.00  0.00    +0.000 A 
ATOM     29  C   UNL     1       3.275   4.187  17.517  0.00  0.00    +0.000 A 
ATOM     30  C   UNL     1       3.410   4.727  18.778  0.00  0.00    +0.000 A 
ATOM     31  C   UNL     1       4.547   5.437  19.407  0.00  0.00    +0.000 C 
ENDBRANCH  25  26
ENDBRANCH  24  25
ENDBRANCH  23  24
ENDBRANCH   7  23
TORSDOF 5
ENDMDL
MODEL 9
REMARK VINA RESULT:      -7.7      2.289      3.573
REMARK  Name = 
REMARK  7 active torsions:
REMARK  status: ('A' for Active; 'I' for Inactive)
REMARK    1  A    between atoms: C_1  and  C_2
REMARK    2  A    between atoms: N_4  and  C_5
REMARK    3  A    between atoms: C_16  and  O_17
REMARK    4  A    between atoms: O_17  and  C_18
REMARK    5  A    between atoms: C_18  and  C_19
REMARK    6  A    between atoms: C_19  and  N_20
REMARK    7  A    between atoms: C_24  and  C_25
REMARK                            x       y       z     vdW  Elec       q    Type
REMARK                         _______ _______ _______ _____ _____    ______ ____
ROOT
ATOM      1  C   UNL     1       0.635   3.711  17.508  0.00  0.00    +0.000 C 
ATOM      2  C   UNL     1       2.094   3.705  17.761  0.00  0.00    +0.000 A 
ATOM      3  N   UNL     1       3.001   4.001  16.795  0.00  0.00    +0.000 NA
ATOM      4  N   UNL     1       4.221   3.763  17.377  0.00  0.00    +0.000 N 
ATOM      5  C   UNL     1       4.021   3.262  18.669  0.00  0.00    +0.000 A 
ATOM      6  C   UNL     1       2.690   3.287  18.967  0.00  0.00    +0.000 A 
ATOM      7  C   UNL     1       2.183   2.716  20.252  0.00  0.00    +0.000 C 
ATOM      8  C   UNL     1       3.308   2.400  21.250  0.00  0.00    +0.000 C 
ATOM      9  C   UNL     1       4.661   2.096  20.649  0.00  0.00    +0.000 C 
ATOM     10  O   UNL     1       5.496   1.404  21.225  0.00  0.00    +0.000 OA
ATOM     11  N   UNL     1       4.990   2.729  19.469  0.00  0.00    +0.000 N 
ATOM     12  H   UNL     1       5.953   2.655  19.128  0.00  0.00    +0.000 HD
ENDROOT
BRANCH   4  13
ATOM     13  C   UNL     1       5.519   4.056  16.827  0.00  0.00    +0.000 A 
ATOM     14  N   UNL     1       6.505   4.345  17.738  0.00  0.00    +0.000 NA
ATOM     15  C   UNL     1       7.453   5.219  17.380  0.00  0.00    +0.000 A 
ATOM     16  N   UNL     1       7.558   5.866  16.227  0.00  0.00    +0.000 NA
ATOM     17  C   UNL     1       6.836   5.278  15.258  0.00  0.00    +0.000 A 
ATOM     18  N   UNL     1       7.236   5.310  13.957  0.00  0.00    +0.000 NA
ATOM     19  C   UNL     1       6.944   4.107  13.535  0.00  0.00    +0.000 A 
ATOM     20  N   UNL     1       6.135   3.440  14.427  0.00  0.00    +0.000 N 
ATOM     21  C   UNL     1       5.878   4.288  15.505  0.00  0.00    +0.000 A 
ATOM     22  H   UNL     1       6.060   2.434  14.454  0.00  0.00    +0.000 HD
ENDBRANCH   4  13
BRANCH   7  23
ATOM     23  O   UNL     1       1.061   3.425  20.846  0.00  0.00    +0.000 OA
BRANCH  23  24
ATOM     24  C   UNL     1       0.823   4.758  20.378  0.00  0.00    +0.000 C 
BRANCH  24  25
ATOM     25  C   UNL     1       1.897   5.710  20.903  0.00  0.00    +0.000 C 
BRANCH  25  26
ATOM     26  N   UNL     1       1.599   7.080  20.528  0.00  0.00    +0.000 N 
ATOM     27  N   UNL     1       0.877   7.849  21.380  0.00  0.00    +0.000 NA
ATOM     28  C   UNL     1       0.846   9.043  20.770  0.00  0.00    +0.000 A 
ATOM     29  C   UNL     1       1.553   9.046  19.556  0.00  0.00    +0.000 A 
ATOM     30  C   UNL     1       2.031   7.760  19.417  0.00  0.00    +0.000 A 
ATOM     31  C   UNL     1       2.851   7.145  18.349  0.00  0.00    +0.000 C 
ENDBRANCH  25  26
ENDBRANCH  24  25
ENDBRANCH  23  24
ENDBRANCH   7  23
TORSDOF 5
ENDMDL
