MODEL 1
REMARK VINA RESULT:      -8.8      0.000      0.000
REMARK  Name = 
REMARK  1 active torsions:
REMARK  status: ('A' for Active; 'I' for Inactive)
REMARK    1  A    between atoms: C_7  and  C_8
REMARK                            x       y       z     vdW  Elec       q    Type
REMARK                         _______ _______ _______ _____ _____    ______ ____
ROOT
ATOM      1  O   UNL     1       1.460   7.818  21.603  0.00  0.00    +0.000 OA
ATOM      2  C   UNL     1       1.551   8.119  20.429  0.00  0.00    +0.000 C 
ATOM      3  O   UNL     1       0.932   9.176  19.821  0.00  0.00    +0.000 OA
ATOM      4  C   UNL     1       1.313   9.223  18.437  0.00  0.00    +0.000 C 
ATOM      5  C   UNL     1       2.270   8.109  18.296  0.00  0.00    +0.000 C 
ATOM      6  C   UNL     1       2.364   7.437  19.440  0.00  0.00    +0.000 C 
ATOM      7  C   UNL     1       3.183   6.212  19.611  0.00  0.00    +0.000 C 
ATOM      8  C   UNL     1       4.221   6.088  18.482  0.00  0.00    +0.000 A 
ATOM      9  C   UNL     1       5.312   5.214  18.631  0.00  0.00    +0.000 A 
ATOM     10  C   UNL     1       6.206   5.129  17.590  0.00  0.00    +0.000 A 
ATOM     11  C   UNL     1       6.034   5.835  16.421  0.00  0.00    +0.000 A 
ATOM     12  C   UNL     1       4.960   6.683  16.220  0.00  0.00    +0.000 A 
ATOM     13  C   UNL     1       4.051   6.843  17.273  0.00  0.00    +0.000 A 
ATOM     14  N   UNL     1       2.979   7.761  17.173  0.00  0.00    +0.000 N 
ATOM     15  O   UNL     1       7.050   5.615  15.539  0.00  0.00    +0.000 OA
ATOM     16  C   UNL     1       7.944   4.829  16.355  0.00  0.00    +0.000 C 
ATOM     17  O   UNL     1       7.342   4.382  17.586  0.00  0.00    +0.000 OA
ATOM     18  H   UNL     1       2.898   8.323  16.334  0.00  0.00    +0.000 HD
ENDROOT
BRANCH   7  19
ATOM     19  C   UNL     1       2.292   4.970  19.648  0.00  0.00    +0.000 A 
ATOM     20  C   UNL     1       1.732   4.458  18.468  0.00  0.00    +0.000 A 
ATOM     21  C   UNL     1       0.896   3.338  18.511  0.00  0.00    +0.000 A 
ATOM     22  C   UNL     1       0.615   2.719  19.728  0.00  0.00    +0.000 A 
ATOM     23  C   UNL     1       1.178   3.214  20.895  0.00  0.00    +0.000 A 
ATOM     24  F   UNL     1       0.916   2.617  22.065  0.00  0.00    +0.000 F 
ATOM     25  C   UNL     1       2.007   4.327  20.866  0.00  0.00    +0.000 A 
ENDBRANCH   7  19
TORSDOF 1
ENDMDL
MODEL 2
REMARK VINA RESULT:      -8.7      3.815      6.435
REMARK  Name = 
REMARK  1 active torsions:
REMARK  status: ('A' for Active; 'I' for Inactive)
REMARK    1  A    between atoms: C_7  and  C_8
REMARK                            x       y       z     vdW  Elec       q    Type
REMARK                         _______ _______ _______ _____ _____    ______ ____
ROOT
ATOM      1  O   UNL     1       7.215   8.078  16.888  0.00  0.00    +0.000 OA
ATOM      2  C   UNL     1       7.342   7.175  17.690  0.00  0.00    +0.000 C 
ATOM      3  O   UNL     1       8.311   7.085  18.650  0.00  0.00    +0.000 OA
ATOM      4  C   UNL     1       8.110   5.892  19.425  0.00  0.00    +0.000 C 
ATOM      5  C   UNL     1       6.881   5.306  18.857  0.00  0.00    +0.000 C 
ATOM      6  C   UNL     1       6.469   6.023  17.815  0.00  0.00    +0.000 C 
ATOM      7  C   UNL     1       5.305   5.657  16.971  0.00  0.00    +0.000 C 
ATOM      8  C   UNL     1       4.402   4.644  17.698  0.00  0.00    +0.000 A 
ATOM      9  C   UNL     1       3.089   4.431  17.244  0.00  0.00    +0.000 A 
ATOM     10  C   UNL     1       2.325   3.508  17.917  0.00  0.00    +0.000 A 
ATOM     11  C   UNL     1       2.823   2.781  18.975  0.00  0.00    +0.000 A 
ATOM     12  C   UNL     1       4.118   2.937  19.435  0.00  0.00    +0.000 A 
ATOM     13  C   UNL     1       4.918   3.904  18.813  0.00  0.00    +0.000 A 
ATOM     14  N   UNL     1       6.221   4.181  19.288  0.00  0.00    +0.000 N 
ATOM     15  O   UNL     1       1.887   1.943  19.503  0.00  0.00    +0.000 OA
ATOM     16  C   UNL     1       0.716   2.353  18.764  0.00  0.00    +0.000 C 
ATOM     17  O   UNL     1       1.023   3.218  17.653  0.00  0.00    +0.000 OA
ATOM     18  H   UNL     1       6.555   3.686  20.106  0.00  0.00    +0.000 HD
ENDROOT
BRANCH   7  19
ATOM     19  C   UNL     1       5.770   5.085  15.633  0.00  0.00    +0.000 A 
ATOM     20  C   UNL     1       7.132   5.073  15.296  0.00  0.00    +0.000 A 
ATOM     21  C   UNL     1       7.549   4.574  14.059  0.00  0.00    +0.000 A 
ATOM     22  C   UNL     1       6.615   4.079  13.150  0.00  0.00    +0.000 A 
ATOM     23  C   UNL     1       5.270   4.077  13.484  0.00  0.00    +0.000 A 
ATOM     24  F   UNL     1       4.369   3.596  12.617  0.00  0.00    +0.000 F 
ATOM     25  C   UNL     1       4.841   4.573  14.708  0.00  0.00    +0.000 A 
ENDBRANCH   7  19
TORSDOF 1
ENDMDL
MODEL 3
REMARK VINA RESULT:      -8.7      4.005      6.542
REMARK  Name = 
REMARK  1 active torsions:
REMARK  status: ('A' for Active; 'I' for Inactive)
REMARK    1  A    between atoms: C_7  and  C_8
REMARK                            x       y       z     vdW  Elec       q    Type
REMARK                         _______ _______ _______ _____ _____    ______ ____
ROOT
ATOM      1  O   UNL     1       7.248   8.094  16.954  0.00  0.00    +0.000 OA
ATOM      2  C   UNL     1       7.371   7.175  17.739  0.00  0.00    +0.000 C 
ATOM      3  O   UNL     1       8.350   7.056  18.687  0.00  0.00    +0.000 OA
ATOM      4  C   UNL     1       8.140   5.854  19.445  0.00  0.00    +0.000 C 
ATOM      5  C   UNL     1       6.898   5.293  18.880  0.00  0.00    +0.000 C 
ATOM      6  C   UNL     1       6.484   6.034  17.855  0.00  0.00    +0.000 C 
ATOM      7  C   UNL     1       5.306   5.697  17.018  0.00  0.00    +0.000 C 
ATOM      8  C   UNL     1       4.398   4.684  17.737  0.00  0.00    +0.000 A 
ATOM      9  C   UNL     1       3.077   4.496  17.295  0.00  0.00    +0.000 A 
ATOM     10  C   UNL     1       2.308   3.573  17.961  0.00  0.00    +0.000 A 
ATOM     11  C   UNL     1       2.807   2.821  19.000  0.00  0.00    +0.000 A 
ATOM     12  C   UNL     1       4.109   2.952  19.449  0.00  0.00    +0.000 A 
ATOM     13  C   UNL     1       4.915   3.919  18.835  0.00  0.00    +0.000 A 
ATOM     14  N   UNL     1       6.227   4.171  19.300  0.00  0.00    +0.000 N 
ATOM     15  O   UNL     1       1.866   1.987  19.525  0.00  0.00    +0.000 OA
ATOM     16  C   UNL     1       0.693   2.426  18.806  0.00  0.00    +0.000 C 
ATOM     17  O   UNL     1       0.999   3.304  17.706  0.00  0.00    +0.000 OA
ATOM     18  H   UNL     1       6.563   3.658  20.106  0.00  0.00    +0.000 HD
ENDROOT
BRANCH   7  19
ATOM     19  C   UNL     1       5.749   5.141  15.665  0.00  0.00    +0.000 A 
ATOM     20  C   UNL     1       4.990   4.157  15.014  0.00  0.00    +0.000 A 
ATOM     21  C   UNL     1       5.415   3.633  13.789  0.00  0.00    +0.000 A 
ATOM     22  C   UNL     1       6.594   4.088  13.202  0.00  0.00    +0.000 A 
ATOM     23  C   UNL     1       7.340   5.071  13.835  0.00  0.00    +0.000 A 
ATOM     24  F   UNL     1       8.470   5.516  13.271  0.00  0.00    +0.000 F 
ATOM     25  C   UNL     1       6.932   5.597  15.054  0.00  0.00    +0.000 A 
ENDBRANCH   7  19
TORSDOF 1
ENDMDL
MODEL 4
REMARK VINA RESULT:      -8.3      0.904      1.334
REMARK  Name = 
REMARK  1 active torsions:
REMARK  status: ('A' for Active; 'I' for Inactive)
REMARK    1  A    between atoms: C_7  and  C_8
REMARK                            x       y       z     vdW  Elec       q    Type
REMARK                         _______ _______ _______ _____ _____    ______ ____
ROOT
ATOM      1  O   UNL     1       1.428   8.048  21.675  0.00  0.00    +0.000 OA
ATOM      2  C   UNL     1       1.503   8.226  20.476  0.00  0.00    +0.000 C 
ATOM      3  O   UNL     1       0.846   9.192  19.765  0.00  0.00    +0.000 OA
ATOM      4  C   UNL     1       1.218   9.106  18.381  0.00  0.00    +0.000 C 
ATOM      5  C   UNL     1       2.211   8.015  18.349  0.00  0.00    +0.000 C 
ATOM      6  C   UNL     1       2.333   7.471  19.557  0.00  0.00    +0.000 C 
ATOM      7  C   UNL     1       3.193   6.297  19.849  0.00  0.00    +0.000 C 
ATOM      8  C   UNL     1       4.229   6.088  18.730  0.00  0.00    +0.000 A 
ATOM      9  C   UNL     1       5.349   5.271  18.961  0.00  0.00    +0.000 A 
ATOM     10  C   UNL     1       6.240   5.105  17.928  0.00  0.00    +0.000 A 
ATOM     11  C   UNL     1       6.039   5.678  16.693  0.00  0.00    +0.000 A 
ATOM     12  C   UNL     1       4.937   6.465  16.413  0.00  0.00    +0.000 A 
ATOM     13  C   UNL     1       4.028   6.706  17.451  0.00  0.00    +0.000 A 
ATOM     14  N   UNL     1       2.926   7.572  17.263  0.00  0.00    +0.000 N 
ATOM     15  O   UNL     1       7.057   5.399  15.830  0.00  0.00    +0.000 OA
ATOM     16  C   UNL     1       7.981   4.733  16.717  0.00  0.00    +0.000 C 
ATOM     17  O   UNL     1       7.400   4.399  17.993  0.00  0.00    +0.000 OA
ATOM     18  H   UNL     1       2.822   8.040  16.371  0.00  0.00    +0.000 HD
ENDROOT
BRANCH   7  19
ATOM     19  C   UNL     1       2.344   5.038  20.025  0.00  0.00    +0.000 A 
ATOM     20  C   UNL     1       2.189   4.453  21.290  0.00  0.00    +0.000 A 
ATOM     21  C   UNL     1       1.433   3.286  21.441  0.00  0.00    +0.000 A 
ATOM     22  C   UNL     1       0.823   2.698  20.334  0.00  0.00    +0.000 A 
ATOM     23  C   UNL     1       0.963   3.281  19.084  0.00  0.00    +0.000 A 
ATOM     24  F   UNL     1       0.373   2.722  18.020  0.00  0.00    +0.000 F 
ATOM     25  C   UNL     1       1.714   4.437  18.920  0.00  0.00    +0.000 A 
ENDBRANCH   7  19
TORSDOF 1
ENDMDL
MODEL 5
REMARK VINA RESULT:      -8.2      2.806      4.446
REMARK  Name = 
REMARK  1 active torsions:
REMARK  status: ('A' for Active; 'I' for Inactive)
REMARK    1  A    between atoms: C_7  and  C_8
REMARK                            x       y       z     vdW  Elec       q    Type
REMARK                         _______ _______ _______ _____ _____    ______ ____
ROOT
ATOM      1  O   UNL     1       0.285   3.398  19.702  0.00  0.00    +0.000 OA
ATOM      2  C   UNL     1       1.428   3.202  20.065  0.00  0.00    +0.000 C 
ATOM      3  O   UNL     1       1.813   2.404  21.107  0.00  0.00    +0.000 OA
ATOM      4  C   UNL     1       3.246   2.397  21.202  0.00  0.00    +0.000 C 
ATOM      5  C   UNL     1       3.679   3.238  20.070  0.00  0.00    +0.000 C 
ATOM      6  C   UNL     1       2.620   3.748  19.445  0.00  0.00    +0.000 C 
ATOM      7  C   UNL     1       2.712   4.700  18.311  0.00  0.00    +0.000 C 
ATOM      8  C   UNL     1       4.116   4.666  17.683  0.00  0.00    +0.000 A 
ATOM      9  C   UNL     1       4.321   5.213  16.404  0.00  0.00    +0.000 A 
ATOM     10  C   UNL     1       5.594   5.169  15.889  0.00  0.00    +0.000 A 
ATOM     11  C   UNL     1       6.651   4.649  16.601  0.00  0.00    +0.000 A 
ATOM     12  C   UNL     1       6.501   4.128  17.873  0.00  0.00    +0.000 A 
ATOM     13  C   UNL     1       5.211   4.102  18.419  0.00  0.00    +0.000 A 
ATOM     14  N   UNL     1       4.968   3.504  19.676  0.00  0.00    +0.000 N 
ATOM     15  O   UNL     1       7.813   4.689  15.890  0.00  0.00    +0.000 OA
ATOM     16  C   UNL     1       7.324   5.136  14.607  0.00  0.00    +0.000 C 
ATOM     17  O   UNL     1       5.960   5.598  14.652  0.00  0.00    +0.000 OA
ATOM     18  H   UNL     1       5.741   3.066  20.164  0.00  0.00    +0.000 HD
ENDROOT
BRANCH   7  19
ATOM     19  C   UNL     1       2.374   6.118  18.771  0.00  0.00    +0.000 A 
ATOM     20  C   UNL     1       2.093   6.383  20.120  0.00  0.00    +0.000 A 
ATOM     21  C   UNL     1       1.757   7.676  20.531  0.00  0.00    +0.000 A 
ATOM     22  C   UNL     1       1.704   8.716  19.603  0.00  0.00    +0.000 A 
ATOM     23  C   UNL     1       1.994   8.461  18.272  0.00  0.00    +0.000 A 
ATOM     24  F   UNL     1       1.950   9.458  17.378  0.00  0.00    +0.000 F 
ATOM     25  C   UNL     1       2.325   7.180  17.850  0.00  0.00    +0.000 A 
ENDBRANCH   7  19
TORSDOF 1
ENDMDL
MODEL 6
REMARK VINA RESULT:      -8.2      2.484      4.138
REMARK  Name = 
REMARK  1 active torsions:
REMARK  status: ('A' for Active; 'I' for Inactive)
REMARK    1  A    between atoms: C_7  and  C_8
REMARK                            x       y       z     vdW  Elec       q    Type
REMARK                         _______ _______ _______ _____ _____    ______ ____
ROOT
ATOM      1  O   UNL     1       0.275   3.399  19.682  0.00  0.00    +0.000 OA
ATOM      2  C   UNL     1       1.416   3.226  20.059  0.00  0.00    +0.000 C 
ATOM      3  O   UNL     1       1.801   2.459  21.125  0.00  0.00    +0.000 OA
ATOM      4  C   UNL     1       3.234   2.471  21.232  0.00  0.00    +0.000 C 
ATOM      5  C   UNL     1       3.667   3.287  20.081  0.00  0.00    +0.000 C 
ATOM      6  C   UNL     1       2.608   3.767  19.435  0.00  0.00    +0.000 C 
ATOM      7  C   UNL     1       2.700   4.690  18.276  0.00  0.00    +0.000 C 
ATOM      8  C   UNL     1       4.109   4.655  17.661  0.00  0.00    +0.000 A 
ATOM      9  C   UNL     1       4.319   5.170  16.370  0.00  0.00    +0.000 A 
ATOM     10  C   UNL     1       5.597   5.127  15.867  0.00  0.00    +0.000 A 
ATOM     11  C   UNL     1       6.653   4.637  16.601  0.00  0.00    +0.000 A 
ATOM     12  C   UNL     1       6.498   4.149  17.886  0.00  0.00    +0.000 A 
ATOM     13  C   UNL     1       5.204   4.123  18.421  0.00  0.00    +0.000 A 
ATOM     14  N   UNL     1       4.956   3.555  19.692  0.00  0.00    +0.000 N 
ATOM     15  O   UNL     1       7.821   4.671  15.899  0.00  0.00    +0.000 OA
ATOM     16  C   UNL     1       7.338   5.079  14.601  0.00  0.00    +0.000 C 
ATOM     17  O   UNL     1       5.969   5.527  14.621  0.00  0.00    +0.000 OA
ATOM     18  H   UNL     1       5.730   3.140  20.197  0.00  0.00    +0.000 HD
ENDROOT
BRANCH   7  19
ATOM     19  C   UNL     1       2.342   6.116  18.696  0.00  0.00    +0.000 A 
ATOM     20  C   UNL     1       2.325   7.154  17.752  0.00  0.00    +0.000 A 
ATOM     21  C   UNL     1       2.023   8.462  18.146  0.00  0.00    +0.000 A 
ATOM     22  C   UNL     1       1.732   8.743  19.480  0.00  0.00    +0.000 A 
ATOM     23  C   UNL     1       1.734   7.717  20.413  0.00  0.00    +0.000 A 
ATOM     24  F   UNL     1       1.448   7.982  21.694  0.00  0.00    +0.000 F 
ATOM     25  C   UNL     1       2.036   6.415  20.036  0.00  0.00    +0.000 A 
ENDBRANCH   7  19
TORSDOF 1
ENDMDL
MODEL 7
REMARK VINA RESULT:      -7.6      9.072     11.352
REMARK  Name = 
REMARK  1 active torsions:
REMARK  status: ('A' for Active; 'I' for Inactive)
REMARK    1  A    between atoms: C_7  and  C_8
REMARK                            x       y       z     vdW  Elec       q    Type
REMARK                         _______ _______ _______ _____ _____    ______ ____
ROOT
ATOM      1  O   UNL     1      11.640  13.339  16.399  0.00  0.00    +0.000 OA
ATOM      2  C   UNL     1      11.435  14.396  16.961  0.00  0.00    +0.000 C 
ATOM      3  O   UNL     1      12.332  15.420  17.096  0.00  0.00    +0.000 OA
ATOM      4  C   UNL     1      11.709  16.515  17.788  0.00  0.00    +0.000 C 
ATOM      5  C   UNL     1      10.325  16.053  18.005  0.00  0.00    +0.000 C 
ATOM      6  C   UNL     1      10.185  14.803  17.573  0.00  0.00    +0.000 C 
ATOM      7  C   UNL     1       8.934  14.017  17.716  0.00  0.00    +0.000 C 
ATOM      8  C   UNL     1       7.738  14.943  17.998  0.00  0.00    +0.000 A 
ATOM      9  C   UNL     1       6.428  14.462  17.824  0.00  0.00    +0.000 A 
ATOM     10  C   UNL     1       5.392  15.322  18.099  0.00  0.00    +0.000 A 
ATOM     11  C   UNL     1       5.609  16.598  18.569  0.00  0.00    +0.000 A 
ATOM     12  C   UNL     1       6.879  17.101  18.784  0.00  0.00    +0.000 A 
ATOM     13  C   UNL     1       7.968  16.280  18.466  0.00  0.00    +0.000 A 
ATOM     14  N   UNL     1       9.294  16.759  18.575  0.00  0.00    +0.000 N 
ATOM     15  O   UNL     1       4.442  17.278  18.753  0.00  0.00    +0.000 OA
ATOM     16  C   UNL     1       3.498  16.342  18.190  0.00  0.00    +0.000 C 
ATOM     17  O   UNL     1       4.071  15.045  17.933  0.00  0.00    +0.000 OA
ATOM     18  H   UNL     1       9.441  17.720  18.860  0.00  0.00    +0.000 HD
ENDROOT
BRANCH   7  19
ATOM     19  C   UNL     1       9.075  12.981  18.831  0.00  0.00    +0.000 A 
ATOM     20  C   UNL     1       9.136  13.382  20.175  0.00  0.00    +0.000 A 
ATOM     21  C   UNL     1       9.292  12.432  21.188  0.00  0.00    +0.000 A 
ATOM     22  C   UNL     1       9.384  11.077  20.873  0.00  0.00    +0.000 A 
ATOM     23  C   UNL     1       9.311  10.676  19.548  0.00  0.00    +0.000 A 
ATOM     24  F   UNL     1       9.392   9.375  19.241  0.00  0.00    +0.000 F 
ATOM     25  C   UNL     1       9.159  11.609  18.531  0.00  0.00    +0.000 A 
ENDBRANCH   7  19
TORSDOF 1
ENDMDL
MODEL 8
REMARK VINA RESULT:      -7.2      9.234     11.433
REMARK  Name = 
REMARK  1 active torsions:
REMARK  status: ('A' for Active; 'I' for Inactive)
REMARK    1  A    between atoms: C_7  and  C_8
REMARK                            x       y       z     vdW  Elec       q    Type
REMARK                         _______ _______ _______ _____ _____    ______ ____
ROOT
ATOM      1  O   UNL     1      11.805  13.703  16.519  0.00  0.00    +0.000 OA
ATOM      2  C   UNL     1      11.510  14.710  17.129  0.00  0.00    +0.000 C 
ATOM      3  O   UNL     1      12.333  15.779  17.359  0.00  0.00    +0.000 OA
ATOM      4  C   UNL     1      11.615  16.790  18.083  0.00  0.00    +0.000 C 
ATOM      5  C   UNL     1      10.256  16.232  18.216  0.00  0.00    +0.000 C 
ATOM      6  C   UNL     1      10.213  15.003  17.709  0.00  0.00    +0.000 C 
ATOM      7  C   UNL     1       9.011  14.134  17.756  0.00  0.00    +0.000 C 
ATOM      8  C   UNL     1       7.748  14.965  18.037  0.00  0.00    +0.000 A 
ATOM      9  C   UNL     1       6.480  14.415  17.780  0.00  0.00    +0.000 A 
ATOM     10  C   UNL     1       5.381  15.191  18.059  0.00  0.00    +0.000 A 
ATOM     11  C   UNL     1       5.496  16.449  18.607  0.00  0.00    +0.000 A 
ATOM     12  C   UNL     1       6.721  17.017  18.903  0.00  0.00    +0.000 A 
ATOM     13  C   UNL     1       7.873  16.284  18.588  0.00  0.00    +0.000 A 
ATOM     14  N   UNL     1       9.160  16.838  18.779  0.00  0.00    +0.000 N 
ATOM     15  O   UNL     1       4.281  17.044  18.778  0.00  0.00    +0.000 OA
ATOM     16  C   UNL     1       3.422  16.084  18.125  0.00  0.00    +0.000 C 
ATOM     17  O   UNL     1       4.088  14.843  17.821  0.00  0.00    +0.000 OA
ATOM     18  H   UNL     1       9.233  17.788  19.123  0.00  0.00    +0.000 HD
ENDROOT
BRANCH   7  19
ATOM     19  C   UNL     1       9.175  13.046  18.816  0.00  0.00    +0.000 A 
ATOM     20  C   UNL     1       9.235  11.693  18.449  0.00  0.00    +0.000 A 
ATOM     21  C   UNL     1       9.358  10.700  19.425  0.00  0.00    +0.000 A 
ATOM     22  C   UNL     1       9.427  11.047  20.774  0.00  0.00    +0.000 A 
ATOM     23  C   UNL     1       9.382  12.383  21.140  0.00  0.00    +0.000 A 
ATOM     24  F   UNL     1       9.456  12.721  22.435  0.00  0.00    +0.000 F 
ATOM     25  C   UNL     1       9.257  13.379  20.181  0.00  0.00    +0.000 A 
ENDBRANCH   7  19
TORSDOF 1
ENDMDL
MODEL 9
REMARK VINA RESULT:      -6.8      7.131      9.413
REMARK  Name = 
REMARK  1 active torsions:
REMARK  status: ('A' for Active; 'I' for Inactive)
REMARK    1  A    between atoms: C_7  and  C_8
REMARK                            x       y       z     vdW  Elec       q    Type
REMARK                         _______ _______ _______ _____ _____    ______ ____
ROOT
ATOM      1  O   UNL     1      -1.384  12.121  23.432  0.00  0.00    +0.000 OA
ATOM      2  C   UNL     1      -0.763  11.375  22.702  0.00  0.00    +0.000 C 
ATOM      3  O   UNL     1       0.168  10.455  23.100  0.00  0.00    +0.000 OA
ATOM      4  C   UNL     1       0.655   9.739  21.954  0.00  0.00    +0.000 C 
ATOM      5  C   UNL     1      -0.126  10.295  20.832  0.00  0.00    +0.000 C 
ATOM      6  C   UNL     1      -0.909  11.281  21.262  0.00  0.00    +0.000 C 
ATOM      7  C   UNL     1      -1.765  12.102  20.370  0.00  0.00    +0.000 C 
ATOM      8  C   UNL     1      -1.972  11.400  19.017  0.00  0.00    +0.000 A 
ATOM      9  C   UNL     1      -3.012  11.818  18.168  0.00  0.00    +0.000 A 
ATOM     10  C   UNL     1      -3.151  11.169  16.964  0.00  0.00    +0.000 A 
ATOM     11  C   UNL     1      -2.289  10.171  16.570  0.00  0.00    +0.000 A 
ATOM     12  C   UNL     1      -1.235   9.749  17.360  0.00  0.00    +0.000 A 
ATOM     13  C   UNL     1      -1.085  10.345  18.619  0.00  0.00    +0.000 A 
ATOM     14  N   UNL     1      -0.086   9.902  19.517  0.00  0.00    +0.000 N 
ATOM     15  O   UNL     1      -2.627   9.656  15.354  0.00  0.00    +0.000 OA
ATOM     16  C   UNL     1      -3.882  10.330  15.121  0.00  0.00    +0.000 C 
ATOM     17  O   UNL     1      -4.130  11.403  16.050  0.00  0.00    +0.000 OA
ATOM     18  H   UNL     1       0.502   9.124  19.243  0.00  0.00    +0.000 HD
ENDROOT
BRANCH   7  19
ATOM     19  C   UNL     1      -1.150  13.485  20.160  0.00  0.00    +0.000 A 
ATOM     20  C   UNL     1      -0.131  13.678  19.214  0.00  0.00    +0.000 A 
ATOM     21  C   UNL     1       0.446  14.940  19.045  0.00  0.00    +0.000 A 
ATOM     22  C   UNL     1       0.010  16.019  19.811  0.00  0.00    +0.000 A 
ATOM     23  C   UNL     1      -1.006  15.836  20.737  0.00  0.00    +0.000 A 
ATOM     24  F   UNL     1      -1.433  16.873  21.470  0.00  0.00    +0.000 F 
ATOM     25  C   UNL     1      -1.586  14.588  20.918  0.00  0.00    +0.000 A 
ENDBRANCH   7  19
TORSDOF 1
ENDMDL
