MODEL 1
REMARK VINA RESULT:      -8.7      0.000      0.000
REMARK  Name = 
REMARK  2 active torsions:
REMARK  status: ('A' for Active; 'I' for Inactive)
REMARK    1  A    between atoms: C_2  and  C_17
REMARK    2  A    between atoms: C_6  and  C_7
REMARK                            x       y       z     vdW  Elec       q    Type
REMARK                         _______ _______ _______ _____ _____    ______ ____
ROOT
ATOM      1  O   UNL     1       2.184   7.784  18.943  0.00  0.00    +0.000 OA
ATOM      2  C   UNL     1       1.805   7.654  20.102  0.00  0.00    +0.000 C 
ATOM      3  N   UNL     1       1.889   6.485  20.846  0.00  0.00    +0.000 N 
ATOM      4  C   UNL     1       2.509   5.313  20.493  0.00  0.00    +0.000 A 
ATOM      5  C   UNL     1       3.557   5.361  19.465  0.00  0.00    +0.000 A 
ATOM      6  C   UNL     1       4.070   4.200  19.040  0.00  0.00    +0.000 A 
ATOM      7  C   UNL     1       3.584   2.931  19.639  0.00  0.00    +0.000 A 
ATOM      8  O   UNL     1       3.966   1.831  19.254  0.00  0.00    +0.000 OA
ATOM      9  N   UNL     1       2.689   3.067  20.678  0.00  0.00    +0.000 N 
ATOM     10  N   UNL     1       2.123   4.240  21.106  0.00  0.00    +0.000 NA
ATOM     11  H   UNL     1       1.264   6.384  21.634  0.00  0.00    +0.000 HD
ATOM     12  H   UNL     1       2.334   2.212  21.094  0.00  0.00    +0.000 HD
ENDROOT
BRANCH   6  13
ATOM     13  C   UNL     1       5.090   4.259  17.990  0.00  0.00    +0.000 A 
ATOM     14  C   UNL     1       6.405   4.633  18.298  0.00  0.00    +0.000 A 
ATOM     15  C   UNL     1       7.334   4.830  17.274  0.00  0.00    +0.000 A 
ATOM     16  C   UNL     1       6.958   4.654  15.943  0.00  0.00    +0.000 A 
ATOM     17  C   UNL     1       5.655   4.270  15.631  0.00  0.00    +0.000 A 
ATOM     18  C   UNL     1       4.722   4.075  16.651  0.00  0.00    +0.000 A 
ENDBRANCH   6  13
BRANCH   2  19
ATOM     19  C   UNL     1       1.114   8.794  20.746  0.00  0.00    +0.000 A 
ATOM     20  C   UNL     1       0.794   8.686  22.105  0.00  0.00    +0.000 A 
ATOM     21  C   UNL     1       0.096   9.709  22.744  0.00  0.00    +0.000 A 
ATOM     22  C   UNL     1      -0.293  10.836  22.024  0.00  0.00    +0.000 A 
ATOM     23  C   UNL     1       0.014  10.943  20.665  0.00  0.00    +0.000 A 
ATOM     24  C   UNL     1       0.719   9.924  20.020  0.00  0.00    +0.000 A 
ENDBRANCH   2  19
TORSDOF 2
ENDMDL
MODEL 2
REMARK VINA RESULT:      -8.7      0.216      1.051
REMARK  Name = 
REMARK  2 active torsions:
REMARK  status: ('A' for Active; 'I' for Inactive)
REMARK    1  A    between atoms: C_2  and  C_17
REMARK    2  A    between atoms: C_6  and  C_7
REMARK                            x       y       z     vdW  Elec       q    Type
REMARK                         _______ _______ _______ _____ _____    ______ ____
ROOT
ATOM      1  O   UNL     1       2.059   7.985  19.023  0.00  0.00    +0.000 OA
ATOM      2  C   UNL     1       1.698   7.817  20.183  0.00  0.00    +0.000 C 
ATOM      3  N   UNL     1       1.817   6.632  20.895  0.00  0.00    +0.000 N 
ATOM      4  C   UNL     1       2.457   5.483  20.505  0.00  0.00    +0.000 A 
ATOM      5  C   UNL     1       3.491   5.580  19.465  0.00  0.00    +0.000 A 
ATOM      6  C   UNL     1       4.023   4.442  19.005  0.00  0.00    +0.000 A 
ATOM      7  C   UNL     1       3.573   3.147  19.577  0.00  0.00    +0.000 A 
ATOM      8  O   UNL     1       3.973   2.066  19.159  0.00  0.00    +0.000 OA
ATOM      9  N   UNL     1       2.688   3.238  20.630  0.00  0.00    +0.000 N 
ATOM     10  N   UNL     1       2.103   4.387  21.094  0.00  0.00    +0.000 NA
ATOM     11  H   UNL     1       1.204   6.498  21.688  0.00  0.00    +0.000 HD
ATOM     12  H   UNL     1       2.357   2.365  21.028  0.00  0.00    +0.000 HD
ENDROOT
BRANCH   6  13
ATOM     13  C   UNL     1       5.028   4.550  17.944  0.00  0.00    +0.000 A 
ATOM     14  C   UNL     1       4.669   4.361  16.603  0.00  0.00    +0.000 A 
ATOM     15  C   UNL     1       5.654   4.319  15.614  0.00  0.00    +0.000 A 
ATOM     16  C   UNL     1       6.997   4.468  15.956  0.00  0.00    +0.000 A 
ATOM     17  C   UNL     1       7.360   4.669  17.286  0.00  0.00    +0.000 A 
ATOM     18  C   UNL     1       6.379   4.709  18.279  0.00  0.00    +0.000 A 
ENDBRANCH   6  13
BRANCH   2  19
ATOM     19  C   UNL     1       0.990   8.926  20.864  0.00  0.00    +0.000 A 
ATOM     20  C   UNL     1       0.681   8.772  22.221  0.00  0.00    +0.000 A 
ATOM     21  C   UNL     1      -0.030   9.762  22.895  0.00  0.00    +0.000 A 
ATOM     22  C   UNL     1      -0.445  10.903  22.210  0.00  0.00    +0.000 A 
ATOM     23  C   UNL     1      -0.148  11.056  20.853  0.00  0.00    +0.000 A 
ATOM     24  C   UNL     1       0.571  10.069  20.174  0.00  0.00    +0.000 A 
ENDBRANCH   2  19
TORSDOF 2
ENDMDL
MODEL 3
REMARK VINA RESULT:      -8.6      0.114      1.038
REMARK  Name = 
REMARK  2 active torsions:
REMARK  status: ('A' for Active; 'I' for Inactive)
REMARK    1  A    between atoms: C_2  and  C_17
REMARK    2  A    between atoms: C_6  and  C_7
REMARK                            x       y       z     vdW  Elec       q    Type
REMARK                         _______ _______ _______ _____ _____    ______ ____
ROOT
ATOM      1  O   UNL     1       2.178   7.722  18.935  0.00  0.00    +0.000 OA
ATOM      2  C   UNL     1       1.796   7.599  20.094  0.00  0.00    +0.000 C 
ATOM      3  N   UNL     1       1.896   6.439  20.850  0.00  0.00    +0.000 N 
ATOM      4  C   UNL     1       2.535   5.273  20.512  0.00  0.00    +0.000 A 
ATOM      5  C   UNL     1       3.586   5.327  19.487  0.00  0.00    +0.000 A 
ATOM      6  C   UNL     1       4.117   4.170  19.077  0.00  0.00    +0.000 A 
ATOM      7  C   UNL     1       3.650   2.899  19.687  0.00  0.00    +0.000 A 
ATOM      8  O   UNL     1       4.050   1.801  19.315  0.00  0.00    +0.000 OA
ATOM      9  N   UNL     1       2.748   3.033  20.722  0.00  0.00    +0.000 N 
ATOM     10  N   UNL     1       2.163   4.201  21.135  0.00  0.00    +0.000 NA
ATOM     11  H   UNL     1       1.269   6.337  21.637  0.00  0.00    +0.000 HD
ATOM     12  H   UNL     1       2.405   2.177  21.145  0.00  0.00    +0.000 HD
ENDROOT
BRANCH   6  13
ATOM     13  C   UNL     1       5.141   4.234  18.029  0.00  0.00    +0.000 A 
ATOM     14  C   UNL     1       6.445   4.641  18.335  0.00  0.00    +0.000 A 
ATOM     15  C   UNL     1       7.375   4.842  17.312  0.00  0.00    +0.000 A 
ATOM     16  C   UNL     1       7.008   4.634  15.982  0.00  0.00    +0.000 A 
ATOM     17  C   UNL     1       5.715   4.217  15.672  0.00  0.00    +0.000 A 
ATOM     18  C   UNL     1       4.782   4.018  16.692  0.00  0.00    +0.000 A 
ENDBRANCH   6  13
BRANCH   2  19
ATOM     19  C   UNL     1       1.085   8.735  20.723  0.00  0.00    +0.000 A 
ATOM     20  C   UNL     1       0.792   9.849  19.927  0.00  0.00    +0.000 A 
ATOM     21  C   UNL     1       0.173  10.966  20.483  0.00  0.00    +0.000 A 
ATOM     22  C   UNL     1      -0.145  10.976  21.840  0.00  0.00    +0.000 A 
ATOM     23  C   UNL     1       0.155   9.871  22.641  0.00  0.00    +0.000 A 
ATOM     24  C   UNL     1       0.770   8.746  22.087  0.00  0.00    +0.000 A 
ENDBRANCH   2  19
TORSDOF 2
ENDMDL
MODEL 4
REMARK VINA RESULT:      -8.6      0.194      1.469
REMARK  Name = 
REMARK  2 active torsions:
REMARK  status: ('A' for Active; 'I' for Inactive)
REMARK    1  A    between atoms: C_2  and  C_17
REMARK    2  A    between atoms: C_6  and  C_7
REMARK                            x       y       z     vdW  Elec       q    Type
REMARK                         _______ _______ _______ _____ _____    ______ ____
ROOT
ATOM      1  O   UNL     1       2.047   7.935  19.014  0.00  0.00    +0.000 OA
ATOM      2  C   UNL     1       1.681   7.763  20.172  0.00  0.00    +0.000 C 
ATOM      3  N   UNL     1       1.807   6.578  20.883  0.00  0.00    +0.000 N 
ATOM      4  C   UNL     1       2.459   5.435  20.495  0.00  0.00    +0.000 A 
ATOM      5  C   UNL     1       3.497   5.543  19.461  0.00  0.00    +0.000 A 
ATOM      6  C   UNL     1       4.041   4.410  19.002  0.00  0.00    +0.000 A 
ATOM      7  C   UNL     1       3.600   3.111  19.571  0.00  0.00    +0.000 A 
ATOM      8  O   UNL     1       4.012   2.033  19.154  0.00  0.00    +0.000 OA
ATOM      9  N   UNL     1       2.709   3.193  20.620  0.00  0.00    +0.000 N 
ATOM     10  N   UNL     1       2.111   4.336  21.082  0.00  0.00    +0.000 NA
ATOM     11  H   UNL     1       1.192   6.438  21.673  0.00  0.00    +0.000 HD
ATOM     12  H   UNL     1       2.383   2.317  21.015  0.00  0.00    +0.000 HD
ENDROOT
BRANCH   6  13
ATOM     13  C   UNL     1       5.051   4.528  17.947  0.00  0.00    +0.000 A 
ATOM     14  C   UNL     1       4.697   4.357  16.602  0.00  0.00    +0.000 A 
ATOM     15  C   UNL     1       5.685   4.324  15.616  0.00  0.00    +0.000 A 
ATOM     16  C   UNL     1       7.028   4.464  15.966  0.00  0.00    +0.000 A 
ATOM     17  C   UNL     1       7.387   4.646  17.300  0.00  0.00    +0.000 A 
ATOM     18  C   UNL     1       6.402   4.676  18.289  0.00  0.00    +0.000 A 
ENDBRANCH   6  13
BRANCH   2  19
ATOM     19  C   UNL     1       0.961   8.865  20.850  0.00  0.00    +0.000 A 
ATOM     20  C   UNL     1       0.726  10.041  20.126  0.00  0.00    +0.000 A 
ATOM     21  C   UNL     1       0.101  11.126  20.735  0.00  0.00    +0.000 A 
ATOM     22  C   UNL     1      -0.282  11.043  22.073  0.00  0.00    +0.000 A 
ATOM     23  C   UNL     1      -0.040   9.875  22.802  0.00  0.00    +0.000 A 
ATOM     24  C   UNL     1       0.581   8.782  22.195  0.00  0.00    +0.000 A 
ENDBRANCH   2  19
TORSDOF 2
ENDMDL
MODEL 5
REMARK VINA RESULT:      -8.5      3.971      6.079
REMARK  Name = 
REMARK  2 active torsions:
REMARK  status: ('A' for Active; 'I' for Inactive)
REMARK    1  A    between atoms: C_2  and  C_17
REMARK    2  A    between atoms: C_6  and  C_7
REMARK                            x       y       z     vdW  Elec       q    Type
REMARK                         _______ _______ _______ _____ _____    ______ ____
ROOT
ATOM      1  O   UNL     1       3.790   2.533  17.205  0.00  0.00    +0.000 OA
ATOM      2  C   UNL     1       3.818   3.506  17.952  0.00  0.00    +0.000 C 
ATOM      3  N   UNL     1       4.634   4.617  17.787  0.00  0.00    +0.000 N 
ATOM      4  C   UNL     1       5.453   4.903  16.725  0.00  0.00    +0.000 A 
ATOM      5  C   UNL     1       5.170   4.261  15.434  0.00  0.00    +0.000 A 
ATOM      6  C   UNL     1       6.043   4.450  14.438  0.00  0.00    +0.000 A 
ATOM      7  C   UNL     1       7.231   5.311  14.667  0.00  0.00    +0.000 A 
ATOM      8  O   UNL     1       8.101   5.476  13.819  0.00  0.00    +0.000 OA
ATOM      9  N   UNL     1       7.283   5.937  15.895  0.00  0.00    +0.000 N 
ATOM     10  N   UNL     1       6.423   5.732  16.941  0.00  0.00    +0.000 NA
ATOM     11  H   UNL     1       4.827   5.181  18.604  0.00  0.00    +0.000 HD
ATOM     12  H   UNL     1       8.093   6.520  16.078  0.00  0.00    +0.000 HD
ENDROOT
BRANCH   6  13
ATOM     13  C   UNL     1       5.767   3.777  13.165  0.00  0.00    +0.000 A 
ATOM     14  C   UNL     1       4.519   3.914  12.546  0.00  0.00    +0.000 A 
ATOM     15  C   UNL     1       4.211   3.156  11.414  0.00  0.00    +0.000 A 
ATOM     16  C   UNL     1       5.147   2.262  10.895  0.00  0.00    +0.000 A 
ATOM     17  C   UNL     1       6.395   2.129  11.500  0.00  0.00    +0.000 A 
ATOM     18  C   UNL     1       6.705   2.883  12.633  0.00  0.00    +0.000 A 
ENDBRANCH   6  13
BRANCH   2  19
ATOM     19  C   UNL     1       2.994   3.470  19.181  0.00  0.00    +0.000 A 
ATOM     20  C   UNL     1       3.443   2.684  20.250  0.00  0.00    +0.000 A 
ATOM     21  C   UNL     1       2.678   2.574  21.409  0.00  0.00    +0.000 A 
ATOM     22  C   UNL     1       1.457   3.240  21.498  0.00  0.00    +0.000 A 
ATOM     23  C   UNL     1       1.001   4.017  20.430  0.00  0.00    +0.000 A 
ATOM     24  C   UNL     1       1.766   4.136  19.268  0.00  0.00    +0.000 A 
ENDBRANCH   2  19
TORSDOF 2
ENDMDL
MODEL 6
REMARK VINA RESULT:      -8.5      4.042      6.161
REMARK  Name = 
REMARK  2 active torsions:
REMARK  status: ('A' for Active; 'I' for Inactive)
REMARK    1  A    between atoms: C_2  and  C_17
REMARK    2  A    between atoms: C_6  and  C_7
REMARK                            x       y       z     vdW  Elec       q    Type
REMARK                         _______ _______ _______ _____ _____    ______ ____
ROOT
ATOM      1  O   UNL     1       3.846   2.386  17.190  0.00  0.00    +0.000 OA
ATOM      2  C   UNL     1       3.842   3.347  17.952  0.00  0.00    +0.000 C 
ATOM      3  N   UNL     1       4.622   4.485  17.808  0.00  0.00    +0.000 N 
ATOM      4  C   UNL     1       5.435   4.814  16.753  0.00  0.00    +0.000 A 
ATOM      5  C   UNL     1       5.176   4.183  15.451  0.00  0.00    +0.000 A 
ATOM      6  C   UNL     1       6.045   4.415  14.461  0.00  0.00    +0.000 A 
ATOM      7  C   UNL     1       7.205   5.309  14.707  0.00  0.00    +0.000 A 
ATOM      8  O   UNL     1       8.071   5.515  13.864  0.00  0.00    +0.000 OA
ATOM      9  N   UNL     1       7.234   5.917  15.944  0.00  0.00    +0.000 N 
ATOM     10  N   UNL     1       6.378   5.669  16.985  0.00  0.00    +0.000 NA
ATOM     11  H   UNL     1       4.796   5.042  18.634  0.00  0.00    +0.000 HD
ATOM     12  H   UNL     1       8.024   6.523  16.140  0.00  0.00    +0.000 HD
ENDROOT
BRANCH   6  13
ATOM     13  C   UNL     1       5.794   3.754  13.177  0.00  0.00    +0.000 A 
ATOM     14  C   UNL     1       4.545   3.866  12.553  0.00  0.00    +0.000 A 
ATOM     15  C   UNL     1       4.264   3.116  11.409  0.00  0.00    +0.000 A 
ATOM     16  C   UNL     1       5.226   2.256  10.881  0.00  0.00    +0.000 A 
ATOM     17  C   UNL     1       6.475   2.149  11.490  0.00  0.00    +0.000 A 
ATOM     18  C   UNL     1       6.759   2.894  12.636  0.00  0.00    +0.000 A 
ENDBRANCH   6  13
BRANCH   2  19
ATOM     19  C   UNL     1       3.016   3.266  19.179  0.00  0.00    +0.000 A 
ATOM     20  C   UNL     1       1.775   3.916  19.180  0.00  0.00    +0.000 A 
ATOM     21  C   UNL     1       0.985   3.916  20.326  0.00  0.00    +0.000 A 
ATOM     22  C   UNL     1       1.437   3.276  21.478  0.00  0.00    +0.000 A 
ATOM     23  C   UNL     1       2.678   2.634  21.485  0.00  0.00    +0.000 A 
ATOM     24  C   UNL     1       3.473   2.626  20.336  0.00  0.00    +0.000 A 
ENDBRANCH   2  19
TORSDOF 2
ENDMDL
MODEL 7
REMARK VINA RESULT:      -8.2      2.520      7.631
REMARK  Name = 
REMARK  2 active torsions:
REMARK  status: ('A' for Active; 'I' for Inactive)
REMARK    1  A    between atoms: C_2  and  C_17
REMARK    2  A    between atoms: C_6  and  C_7
REMARK                            x       y       z     vdW  Elec       q    Type
REMARK                         _______ _______ _______ _____ _____    ______ ____
ROOT
ATOM      1  O   UNL     1       5.411   6.341  15.751  0.00  0.00    +0.000 OA
ATOM      2  C   UNL     1       5.347   5.144  15.491  0.00  0.00    +0.000 C 
ATOM      3  N   UNL     1       4.784   4.176  16.311  0.00  0.00    +0.000 N 
ATOM      4  C   UNL     1       4.095   4.370  17.481  0.00  0.00    +0.000 A 
ATOM      5  C   UNL     1       3.484   5.684  17.721  0.00  0.00    +0.000 A 
ATOM      6  C   UNL     1       2.920   5.903  18.914  0.00  0.00    +0.000 A 
ATOM      7  C   UNL     1       2.910   4.813  19.922  0.00  0.00    +0.000 A 
ATOM      8  O   UNL     1       2.465   4.965  21.055  0.00  0.00    +0.000 OA
ATOM      9  N   UNL     1       3.414   3.603  19.495  0.00  0.00    +0.000 N 
ATOM     10  N   UNL     1       4.028   3.365  18.294  0.00  0.00    +0.000 NA
ATOM     11  H   UNL     1       5.076   3.218  16.173  0.00  0.00    +0.000 HD
ATOM     12  H   UNL     1       3.429   2.847  20.172  0.00  0.00    +0.000 HD
ENDROOT
BRANCH   6  13
ATOM     13  C   UNL     1       2.344   7.229  19.153  0.00  0.00    +0.000 A 
ATOM     14  C   UNL     1       1.791   7.549  20.399  0.00  0.00    +0.000 A 
ATOM     15  C   UNL     1       1.113   8.758  20.575  0.00  0.00    +0.000 A 
ATOM     16  C   UNL     1       0.987   9.652  19.512  0.00  0.00    +0.000 A 
ATOM     17  C   UNL     1       1.546   9.345  18.273  0.00  0.00    +0.000 A 
ATOM     18  C   UNL     1       2.221   8.136  18.092  0.00  0.00    +0.000 A 
ENDBRANCH   6  13
BRANCH   2  19
ATOM     19  C   UNL     1       5.998   4.660  14.252  0.00  0.00    +0.000 A 
ATOM     20  C   UNL     1       7.223   5.231  13.887  0.00  0.00    +0.000 A 
ATOM     21  C   UNL     1       7.850   4.849  12.703  0.00  0.00    +0.000 A 
ATOM     22  C   UNL     1       7.248   3.903  11.876  0.00  0.00    +0.000 A 
ATOM     23  C   UNL     1       6.020   3.338  12.231  0.00  0.00    +0.000 A 
ATOM     24  C   UNL     1       5.390   3.713  13.419  0.00  0.00    +0.000 A 
ENDBRANCH   2  19
TORSDOF 2
ENDMDL
MODEL 8
REMARK VINA RESULT:      -8.1      2.536      7.624
REMARK  Name = 
REMARK  2 active torsions:
REMARK  status: ('A' for Active; 'I' for Inactive)
REMARK    1  A    between atoms: C_2  and  C_17
REMARK    2  A    between atoms: C_6  and  C_7
REMARK                            x       y       z     vdW  Elec       q    Type
REMARK                         _______ _______ _______ _____ _____    ______ ____
ROOT
ATOM      1  O   UNL     1       5.370   6.351  15.730  0.00  0.00    +0.000 OA
ATOM      2  C   UNL     1       5.297   5.162  15.437  0.00  0.00    +0.000 C 
ATOM      3  N   UNL     1       4.741   4.174  16.237  0.00  0.00    +0.000 N 
ATOM      4  C   UNL     1       4.067   4.337  17.421  0.00  0.00    +0.000 A 
ATOM      5  C   UNL     1       3.465   5.647  17.705  0.00  0.00    +0.000 A 
ATOM      6  C   UNL     1       2.917   5.834  18.911  0.00  0.00    +0.000 A 
ATOM      7  C   UNL     1       2.915   4.716  19.889  0.00  0.00    +0.000 A 
ATOM      8  O   UNL     1       2.485   4.838  21.031  0.00  0.00    +0.000 OA
ATOM      9  N   UNL     1       3.408   3.517  19.421  0.00  0.00    +0.000 N 
ATOM     10  N   UNL     1       4.007   3.310  18.206  0.00  0.00    +0.000 NA
ATOM     11  H   UNL     1       5.027   3.218  16.069  0.00  0.00    +0.000 HD
ATOM     12  H   UNL     1       3.428   2.742  20.077  0.00  0.00    +0.000 HD
ENDROOT
BRANCH   6  13
ATOM     13  C   UNL     1       2.349   7.156  19.194  0.00  0.00    +0.000 A 
ATOM     14  C   UNL     1       1.803   7.439  20.452  0.00  0.00    +0.000 A 
ATOM     15  C   UNL     1       1.133   8.645  20.669  0.00  0.00    +0.000 A 
ATOM     16  C   UNL     1       1.008   9.573  19.635  0.00  0.00    +0.000 A 
ATOM     17  C   UNL     1       1.560   9.302  18.384  0.00  0.00    +0.000 A 
ATOM     18  C   UNL     1       2.228   8.096  18.162  0.00  0.00    +0.000 A 
ENDBRANCH   6  13
BRANCH   2  19
ATOM     19  C   UNL     1       5.931   4.710  14.178  0.00  0.00    +0.000 A 
ATOM     20  C   UNL     1       5.249   3.763  13.402  0.00  0.00    +0.000 A 
ATOM     21  C   UNL     1       5.826   3.265  12.236  0.00  0.00    +0.000 A 
ATOM     22  C   UNL     1       7.091   3.703  11.849  0.00  0.00    +0.000 A 
ATOM     23  C   UNL     1       7.780   4.640  12.625  0.00  0.00    +0.000 A 
ATOM     24  C   UNL     1       7.203   5.147  13.792  0.00  0.00    +0.000 A 
ENDBRANCH   2  19
TORSDOF 2
ENDMDL
MODEL 9
REMARK VINA RESULT:      -8.0      3.951      5.975
REMARK  Name = 
REMARK  2 active torsions:
REMARK  status: ('A' for Active; 'I' for Inactive)
REMARK    1  A    between atoms: C_2  and  C_17
REMARK    2  A    between atoms: C_6  and  C_7
REMARK                            x       y       z     vdW  Elec       q    Type
REMARK                         _______ _______ _______ _____ _____    ______ ____
ROOT
ATOM      1  O   UNL     1       3.912   2.486  17.391  0.00  0.00    +0.000 OA
ATOM      2  C   UNL     1       3.862   3.487  18.098  0.00  0.00    +0.000 C 
ATOM      3  N   UNL     1       4.603   4.644  17.900  0.00  0.00    +0.000 N 
ATOM      4  C   UNL     1       5.419   4.943  16.838  0.00  0.00    +0.000 A 
ATOM      5  C   UNL     1       5.202   4.232  15.571  0.00  0.00    +0.000 A 
ATOM      6  C   UNL     1       6.076   4.440  14.580  0.00  0.00    +0.000 A 
ATOM      7  C   UNL     1       7.199   5.389  14.791  0.00  0.00    +0.000 A 
ATOM      8  O   UNL     1       8.070   5.579  13.949  0.00  0.00    +0.000 OA
ATOM      9  N   UNL     1       7.188   6.065  15.992  0.00  0.00    +0.000 N 
ATOM     10  N   UNL     1       6.326   5.844  17.034  0.00  0.00    +0.000 NA
ATOM     11  H   UNL     1       4.743   5.252  18.695  0.00  0.00    +0.000 HD
ATOM     12  H   UNL     1       7.953   6.710  16.163  0.00  0.00    +0.000 HD
ENDROOT
BRANCH   6  13
ATOM     13  C   UNL     1       5.868   3.699  13.333  0.00  0.00    +0.000 A 
ATOM     14  C   UNL     1       6.950   3.108  12.669  0.00  0.00    +0.000 A 
ATOM     15  C   UNL     1       6.770   2.532  11.409  0.00  0.00    +0.000 A 
ATOM     16  C   UNL     1       5.511   2.542  10.809  0.00  0.00    +0.000 A 
ATOM     17  C   UNL     1       4.427   3.118  11.469  0.00  0.00    +0.000 A 
ATOM     18  C   UNL     1       4.605   3.697  12.727  0.00  0.00    +0.000 A 
ENDBRANCH   6  13
BRANCH   2  19
ATOM     19  C   UNL     1       3.021   3.444  19.316  0.00  0.00    +0.000 A 
ATOM     20  C   UNL     1       3.452   2.646  20.384  0.00  0.00    +0.000 A 
ATOM     21  C   UNL     1       2.671   2.529  21.531  0.00  0.00    +0.000 A 
ATOM     22  C   UNL     1       1.453   3.201  21.610  0.00  0.00    +0.000 A 
ATOM     23  C   UNL     1       1.014   3.990  20.543  0.00  0.00    +0.000 A 
ATOM     24  C   UNL     1       1.796   4.115  19.393  0.00  0.00    +0.000 A 
ENDBRANCH   2  19
TORSDOF 2
ENDMDL
