MODEL 1
REMARK VINA RESULT:      -6.5      0.000      0.000
REMARK  Name = 
REMARK  11 active torsions:
REMARK  status: ('A' for Active; 'I' for Inactive)
REMARK    1  A    between atoms: C_1  and  C_2
REMARK    2  A    between atoms: C_2  and  C_3
REMARK    3  A    between atoms: C_3  and  N_4
REMARK    4  A    between atoms: N_4  and  C_5
REMARK    5  A    between atoms: C_5  and  C_6
REMARK    6  A    between atoms: C_6  and  N_7
REMARK    7  A    between atoms: C_8  and  C_10
REMARK    8  A    between atoms: C_10  and  C_11
REMARK    9  A    between atoms: C_10  and  C_12
REMARK   10  A    between atoms: C_15  and  O_16
REMARK   11  A    between atoms: O_16  and  C_17
REMARK                            x       y       z     vdW  Elec       q    Type
REMARK                         _______ _______ _______ _____ _____    ______ ____
ROOT
ATOM      1  N   UNL     1       5.110   3.380  19.098  0.00  0.00    +0.000 N 
ATOM      2  C   UNL     1       4.852   4.724  19.295  0.00  0.00    +0.000 C 
ATOM      3  O   UNL     1       3.873   5.120  19.927  0.00  0.00    +0.000 OA
ATOM      4  H   UNL     1       5.992   3.103  18.693  0.00  0.00    +0.000 HD
ENDROOT
BRANCH   2   5
ATOM      5  C   UNL     1       5.889   5.668  18.683  0.00  0.00    +0.000 C 
ATOM      6  C   UNL     1       7.204   5.572  19.466  0.00  0.00    +0.000 C 
BRANCH   5   7
ATOM      7  C   UNL     1       6.110   5.379  17.206  0.00  0.00    +0.000 A 
ATOM      8  C   UNL     1       7.315   4.821  16.755  0.00  0.00    +0.000 A 
ATOM      9  C   UNL     1       7.506   4.546  15.397  0.00  0.00    +0.000 A 
ATOM     10  C   UNL     1       6.492   4.797  14.471  0.00  0.00    +0.000 A 
ATOM     11  C   UNL     1       5.298   5.365  14.907  0.00  0.00    +0.000 A 
ATOM     12  C   UNL     1       5.109   5.655  16.261  0.00  0.00    +0.000 A 
BRANCH  10  13
ATOM     13  O   UNL     1       6.785   4.488  13.172  0.00  0.00    +0.000 OA
ATOM     14  C   UNL     1       5.969   3.477  12.590  0.00  0.00    +0.000 C 
ENDBRANCH  10  13
ENDBRANCH   5   7
ENDBRANCH   2   5
BRANCH   1  15
ATOM     15  C   UNL     1       4.276   2.383  19.744  0.00  0.00    +0.000 C 
BRANCH  15  16
ATOM     16  C   UNL     1       3.729   1.322  18.778  0.00  0.00    +0.000 C 
BRANCH  16  17
ATOM     17  N   UNL     1       2.270   1.409  18.637  0.00  0.00    +0.000 NA
ATOM     18  H   UNL     1       2.012   1.648  17.683  0.00  0.00    +0.000 HD
BRANCH  17  19
ATOM     19  C   UNL     1       1.709   2.383  19.573  0.00  0.00    +0.000 C 
BRANCH  19  21
ATOM     20  C   UNL     1       1.520   4.103  17.750  0.00  0.00    +0.000 C 
ATOM     21  C   UNL     1       0.774   3.341  18.835  0.00  0.00    +0.000 C 
ENDBRANCH  19  21
ENDBRANCH  17  19
ENDBRANCH  16  17
ENDBRANCH  15  16
ENDBRANCH   1  15
TORSDOF 8
ENDMDL
MODEL 2
REMARK VINA RESULT:      -6.5      3.987      7.380
REMARK  Name = 
REMARK  11 active torsions:
REMARK  status: ('A' for Active; 'I' for Inactive)
REMARK    1  A    between atoms: C_1  and  C_2
REMARK    2  A    between atoms: C_2  and  C_3
REMARK    3  A    between atoms: C_3  and  N_4
REMARK    4  A    between atoms: N_4  and  C_5
REMARK    5  A    between atoms: C_5  and  C_6
REMARK    6  A    between atoms: C_6  and  N_7
REMARK    7  A    between atoms: C_8  and  C_10
REMARK    8  A    between atoms: C_10  and  C_11
REMARK    9  A    between atoms: C_10  and  C_12
REMARK   10  A    between atoms: C_15  and  O_16
REMARK   11  A    between atoms: O_16  and  C_17
REMARK                            x       y       z     vdW  Elec       q    Type
REMARK                         _______ _______ _______ _____ _____    ______ ____
ROOT
ATOM      1  N   UNL     1       7.043   7.441  17.130  0.00  0.00    +0.000 N 
ATOM      2  C   UNL     1       6.859   6.115  16.788  0.00  0.00    +0.000 C 
ATOM      3  O   UNL     1       7.629   5.228  17.155  0.00  0.00    +0.000 OA
ATOM      4  H   UNL     1       6.315   8.109  16.921  0.00  0.00    +0.000 HD
ENDROOT
BRANCH   2   5
ATOM      5  C   UNL     1       5.616   5.843  15.937  0.00  0.00    +0.000 C 
ATOM      6  C   UNL     1       5.959   4.849  14.822  0.00  0.00    +0.000 C 
BRANCH   5   7
ATOM      7  C   UNL     1       4.456   5.337  16.781  0.00  0.00    +0.000 A 
ATOM      8  C   UNL     1       4.131   3.974  16.814  0.00  0.00    +0.000 A 
ATOM      9  C   UNL     1       3.071   3.515  17.603  0.00  0.00    +0.000 A 
ATOM     10  C   UNL     1       2.336   4.401  18.392  0.00  0.00    +0.000 A 
ATOM     11  C   UNL     1       2.642   5.759  18.356  0.00  0.00    +0.000 A 
ATOM     12  C   UNL     1       3.691   6.223  17.557  0.00  0.00    +0.000 A 
BRANCH  10  13
ATOM     13  O   UNL     1       1.326   3.844  19.125  0.00  0.00    +0.000 OA
ATOM     14  C   UNL     1       1.183   4.353  20.447  0.00  0.00    +0.000 C 
ENDBRANCH  10  13
ENDBRANCH   5   7
ENDBRANCH   2   5
BRANCH   1  15
ATOM     15  C   UNL     1       8.108   7.810  18.045  0.00  0.00    +0.000 C 
BRANCH  15  16
ATOM     16  C   UNL     1       8.362   9.322  18.113  0.00  0.00    +0.000 C 
BRANCH  16  17
ATOM     17  N   UNL     1       9.115   9.698  19.316  0.00  0.00    +0.000 NA
ATOM     18  H   UNL     1       8.553   9.563  20.153  0.00  0.00    +0.000 HD
BRANCH  17  19
ATOM     19  C   UNL     1       9.577  11.084  19.235  0.00  0.00    +0.000 C 
BRANCH  19  21
ATOM     20  C   UNL     1      10.763  12.744  17.766  0.00  0.00    +0.000 C 
ATOM     21  C   UNL     1      10.078  11.387  17.823  0.00  0.00    +0.000 C 
ENDBRANCH  19  21
ENDBRANCH  17  19
ENDBRANCH  16  17
ENDBRANCH  15  16
ENDBRANCH   1  15
TORSDOF 8
ENDMDL
MODEL 3
REMARK VINA RESULT:      -6.5      2.733      6.174
REMARK  Name = 
REMARK  11 active torsions:
REMARK  status: ('A' for Active; 'I' for Inactive)
REMARK    1  A    between atoms: C_1  and  C_2
REMARK    2  A    between atoms: C_2  and  C_3
REMARK    3  A    between atoms: C_3  and  N_4
REMARK    4  A    between atoms: N_4  and  C_5
REMARK    5  A    between atoms: C_5  and  C_6
REMARK    6  A    between atoms: C_6  and  N_7
REMARK    7  A    between atoms: C_8  and  C_10
REMARK    8  A    between atoms: C_10  and  C_11
REMARK    9  A    between atoms: C_10  and  C_12
REMARK   10  A    between atoms: C_15  and  O_16
REMARK   11  A    between atoms: O_16  and  C_17
REMARK                            x       y       z     vdW  Elec       q    Type
REMARK                         _______ _______ _______ _____ _____    ______ ____
ROOT
ATOM      1  N   UNL     1       6.337   5.021  15.486  0.00  0.00    +0.000 N 
ATOM      2  C   UNL     1       6.991   4.936  16.701  0.00  0.00    +0.000 C 
ATOM      3  O   UNL     1       8.010   4.264  16.854  0.00  0.00    +0.000 OA
ATOM      4  H   UNL     1       5.588   5.689  15.376  0.00  0.00    +0.000 HD
ENDROOT
BRANCH   2   5
ATOM      5  C   UNL     1       6.355   5.757  17.825  0.00  0.00    +0.000 C 
ATOM      6  C   UNL     1       6.354   7.242  17.444  0.00  0.00    +0.000 C 
BRANCH   5   7
ATOM      7  C   UNL     1       4.950   5.275  18.148  0.00  0.00    +0.000 A 
ATOM      8  C   UNL     1       4.734   4.006  18.703  0.00  0.00    +0.000 A 
ATOM      9  C   UNL     1       3.439   3.575  19.010  0.00  0.00    +0.000 A 
ATOM     10  C   UNL     1       2.342   4.410  18.794  0.00  0.00    +0.000 A 
ATOM     11  C   UNL     1       2.544   5.667  18.230  0.00  0.00    +0.000 A 
ATOM     12  C   UNL     1       3.835   6.095  17.908  0.00  0.00    +0.000 A 
BRANCH  10  13
ATOM     13  O   UNL     1       1.124   3.889  19.132  0.00  0.00    +0.000 OA
ATOM     14  C   UNL     1       1.020   3.406  20.468  0.00  0.00    +0.000 C 
ENDBRANCH  10  13
ENDBRANCH   5   7
ENDBRANCH   2   5
BRANCH   1  15
ATOM     15  C   UNL     1       6.916   4.397  14.309  0.00  0.00    +0.000 C 
BRANCH  15  16
ATOM     16  C   UNL     1       5.887   3.674  13.430  0.00  0.00    +0.000 C 
BRANCH  16  17
ATOM     17  N   UNL     1       6.501   3.103  12.224  0.00  0.00    +0.000 NA
ATOM     18  H   UNL     1       6.727   3.831  11.553  0.00  0.00    +0.000 HD
BRANCH  17  19
ATOM     19  C   UNL     1       5.625   2.104  11.612  0.00  0.00    +0.000 C 
BRANCH  19  21
ATOM     20  C   UNL     1       6.196  -0.339  11.449  0.00  0.00    +0.000 C 
ATOM     21  C   UNL     1       6.460   1.050  10.886  0.00  0.00    +0.000 C 
ENDBRANCH  19  21
ENDBRANCH  17  19
ENDBRANCH  16  17
ENDBRANCH  15  16
ENDBRANCH   1  15
TORSDOF 8
ENDMDL
MODEL 4
REMARK VINA RESULT:      -6.4      2.539      5.961
REMARK  Name = 
REMARK  11 active torsions:
REMARK  status: ('A' for Active; 'I' for Inactive)
REMARK    1  A    between atoms: C_1  and  C_2
REMARK    2  A    between atoms: C_2  and  C_3
REMARK    3  A    between atoms: C_3  and  N_4
REMARK    4  A    between atoms: N_4  and  C_5
REMARK    5  A    between atoms: C_5  and  C_6
REMARK    6  A    between atoms: C_6  and  N_7
REMARK    7  A    between atoms: C_8  and  C_10
REMARK    8  A    between atoms: C_10  and  C_11
REMARK    9  A    between atoms: C_10  and  C_12
REMARK   10  A    between atoms: C_15  and  O_16
REMARK   11  A    between atoms: O_16  and  C_17
REMARK                            x       y       z     vdW  Elec       q    Type
REMARK                         _______ _______ _______ _____ _____    ______ ____
ROOT
ATOM      1  N   UNL     1       7.332   4.494  15.473  0.00  0.00    +0.000 N 
ATOM      2  C   UNL     1       6.770   5.381  16.372  0.00  0.00    +0.000 C 
ATOM      3  O   UNL     1       6.335   6.480  16.028  0.00  0.00    +0.000 OA
ATOM      4  H   UNL     1       7.549   3.557  15.778  0.00  0.00    +0.000 HD
ENDROOT
BRANCH   2   5
ATOM      5  C   UNL     1       6.717   4.878  17.816  0.00  0.00    +0.000 C 
ATOM      6  C   UNL     1       7.425   5.877  18.739  0.00  0.00    +0.000 C 
BRANCH   5   7
ATOM      7  C   UNL     1       5.289   4.630  18.274  0.00  0.00    +0.000 A 
ATOM      8  C   UNL     1       4.801   5.205  19.456  0.00  0.00    +0.000 A 
ATOM      9  C   UNL     1       3.482   4.982  19.863  0.00  0.00    +0.000 A 
ATOM     10  C   UNL     1       2.620   4.206  19.087  0.00  0.00    +0.000 A 
ATOM     11  C   UNL     1       3.098   3.619  17.919  0.00  0.00    +0.000 A 
ATOM     12  C   UNL     1       4.420   3.826  17.517  0.00  0.00    +0.000 A 
BRANCH  10  13
ATOM     13  O   UNL     1       1.352   4.057  19.578  0.00  0.00    +0.000 OA
ATOM     14  C   UNL     1       1.270   3.494  20.884  0.00  0.00    +0.000 C 
ENDBRANCH  10  13
ENDBRANCH   5   7
ENDBRANCH   2   5
BRANCH   1  15
ATOM     15  C   UNL     1       7.318   4.798  14.054  0.00  0.00    +0.000 C 
BRANCH  15  16
ATOM     16  C   UNL     1       6.065   4.286  13.330  0.00  0.00    +0.000 C 
BRANCH  16  17
ATOM     17  N   UNL     1       6.234   2.909  12.848  0.00  0.00    +0.000 NA
ATOM     18  H   UNL     1       7.219   2.678  12.748  0.00  0.00    +0.000 HD
BRANCH  17  19
ATOM     19  C   UNL     1       5.535   2.708  11.579  0.00  0.00    +0.000 C 
BRANCH  19  21
ATOM     20  C   UNL     1       3.584   3.624  10.286  0.00  0.00    +0.000 C 
ATOM     21  C   UNL     1       4.117   3.272  11.666  0.00  0.00    +0.000 C 
ENDBRANCH  19  21
ENDBRANCH  17  19
ENDBRANCH  16  17
ENDBRANCH  15  16
ENDBRANCH   1  15
TORSDOF 8
ENDMDL
MODEL 5
REMARK VINA RESULT:      -6.4      2.718      4.070
REMARK  Name = 
REMARK  11 active torsions:
REMARK  status: ('A' for Active; 'I' for Inactive)
REMARK    1  A    between atoms: C_1  and  C_2
REMARK    2  A    between atoms: C_2  and  C_3
REMARK    3  A    between atoms: C_3  and  N_4
REMARK    4  A    between atoms: N_4  and  C_5
REMARK    5  A    between atoms: C_5  and  C_6
REMARK    6  A    between atoms: C_6  and  N_7
REMARK    7  A    between atoms: C_8  and  C_10
REMARK    8  A    between atoms: C_10  and  C_11
REMARK    9  A    between atoms: C_10  and  C_12
REMARK   10  A    between atoms: C_15  and  O_16
REMARK   11  A    between atoms: O_16  and  C_17
REMARK                            x       y       z     vdW  Elec       q    Type
REMARK                         _______ _______ _______ _____ _____    ______ ____
ROOT
ATOM      1  N   UNL     1       2.124   4.260  19.377  0.00  0.00    +0.000 N 
ATOM      2  C   UNL     1       3.114   3.311  19.550  0.00  0.00    +0.000 C 
ATOM      3  O   UNL     1       3.384   2.835  20.651  0.00  0.00    +0.000 OA
ATOM      4  H   UNL     1       1.848   4.518  18.440  0.00  0.00    +0.000 HD
ENDROOT
BRANCH   2   5
ATOM      5  C   UNL     1       3.828   2.893  18.262  0.00  0.00    +0.000 C 
ATOM      6  C   UNL     1       2.793   2.586  17.172  0.00  0.00    +0.000 C 
BRANCH   5   7
ATOM      7  C   UNL     1       4.813   3.953  17.795  0.00  0.00    +0.000 A 
ATOM      8  C   UNL     1       5.660   4.599  18.707  0.00  0.00    +0.000 A 
ATOM      9  C   UNL     1       6.572   5.564  18.268  0.00  0.00    +0.000 A 
ATOM     10  C   UNL     1       6.676   5.881  16.913  0.00  0.00    +0.000 A 
ATOM     11  C   UNL     1       5.830   5.255  16.001  0.00  0.00    +0.000 A 
ATOM     12  C   UNL     1       4.906   4.302  16.438  0.00  0.00    +0.000 A 
BRANCH  10  13
ATOM     13  O   UNL     1       7.602   6.835  16.595  0.00  0.00    +0.000 OA
ATOM     14  C   UNL     1       7.757   7.874  17.556  0.00  0.00    +0.000 C 
ENDBRANCH  10  13
ENDBRANCH   5   7
ENDBRANCH   2   5
BRANCH   1  15
ATOM     15  C   UNL     1       1.283   4.639  20.498  0.00  0.00    +0.000 C 
BRANCH  15  16
ATOM     16  C   UNL     1       1.470   6.098  20.938  0.00  0.00    +0.000 C 
BRANCH  16  17
ATOM     17  N   UNL     1       2.441   6.806  20.094  0.00  0.00    +0.000 NA
ATOM     18  H   UNL     1       3.306   6.975  20.600  0.00  0.00    +0.000 HD
BRANCH  17  19
ATOM     19  C   UNL     1       1.887   8.067  19.601  0.00  0.00    +0.000 C 
BRANCH  19  21
ATOM     20  C   UNL     1       3.408   7.500  17.682  0.00  0.00    +0.000 C 
ATOM     21  C   UNL     1       2.114   8.185  18.094  0.00  0.00    +0.000 C 
ENDBRANCH  19  21
ENDBRANCH  17  19
ENDBRANCH  16  17
ENDBRANCH  15  16
ENDBRANCH   1  15
TORSDOF 8
ENDMDL
MODEL 6
REMARK VINA RESULT:      -6.3      3.989      7.424
REMARK  Name = 
REMARK  11 active torsions:
REMARK  status: ('A' for Active; 'I' for Inactive)
REMARK    1  A    between atoms: C_1  and  C_2
REMARK    2  A    between atoms: C_2  and  C_3
REMARK    3  A    between atoms: C_3  and  N_4
REMARK    4  A    between atoms: N_4  and  C_5
REMARK    5  A    between atoms: C_5  and  C_6
REMARK    6  A    between atoms: C_6  and  N_7
REMARK    7  A    between atoms: C_8  and  C_10
REMARK    8  A    between atoms: C_10  and  C_11
REMARK    9  A    between atoms: C_10  and  C_12
REMARK   10  A    between atoms: C_15  and  O_16
REMARK   11  A    between atoms: O_16  and  C_17
REMARK                            x       y       z     vdW  Elec       q    Type
REMARK                         _______ _______ _______ _____ _____    ______ ____
ROOT
ATOM      1  N   UNL     1       7.134   7.478  17.192  0.00  0.00    +0.000 N 
ATOM      2  C   UNL     1       6.271   6.462  17.558  0.00  0.00    +0.000 C 
ATOM      3  O   UNL     1       6.426   5.807  18.588  0.00  0.00    +0.000 OA
ATOM      4  H   UNL     1       6.891   8.073  16.414  0.00  0.00    +0.000 HD
ENDROOT
BRANCH   2   5
ATOM      5  C   UNL     1       5.106   6.236  16.591  0.00  0.00    +0.000 C 
ATOM      6  C   UNL     1       5.629   5.635  15.281  0.00  0.00    +0.000 C 
BRANCH   5   7
ATOM      7  C   UNL     1       4.029   5.355  17.205  0.00  0.00    +0.000 A 
ATOM      8  C   UNL     1       3.050   5.898  18.048  0.00  0.00    +0.000 A 
ATOM      9  C   UNL     1       2.055   5.083  18.598  0.00  0.00    +0.000 A 
ATOM     10  C   UNL     1       2.003   3.722  18.296  0.00  0.00    +0.000 A 
ATOM     11  C   UNL     1       2.979   3.170  17.470  0.00  0.00    +0.000 A 
ATOM     12  C   UNL     1       3.984   3.978  16.931  0.00  0.00    +0.000 A 
BRANCH  10  13
ATOM     13  O   UNL     1       0.988   3.021  18.885  0.00  0.00    +0.000 OA
ATOM     14  C   UNL     1       1.207   2.664  20.246  0.00  0.00    +0.000 C 
ENDBRANCH  10  13
ENDBRANCH   5   7
ENDBRANCH   2   5
BRANCH   1  15
ATOM     15  C   UNL     1       8.200   7.880  18.092  0.00  0.00    +0.000 C 
BRANCH  15  16
ATOM     16  C   UNL     1       8.386   9.400  18.182  0.00  0.00    +0.000 C 
BRANCH  16  17
ATOM     17  N   UNL     1       9.201   9.786  19.341  0.00  0.00    +0.000 NA
ATOM     18  H   UNL     1       8.685   9.652  20.207  0.00  0.00    +0.000 HD
BRANCH  17  19
ATOM     19  C   UNL     1       9.651  11.173  19.229  0.00  0.00    +0.000 C 
BRANCH  19  21
ATOM     20  C   UNL     1      10.365  12.853  17.501  0.00  0.00    +0.000 C 
ATOM     21  C   UNL     1      10.369  11.384  17.896  0.00  0.00    +0.000 C 
ENDBRANCH  19  21
ENDBRANCH  17  19
ENDBRANCH  16  17
ENDBRANCH  15  16
ENDBRANCH   1  15
TORSDOF 8
ENDMDL
MODEL 7
REMARK VINA RESULT:      -6.3      3.860      7.364
REMARK  Name = 
REMARK  11 active torsions:
REMARK  status: ('A' for Active; 'I' for Inactive)
REMARK    1  A    between atoms: C_1  and  C_2
REMARK    2  A    between atoms: C_2  and  C_3
REMARK    3  A    between atoms: C_3  and  N_4
REMARK    4  A    between atoms: N_4  and  C_5
REMARK    5  A    between atoms: C_5  and  C_6
REMARK    6  A    between atoms: C_6  and  N_7
REMARK    7  A    between atoms: C_8  and  C_10
REMARK    8  A    between atoms: C_10  and  C_11
REMARK    9  A    between atoms: C_10  and  C_12
REMARK   10  A    between atoms: C_15  and  O_16
REMARK   11  A    between atoms: O_16  and  C_17
REMARK                            x       y       z     vdW  Elec       q    Type
REMARK                         _______ _______ _______ _____ _____    ______ ____
ROOT
ATOM      1  N   UNL     1       6.884   7.112  16.942  0.00  0.00    +0.000 N 
ATOM      2  C   UNL     1       6.819   5.748  16.727  0.00  0.00    +0.000 C 
ATOM      3  O   UNL     1       7.681   4.975  17.143  0.00  0.00    +0.000 OA
ATOM      4  H   UNL     1       6.089   7.686  16.701  0.00  0.00    +0.000 HD
ENDROOT
BRANCH   2   5
ATOM      5  C   UNL     1       5.585   5.283  15.951  0.00  0.00    +0.000 C 
ATOM      6  C   UNL     1       5.955   4.098  15.051  0.00  0.00    +0.000 C 
BRANCH   5   7
ATOM      7  C   UNL     1       4.437   4.924  16.882  0.00  0.00    +0.000 A 
ATOM      8  C   UNL     1       3.651   5.922  17.474  0.00  0.00    +0.000 A 
ATOM      9  C   UNL     1       2.590   5.583  18.319  0.00  0.00    +0.000 A 
ATOM     10  C   UNL     1       2.277   4.246  18.566  0.00  0.00    +0.000 A 
ATOM     11  C   UNL     1       3.060   3.247  17.995  0.00  0.00    +0.000 A 
ATOM     12  C   UNL     1       4.131   3.582  17.162  0.00  0.00    +0.000 A 
BRANCH  10  13
ATOM     13  O   UNL     1       1.218   4.029  19.404  0.00  0.00    +0.000 OA
ATOM     14  C   UNL     1       1.187   2.747  20.024  0.00  0.00    +0.000 C 
ENDBRANCH  10  13
ENDBRANCH   5   7
ENDBRANCH   2   5
BRANCH   1  15
ATOM     15  C   UNL     1       7.933   7.663  17.780  0.00  0.00    +0.000 C 
BRANCH  15  16
ATOM     16  C   UNL     1       8.005   9.195  17.746  0.00  0.00    +0.000 C 
BRANCH  16  17
ATOM     17  N   UNL     1       8.900   9.726  18.783  0.00  0.00    +0.000 NA
ATOM     18  H   UNL     1       8.380   9.959  19.625  0.00  0.00    +0.000 HD
BRANCH  17  19
ATOM     19  C   UNL     1       9.630  10.897  18.297  0.00  0.00    +0.000 C 
BRANCH  19  21
ATOM     20  C   UNL     1      10.910  11.700  20.306  0.00  0.00    +0.000 C 
ATOM     21  C   UNL     1       9.716  11.954  19.399  0.00  0.00    +0.000 C 
ENDBRANCH  19  21
ENDBRANCH  17  19
ENDBRANCH  16  17
ENDBRANCH  15  16
ENDBRANCH   1  15
TORSDOF 8
ENDMDL
MODEL 8
REMARK VINA RESULT:      -6.2      3.863      7.524
REMARK  Name = 
REMARK  11 active torsions:
REMARK  status: ('A' for Active; 'I' for Inactive)
REMARK    1  A    between atoms: C_1  and  C_2
REMARK    2  A    between atoms: C_2  and  C_3
REMARK    3  A    between atoms: C_3  and  N_4
REMARK    4  A    between atoms: N_4  and  C_5
REMARK    5  A    between atoms: C_5  and  C_6
REMARK    6  A    between atoms: C_6  and  N_7
REMARK    7  A    between atoms: C_8  and  C_10
REMARK    8  A    between atoms: C_10  and  C_11
REMARK    9  A    between atoms: C_10  and  C_12
REMARK   10  A    between atoms: C_15  and  O_16
REMARK   11  A    between atoms: O_16  and  C_17
REMARK                            x       y       z     vdW  Elec       q    Type
REMARK                         _______ _______ _______ _____ _____    ______ ____
ROOT
ATOM      1  N   UNL     1       6.775   7.402  17.521  0.00  0.00    +0.000 N 
ATOM      2  C   UNL     1       6.636   6.407  16.572  0.00  0.00    +0.000 C 
ATOM      3  O   UNL     1       7.603   5.858  16.046  0.00  0.00    +0.000 OA
ATOM      4  H   UNL     1       5.959   7.723  18.020  0.00  0.00    +0.000 HD
ENDROOT
BRANCH   2   5
ATOM      5  C   UNL     1       5.187   6.034  16.248  0.00  0.00    +0.000 C 
ATOM      6  C   UNL     1       5.162   4.857  15.265  0.00  0.00    +0.000 C 
BRANCH   5   7
ATOM      7  C   UNL     1       4.394   5.713  17.505  0.00  0.00    +0.000 A 
ATOM      8  C   UNL     1       4.659   4.553  18.247  0.00  0.00    +0.000 A 
ATOM      9  C   UNL     1       3.934   4.272  19.409  0.00  0.00    +0.000 A 
ATOM     10  C   UNL     1       2.952   5.152  19.865  0.00  0.00    +0.000 A 
ATOM     11  C   UNL     1       2.671   6.299  19.128  0.00  0.00    +0.000 A 
ATOM     12  C   UNL     1       3.383   6.577  17.958  0.00  0.00    +0.000 A 
BRANCH  10  13
ATOM     13  O   UNL     1       2.308   4.780  21.012  0.00  0.00    +0.000 OA
ATOM     14  C   UNL     1       1.316   3.771  20.850  0.00  0.00    +0.000 C 
ENDBRANCH  10  13
ENDBRANCH   5   7
ENDBRANCH   2   5
BRANCH   1  15
ATOM     15  C   UNL     1       8.096   7.750  18.014  0.00  0.00    +0.000 C 
BRANCH  15  16
ATOM     16  C   UNL     1       8.339   9.263  18.099  0.00  0.00    +0.000 C 
BRANCH  16  17
ATOM     17  N   UNL     1       9.118   9.627  19.289  0.00  0.00    +0.000 NA
ATOM     18  H   UNL     1       8.605   9.409  20.139  0.00  0.00    +0.000 HD
BRANCH  17  19
ATOM     19  C   UNL     1       9.482  11.043  19.266  0.00  0.00    +0.000 C 
BRANCH  19  21
ATOM     20  C   UNL     1      11.596  11.771  18.116  0.00  0.00    +0.000 C 
ATOM     21  C   UNL     1      10.135  11.394  17.928  0.00  0.00    +0.000 C 
ENDBRANCH  19  21
ENDBRANCH  17  19
ENDBRANCH  16  17
ENDBRANCH  15  16
ENDBRANCH   1  15
TORSDOF 8
ENDMDL
MODEL 9
REMARK VINA RESULT:      -6.2      2.379      5.748
REMARK  Name = 
REMARK  11 active torsions:
REMARK  status: ('A' for Active; 'I' for Inactive)
REMARK    1  A    between atoms: C_1  and  C_2
REMARK    2  A    between atoms: C_2  and  C_3
REMARK    3  A    between atoms: C_3  and  N_4
REMARK    4  A    between atoms: N_4  and  C_5
REMARK    5  A    between atoms: C_5  and  C_6
REMARK    6  A    between atoms: C_6  and  N_7
REMARK    7  A    between atoms: C_8  and  C_10
REMARK    8  A    between atoms: C_10  and  C_11
REMARK    9  A    between atoms: C_10  and  C_12
REMARK   10  A    between atoms: C_15  and  O_16
REMARK   11  A    between atoms: O_16  and  C_17
REMARK                            x       y       z     vdW  Elec       q    Type
REMARK                         _______ _______ _______ _____ _____    ______ ____
ROOT
ATOM      1  N   UNL     1       7.289   4.541  16.046  0.00  0.00    +0.000 N 
ATOM      2  C   UNL     1       7.269   5.481  17.059  0.00  0.00    +0.000 C 
ATOM      3  O   UNL     1       7.498   6.673  16.856  0.00  0.00    +0.000 OA
ATOM      4  H   UNL     1       6.963   3.605  16.237  0.00  0.00    +0.000 HD
ENDROOT
BRANCH   2   5
ATOM      5  C   UNL     1       6.923   4.921  18.441  0.00  0.00    +0.000 C 
ATOM      6  C   UNL     1       7.475   5.850  19.529  0.00  0.00    +0.000 C 
BRANCH   5   7
ATOM      7  C   UNL     1       5.426   4.717  18.606  0.00  0.00    +0.000 A 
ATOM      8  C   UNL     1       4.924   3.621  19.322  0.00  0.00    +0.000 A 
ATOM      9  C   UNL     1       3.545   3.447  19.480  0.00  0.00    +0.000 A 
ATOM     10  C   UNL     1       2.646   4.374  18.952  0.00  0.00    +0.000 A 
ATOM     11  C   UNL     1       3.133   5.458  18.227  0.00  0.00    +0.000 A 
ATOM     12  C   UNL     1       4.510   5.627  18.054  0.00  0.00    +0.000 A 
BRANCH  10  13
ATOM     13  O   UNL     1       1.323   4.107  19.169  0.00  0.00    +0.000 OA
ATOM     14  C   UNL     1       0.916   2.774  18.875  0.00  0.00    +0.000 C 
ENDBRANCH  10  13
ENDBRANCH   5   7
ENDBRANCH   2   5
BRANCH   1  15
ATOM     15  C   UNL     1       7.470   4.967  14.669  0.00  0.00    +0.000 C 
BRANCH  15  16
ATOM     16  C   UNL     1       6.260   4.673  13.772  0.00  0.00    +0.000 C 
BRANCH  16  17
ATOM     17  N   UNL     1       6.183   3.254  13.403  0.00  0.00    +0.000 NA
ATOM     18  H   UNL     1       6.869   2.708  13.917  0.00  0.00    +0.000 HD
BRANCH  17  19
ATOM     19  C   UNL     1       6.366   3.075  11.963  0.00  0.00    +0.000 C 
BRANCH  19  21
ATOM     20  C   UNL     1       3.991   3.210  11.153  0.00  0.00    +0.000 C 
ATOM     21  C   UNL     1       5.187   2.298  11.377  0.00  0.00    +0.000 C 
ENDBRANCH  19  21
ENDBRANCH  17  19
ENDBRANCH  16  17
ENDBRANCH  15  16
ENDBRANCH   1  15
TORSDOF 8
ENDMDL
