MODEL 1
REMARK VINA RESULT:      -7.6      0.000      0.000
REMARK  Name = 
REMARK  10 active torsions:
REMARK  status: ('A' for Active; 'I' for Inactive)
REMARK    1  A    between atoms: C_1  and  C_2
REMARK    2  A    between atoms: C_2  and  C_3
REMARK    3  A    between atoms: C_2  and  N_4
REMARK    4  A    between atoms: C_5  and  C_7
REMARK    5  A    between atoms: C_7  and  C_8
REMARK    6  A    between atoms: C_7  and  N_17
REMARK    7  A    between atoms: C_8  and  C_9
REMARK    8  A    between atoms: C_9  and  N_10
REMARK    9  A    between atoms: N_13  and  C_14
REMARK   10  A    between atoms: C_18  and  C_20
REMARK                            x       y       z     vdW  Elec       q    Type
REMARK                         _______ _______ _______ _____ _____    ______ ____
ROOT
ATOM      1  C   UNL     1       6.259   4.480  15.706  0.00  0.00    +0.000 C 
ENDROOT
BRANCH   1   3
ATOM      2  N   UNL     1       5.659   3.520  13.492  0.00  0.00    +0.000 N 
ATOM      3  C   UNL     1       6.455   4.421  14.166  0.00  0.00    +0.000 C 
ATOM      4  O   UNL     1       7.275   5.137  13.587  0.00  0.00    +0.000 OA
ATOM      5  H   UNL     1       4.845   3.157  13.975  0.00  0.00    +0.000 HD
BRANCH   2   7
ATOM      6  C   UNL     1       6.552   2.079  11.724  0.00  0.00    +0.000 C 
ATOM      7  C   UNL     1       5.734   3.329  12.049  0.00  0.00    +0.000 C 
ATOM      8  C   UNL     1       4.344   3.205  11.421  0.00  0.00    +0.000 C 
ENDBRANCH   2   7
ENDBRANCH   1   3
BRANCH   1   9
ATOM      9  N   UNL     1       6.689   5.751  16.301  0.00  0.00    +0.000 N 
ATOM     10  C   UNL     1       7.382   5.798  17.500  0.00  0.00    +0.000 C 
ATOM     11  O   UNL     1       7.615   4.795  18.150  0.00  0.00    +0.000 OA
ATOM     12  H   UNL     1       6.410   6.628  15.882  0.00  0.00    +0.000 HD
BRANCH  10  13
ATOM     13  C   UNL     1       7.798   7.134  17.894  0.00  0.00    +0.000 A 
ATOM     14  C   UNL     1       8.533   7.594  18.975  0.00  0.00    +0.000 A 
ATOM     15  C   UNL     1       8.666   8.995  18.809  0.00  0.00    +0.000 A 
ATOM     16  C   UNL     1       8.000   9.307  17.649  0.00  0.00    +0.000 A 
ATOM     17  O   UNL     1       7.477   8.190  17.083  0.00  0.00    +0.000 OA
ENDBRANCH  10  13
ENDBRANCH   1   9
BRANCH   1  18
ATOM     18  C   UNL     1       4.771   4.257  15.987  0.00  0.00    +0.000 C 
BRANCH  18  19
ATOM     19  C   UNL     1       4.522   3.366  17.219  0.00  0.00    +0.000 C 
BRANCH  19  20
ATOM     20  N   UNL     1       3.177   3.584  17.774  0.00  0.00    +0.000 NA
ATOM     21  C   UNL     1       3.223   4.415  18.996  0.00  0.00    +0.000 C 
ATOM     22  C   UNL     1       1.807   4.658  19.581  0.00  0.00    +0.000 C 
ATOM     23  N   UNL     1       1.007   3.439  19.831  0.00  0.00    +0.000 NA
ATOM     24  C   UNL     1       1.470   2.723  21.017  0.00  0.00    +0.000 C 
ATOM     25  C   UNL     1       1.060   2.578  18.638  0.00  0.00    +0.000 C 
ATOM     26  C   UNL     1       2.481   2.321  18.092  0.00  0.00    +0.000 C 
ENDBRANCH  19  20
ENDBRANCH  18  19
ENDBRANCH   1  18
TORSDOF 7
ENDMDL
MODEL 2
REMARK VINA RESULT:      -7.4      0.757      1.121
REMARK  Name = 
REMARK  10 active torsions:
REMARK  status: ('A' for Active; 'I' for Inactive)
REMARK    1  A    between atoms: C_1  and  C_2
REMARK    2  A    between atoms: C_2  and  C_3
REMARK    3  A    between atoms: C_2  and  N_4
REMARK    4  A    between atoms: C_5  and  C_7
REMARK    5  A    between atoms: C_7  and  C_8
REMARK    6  A    between atoms: C_7  and  N_17
REMARK    7  A    between atoms: C_8  and  C_9
REMARK    8  A    between atoms: C_9  and  N_10
REMARK    9  A    between atoms: N_13  and  C_14
REMARK   10  A    between atoms: C_18  and  C_20
REMARK                            x       y       z     vdW  Elec       q    Type
REMARK                         _______ _______ _______ _____ _____    ______ ____
ROOT
ATOM      1  C   UNL     1       6.333   4.154  15.548  0.00  0.00    +0.000 C 
ENDROOT
BRANCH   1   3
ATOM      2  N   UNL     1       5.741   3.217  13.322  0.00  0.00    +0.000 N 
ATOM      3  C   UNL     1       6.460   4.178  13.999  0.00  0.00    +0.000 C 
ATOM      4  O   UNL     1       7.163   5.007  13.417  0.00  0.00    +0.000 OA
ATOM      5  H   UNL     1       4.999   2.743  13.823  0.00  0.00    +0.000 HD
BRANCH   2   7
ATOM      6  C   UNL     1       6.343   1.733  11.468  0.00  0.00    +0.000 C 
ATOM      7  C   UNL     1       5.768   3.091  11.869  0.00  0.00    +0.000 C 
ATOM      8  C   UNL     1       4.374   3.254  11.261  0.00  0.00    +0.000 C 
ENDBRANCH   2   7
ENDBRANCH   1   3
BRANCH   1   9
ATOM      9  N   UNL     1       6.686   5.430  16.182  0.00  0.00    +0.000 N 
ATOM     10  C   UNL     1       7.438   5.482  17.345  0.00  0.00    +0.000 C 
ATOM     11  O   UNL     1       7.790   4.476  17.932  0.00  0.00    +0.000 OA
ATOM     12  H   UNL     1       6.312   6.297  15.821  0.00  0.00    +0.000 HD
BRANCH  10  13
ATOM     13  C   UNL     1       7.761   6.830  17.783  0.00  0.00    +0.000 A 
ATOM     14  C   UNL     1       8.426   7.306  18.902  0.00  0.00    +0.000 A 
ATOM     15  C   UNL     1       8.485   8.716  18.770  0.00  0.00    +0.000 A 
ATOM     16  C   UNL     1       7.848   9.016  17.591  0.00  0.00    +0.000 A 
ATOM     17  O   UNL     1       7.413   7.885  16.982  0.00  0.00    +0.000 OA
ENDBRANCH  10  13
ENDBRANCH   1   9
BRANCH   1  18
ATOM     18  C   UNL     1       4.882   3.797  15.882  0.00  0.00    +0.000 C 
BRANCH  18  19
ATOM     19  C   UNL     1       4.399   4.431  17.200  0.00  0.00    +0.000 C 
BRANCH  19  20
ATOM     20  N   UNL     1       3.760   3.433  18.072  0.00  0.00    +0.000 NA
ATOM     21  C   UNL     1       2.291   3.424  17.899  0.00  0.00    +0.000 C 
ATOM     22  C   UNL     1       1.611   2.366  18.807  0.00  0.00    +0.000 C 
ATOM     23  N   UNL     1       1.948   2.454  20.245  0.00  0.00    +0.000 NA
ATOM     24  C   UNL     1       1.270   3.574  20.891  0.00  0.00    +0.000 C 
ATOM     25  C   UNL     1       3.410   2.566  20.388  0.00  0.00    +0.000 C 
ATOM     26  C   UNL     1       4.063   3.647  19.501  0.00  0.00    +0.000 C 
ENDBRANCH  19  20
ENDBRANCH  18  19
ENDBRANCH   1  18
TORSDOF 7
ENDMDL
MODEL 3
REMARK VINA RESULT:      -7.4      1.654      2.431
REMARK  Name = 
REMARK  10 active torsions:
REMARK  status: ('A' for Active; 'I' for Inactive)
REMARK    1  A    between atoms: C_1  and  C_2
REMARK    2  A    between atoms: C_2  and  C_3
REMARK    3  A    between atoms: C_2  and  N_4
REMARK    4  A    between atoms: C_5  and  C_7
REMARK    5  A    between atoms: C_7  and  C_8
REMARK    6  A    between atoms: C_7  and  N_17
REMARK    7  A    between atoms: C_8  and  C_9
REMARK    8  A    between atoms: C_9  and  N_10
REMARK    9  A    between atoms: N_13  and  C_14
REMARK   10  A    between atoms: C_18  and  C_20
REMARK                            x       y       z     vdW  Elec       q    Type
REMARK                         _______ _______ _______ _____ _____    ______ ____
ROOT
ATOM      1  C   UNL     1       6.240   6.116  17.087  0.00  0.00    +0.000 C 
ENDROOT
BRANCH   1   3
ATOM      2  N   UNL     1       6.653   5.373  14.750  0.00  0.00    +0.000 N 
ATOM      3  C   UNL     1       7.019   5.234  16.072  0.00  0.00    +0.000 C 
ATOM      4  O   UNL     1       7.908   4.459  16.432  0.00  0.00    +0.000 OA
ATOM      5  H   UNL     1       6.113   6.191  14.494  0.00  0.00    +0.000 HD
BRANCH   2   7
ATOM      6  C   UNL     1       6.225   3.736  12.979  0.00  0.00    +0.000 C 
ATOM      7  C   UNL     1       7.272   4.603  13.678  0.00  0.00    +0.000 C 
ATOM      8  C   UNL     1       7.950   5.511  12.649  0.00  0.00    +0.000 C 
ENDBRANCH   2   7
ENDBRANCH   1   3
BRANCH   1   9
ATOM      9  N   UNL     1       6.857   7.428  17.314  0.00  0.00    +0.000 N 
ATOM     10  C   UNL     1       7.866   7.608  18.246  0.00  0.00    +0.000 C 
ATOM     11  O   UNL     1       8.249   6.704  18.966  0.00  0.00    +0.000 OA
ATOM     12  H   UNL     1       6.494   8.248  16.846  0.00  0.00    +0.000 HD
BRANCH  10  13
ATOM     13  C   UNL     1       8.414   8.954  18.276  0.00  0.00    +0.000 A 
ATOM     14  C   UNL     1       8.230  10.048  17.443  0.00  0.00    +0.000 A 
ATOM     15  C   UNL     1       8.986  11.111  17.997  0.00  0.00    +0.000 A 
ATOM     16  C   UNL     1       9.591  10.605  19.122  0.00  0.00    +0.000 A 
ATOM     17  O   UNL     1       9.247   9.305  19.305  0.00  0.00    +0.000 OA
ENDBRANCH  10  13
ENDBRANCH   1   9
BRANCH   1  18
ATOM     18  C   UNL     1       4.822   6.301  16.539  0.00  0.00    +0.000 C 
BRANCH  18  19
ATOM     19  C   UNL     1       3.741   6.203  17.632  0.00  0.00    +0.000 C 
BRANCH  19  20
ATOM     20  N   UNL     1       3.460   4.803  17.984  0.00  0.00    +0.000 NA
ATOM     21  C   UNL     1       2.027   4.480  17.820  0.00  0.00    +0.000 C 
ATOM     22  C   UNL     1       1.726   3.001  18.179  0.00  0.00    +0.000 C 
ATOM     23  N   UNL     1       2.191   2.565  19.514  0.00  0.00    +0.000 NA
ATOM     24  C   UNL     1       1.341   3.089  20.580  0.00  0.00    +0.000 C 
ATOM     25  C   UNL     1       3.590   2.988  19.696  0.00  0.00    +0.000 C 
ATOM     26  C   UNL     1       3.861   4.471  19.366  0.00  0.00    +0.000 C 
ENDBRANCH  19  20
ENDBRANCH  18  19
ENDBRANCH   1  18
TORSDOF 7
ENDMDL
MODEL 4
REMARK VINA RESULT:      -7.2      0.866      1.229
REMARK  Name = 
REMARK  10 active torsions:
REMARK  status: ('A' for Active; 'I' for Inactive)
REMARK    1  A    between atoms: C_1  and  C_2
REMARK    2  A    between atoms: C_2  and  C_3
REMARK    3  A    between atoms: C_2  and  N_4
REMARK    4  A    between atoms: C_5  and  C_7
REMARK    5  A    between atoms: C_7  and  C_8
REMARK    6  A    between atoms: C_7  and  N_17
REMARK    7  A    between atoms: C_8  and  C_9
REMARK    8  A    between atoms: C_9  and  N_10
REMARK    9  A    between atoms: N_13  and  C_14
REMARK   10  A    between atoms: C_18  and  C_20
REMARK                            x       y       z     vdW  Elec       q    Type
REMARK                         _______ _______ _______ _____ _____    ______ ____
ROOT
ATOM      1  C   UNL     1       6.323   4.741  15.760  0.00  0.00    +0.000 C 
ENDROOT
BRANCH   1   3
ATOM      2  N   UNL     1       5.681   3.769  13.563  0.00  0.00    +0.000 N 
ATOM      3  C   UNL     1       6.535   4.624  14.225  0.00  0.00    +0.000 C 
ATOM      4  O   UNL     1       7.416   5.259  13.640  0.00  0.00    +0.000 OA
ATOM      5  H   UNL     1       4.835   3.483  14.043  0.00  0.00    +0.000 HD
BRANCH   2   7
ATOM      6  C   UNL     1       6.735   2.391  11.834  0.00  0.00    +0.000 C 
ATOM      7  C   UNL     1       5.761   3.532  12.127  0.00  0.00    +0.000 C 
ATOM      8  C   UNL     1       4.391   3.198  11.532  0.00  0.00    +0.000 C 
ENDBRANCH   2   7
ENDBRANCH   1   3
BRANCH   1   9
ATOM      9  N   UNL     1       6.784   6.018  16.317  0.00  0.00    +0.000 N 
ATOM     10  C   UNL     1       7.313   6.107  17.596  0.00  0.00    +0.000 C 
ATOM     11  O   UNL     1       7.365   5.147  18.341  0.00  0.00    +0.000 OA
ATOM     12  H   UNL     1       6.645   6.877  15.803  0.00  0.00    +0.000 HD
BRANCH  10  13
ATOM     13  C   UNL     1       7.794   7.433  17.948  0.00  0.00    +0.000 A 
ATOM     14  C   UNL     1       8.628   7.877  18.962  0.00  0.00    +0.000 A 
ATOM     15  C   UNL     1       8.781   9.274  18.779  0.00  0.00    +0.000 A 
ATOM     16  C   UNL     1       8.029   9.600  17.678  0.00  0.00    +0.000 A 
ATOM     17  O   UNL     1       7.433   8.496  17.162  0.00  0.00    +0.000 OA
ENDBRANCH  10  13
ENDBRANCH   1   9
BRANCH   1  18
ATOM     18  C   UNL     1       4.825   4.573  16.030  0.00  0.00    +0.000 C 
BRANCH  18  19
ATOM     19  C   UNL     1       4.514   3.379  16.952  0.00  0.00    +0.000 C 
BRANCH  19  20
ATOM     20  N   UNL     1       4.145   3.828  18.303  0.00  0.00    +0.000 NA
ATOM     21  C   UNL     1       3.583   2.722  19.108  0.00  0.00    +0.000 C 
ATOM     22  C   UNL     1       3.202   3.187  20.538  0.00  0.00    +0.000 C 
ATOM     23  N   UNL     1       2.309   4.364  20.606  0.00  0.00    +0.000 NA
ATOM     24  C   UNL     1       0.933   4.020  20.256  0.00  0.00    +0.000 C 
ATOM     25  C   UNL     1       2.834   5.416  19.718  0.00  0.00    +0.000 C 
ATOM     26  C   UNL     1       3.174   4.940  18.289  0.00  0.00    +0.000 C 
ENDBRANCH  19  20
ENDBRANCH  18  19
ENDBRANCH   1  18
TORSDOF 7
ENDMDL
MODEL 5
REMARK VINA RESULT:      -7.2      2.976      5.910
REMARK  Name = 
REMARK  10 active torsions:
REMARK  status: ('A' for Active; 'I' for Inactive)
REMARK    1  A    between atoms: C_1  and  C_2
REMARK    2  A    between atoms: C_2  and  C_3
REMARK    3  A    between atoms: C_2  and  N_4
REMARK    4  A    between atoms: C_5  and  C_7
REMARK    5  A    between atoms: C_7  and  C_8
REMARK    6  A    between atoms: C_7  and  N_17
REMARK    7  A    between atoms: C_8  and  C_9
REMARK    8  A    between atoms: C_9  and  N_10
REMARK    9  A    between atoms: N_13  and  C_14
REMARK   10  A    between atoms: C_18  and  C_20
REMARK                            x       y       z     vdW  Elec       q    Type
REMARK                         _______ _______ _______ _____ _____    ______ ____
ROOT
ATOM      1  C   UNL     1       4.958   4.722  19.104  0.00  0.00    +0.000 C 
ENDROOT
BRANCH   1   3
ATOM      2  N   UNL     1       2.812   3.544  19.544  0.00  0.00    +0.000 N 
ATOM      3  C   UNL     1       4.187   3.454  19.565  0.00  0.00    +0.000 C 
ATOM      4  O   UNL     1       4.775   2.432  19.926  0.00  0.00    +0.000 OA
ATOM      5  H   UNL     1       2.397   4.296  19.006  0.00  0.00    +0.000 HD
BRANCH   2   7
ATOM      6  C   UNL     1       1.372   2.735  21.352  0.00  0.00    +0.000 C 
ATOM      7  C   UNL     1       1.945   2.451  19.964  0.00  0.00    +0.000 C 
ATOM      8  C   UNL     1       0.799   2.226  18.976  0.00  0.00    +0.000 C 
ENDBRANCH   2   7
ENDBRANCH   1   3
BRANCH   1   9
ATOM      9  N   UNL     1       5.273   4.725  17.670  0.00  0.00    +0.000 N 
ATOM     10  C   UNL     1       6.570   4.563  17.208  0.00  0.00    +0.000 C 
ATOM     11  O   UNL     1       7.518   4.473  17.966  0.00  0.00    +0.000 OA
ATOM     12  H   UNL     1       4.552   4.930  16.992  0.00  0.00    +0.000 HD
BRANCH  10  13
ATOM     13  C   UNL     1       6.681   4.509  15.760  0.00  0.00    +0.000 A 
ATOM     14  C   UNL     1       5.978   3.794  14.803  0.00  0.00    +0.000 A 
ATOM     15  C   UNL     1       6.498   4.184  13.543  0.00  0.00    +0.000 A 
ATOM     16  C   UNL     1       7.487   5.100  13.804  0.00  0.00    +0.000 A 
ATOM     17  O   UNL     1       7.603   5.310  15.139  0.00  0.00    +0.000 OA
ENDBRANCH  10  13
ENDBRANCH   1   9
BRANCH   1  18
ATOM     18  C   UNL     1       4.086   5.935  19.442  0.00  0.00    +0.000 C 
BRANCH  18  19
ATOM     19  C   UNL     1       3.560   6.662  18.189  0.00  0.00    +0.000 C 
BRANCH  19  20
ATOM     20  N   UNL     1       2.319   7.396  18.477  0.00  0.00    +0.000 NA
ATOM     21  C   UNL     1       2.254   8.668  17.727  0.00  0.00    +0.000 C 
ATOM     22  C   UNL     1       0.941   9.442  18.018  0.00  0.00    +0.000 C 
ATOM     23  N   UNL     1       0.652   9.685  19.447  0.00  0.00    +0.000 NA
ATOM     24  C   UNL     1       1.500  10.740  19.998  0.00  0.00    +0.000 C 
ATOM     25  C   UNL     1       0.823   8.426  20.193  0.00  0.00    +0.000 C 
ATOM     26  C   UNL     1       2.151   7.689  19.915  0.00  0.00    +0.000 C 
ENDBRANCH  19  20
ENDBRANCH  18  19
ENDBRANCH   1  18
TORSDOF 7
ENDMDL
MODEL 6
REMARK VINA RESULT:      -7.1      1.578      2.406
REMARK  Name = 
REMARK  10 active torsions:
REMARK  status: ('A' for Active; 'I' for Inactive)
REMARK    1  A    between atoms: C_1  and  C_2
REMARK    2  A    between atoms: C_2  and  C_3
REMARK    3  A    between atoms: C_2  and  N_4
REMARK    4  A    between atoms: C_5  and  C_7
REMARK    5  A    between atoms: C_7  and  C_8
REMARK    6  A    between atoms: C_7  and  N_17
REMARK    7  A    between atoms: C_8  and  C_9
REMARK    8  A    between atoms: C_9  and  N_10
REMARK    9  A    between atoms: N_13  and  C_14
REMARK   10  A    between atoms: C_18  and  C_20
REMARK                            x       y       z     vdW  Elec       q    Type
REMARK                         _______ _______ _______ _____ _____    ______ ____
ROOT
ATOM      1  C   UNL     1       6.204   6.139  17.051  0.00  0.00    +0.000 C 
ENDROOT
BRANCH   1   3
ATOM      2  N   UNL     1       6.631   5.397  14.717  0.00  0.00    +0.000 N 
ATOM      3  C   UNL     1       7.010   5.282  16.037  0.00  0.00    +0.000 C 
ATOM      4  O   UNL     1       7.931   4.544  16.396  0.00  0.00    +0.000 OA
ATOM      5  H   UNL     1       6.058   6.192  14.459  0.00  0.00    +0.000 HD
BRANCH   2   7
ATOM      6  C   UNL     1       6.250   3.758  12.938  0.00  0.00    +0.000 C 
ATOM      7  C   UNL     1       7.273   4.646  13.645  0.00  0.00    +0.000 C 
ATOM      8  C   UNL     1       7.936   5.571  12.624  0.00  0.00    +0.000 C 
ENDBRANCH   2   7
ENDBRANCH   1   3
BRANCH   1   9
ATOM      9  N   UNL     1       6.794   7.461  17.297  0.00  0.00    +0.000 N 
ATOM     10  C   UNL     1       7.814   7.645  18.216  0.00  0.00    +0.000 C 
ATOM     11  O   UNL     1       8.230   6.735  18.910  0.00  0.00    +0.000 OA
ATOM     12  H   UNL     1       6.404   8.281  16.854  0.00  0.00    +0.000 HD
BRANCH  10  13
ATOM     13  C   UNL     1       8.331   9.003  18.266  0.00  0.00    +0.000 A 
ATOM     14  C   UNL     1       9.330   9.586  19.030  0.00  0.00    +0.000 A 
ATOM     15  C   UNL     1       9.426  10.936  18.609  0.00  0.00    +0.000 A 
ATOM     16  C   UNL     1       8.479  11.099  17.628  0.00  0.00    +0.000 A 
ATOM     17  O   UNL     1       7.816   9.936  17.406  0.00  0.00    +0.000 OA
ENDBRANCH  10  13
ENDBRANCH   1   9
BRANCH   1  18
ATOM     18  C   UNL     1       4.789   6.303  16.490  0.00  0.00    +0.000 C 
BRANCH  18  19
ATOM     19  C   UNL     1       3.701   6.220  17.577  0.00  0.00    +0.000 C 
BRANCH  19  20
ATOM     20  N   UNL     1       3.692   4.901  18.227  0.00  0.00    +0.000 NA
ATOM     21  C   UNL     1       3.342   3.828  17.272  0.00  0.00    +0.000 C 
ATOM     22  C   UNL     1       3.342   2.432  17.950  0.00  0.00    +0.000 C 
ATOM     23  N   UNL     1       2.506   2.317  19.165  0.00  0.00    +0.000 NA
ATOM     24  C   UNL     1       1.084   2.257  18.838  0.00  0.00    +0.000 C 
ATOM     25  C   UNL     1       2.797   3.453  20.056  0.00  0.00    +0.000 C 
ATOM     26  C   UNL     1       2.759   4.836  19.370  0.00  0.00    +0.000 C 
ENDBRANCH  19  20
ENDBRANCH  18  19
ENDBRANCH   1  18
TORSDOF 7
ENDMDL
MODEL 7
REMARK VINA RESULT:      -6.9      3.189      5.794
REMARK  Name = 
REMARK  10 active torsions:
REMARK  status: ('A' for Active; 'I' for Inactive)
REMARK    1  A    between atoms: C_1  and  C_2
REMARK    2  A    between atoms: C_2  and  C_3
REMARK    3  A    between atoms: C_2  and  N_4
REMARK    4  A    between atoms: C_5  and  C_7
REMARK    5  A    between atoms: C_7  and  C_8
REMARK    6  A    between atoms: C_7  and  N_17
REMARK    7  A    between atoms: C_8  and  C_9
REMARK    8  A    between atoms: C_9  and  N_10
REMARK    9  A    between atoms: N_13  and  C_14
REMARK   10  A    between atoms: C_18  and  C_20
REMARK                            x       y       z     vdW  Elec       q    Type
REMARK                         _______ _______ _______ _____ _____    ______ ____
ROOT
ATOM      1  C   UNL     1       4.988   5.836  17.707  0.00  0.00    +0.000 C 
ENDROOT
BRANCH   1   3
ATOM      2  N   UNL     1       3.669   3.841  18.387  0.00  0.00    +0.000 N 
ATOM      3  C   UNL     1       4.796   4.597  18.625  0.00  0.00    +0.000 C 
ATOM      4  O   UNL     1       5.606   4.312  19.511  0.00  0.00    +0.000 OA
ATOM      5  H   UNL     1       3.192   3.971  17.503  0.00  0.00    +0.000 HD
BRANCH   2   7
ATOM      6  C   UNL     1       1.882   2.735  19.646  0.00  0.00    +0.000 C 
ATOM      7  C   UNL     1       3.333   2.660  19.173  0.00  0.00    +0.000 C 
ATOM      8  C   UNL     1       3.542   1.371  18.374  0.00  0.00    +0.000 C 
ENDBRANCH   2   7
ENDBRANCH   1   3
BRANCH   1   9
ATOM      9  N   UNL     1       5.347   5.490  16.327  0.00  0.00    +0.000 N 
ATOM     10  C   UNL     1       6.659   5.238  15.955  0.00  0.00    +0.000 C 
ATOM     11  O   UNL     1       7.584   5.352  16.738  0.00  0.00    +0.000 OA
ATOM     12  H   UNL     1       4.646   5.510  15.599  0.00  0.00    +0.000 HD
BRANCH  10  13
ATOM     13  C   UNL     1       6.815   4.830  14.569  0.00  0.00    +0.000 A 
ATOM     14  C   UNL     1       6.154   3.884  13.802  0.00  0.00    +0.000 A 
ATOM     15  C   UNL     1       6.704   3.962  12.498  0.00  0.00    +0.000 A 
ATOM     16  C   UNL     1       7.670   4.937  12.549  0.00  0.00    +0.000 A 
ATOM     17  O   UNL     1       7.742   5.474  13.792  0.00  0.00    +0.000 OA
ENDBRANCH  10  13
ENDBRANCH   1   9
BRANCH   1  18
ATOM     18  C   UNL     1       3.673   6.620  17.716  0.00  0.00    +0.000 C 
BRANCH  18  19
ATOM     19  C   UNL     1       3.157   6.906  19.139  0.00  0.00    +0.000 C 
BRANCH  19  20
ATOM     20  N   UNL     1       1.948   7.743  19.112  0.00  0.00    +0.000 NA
ATOM     21  C   UNL     1       2.073   8.847  18.137  0.00  0.00    +0.000 C 
ATOM     22  C   UNL     1       0.796   9.727  18.096  0.00  0.00    +0.000 C 
ATOM     23  N   UNL     1       0.349  10.257  19.402  0.00  0.00    +0.000 NA
ATOM     24  C   UNL     1       1.198  11.355  19.859  0.00  0.00    +0.000 C 
ATOM     25  C   UNL     1       0.330   9.159  20.384  0.00  0.00    +0.000 C 
ATOM     26  C   UNL     1       1.623   8.318  20.433  0.00  0.00    +0.000 C 
ENDBRANCH  19  20
ENDBRANCH  18  19
ENDBRANCH   1  18
TORSDOF 7
ENDMDL
MODEL 8
REMARK VINA RESULT:      -6.8      3.367      6.122
REMARK  Name = 
REMARK  10 active torsions:
REMARK  status: ('A' for Active; 'I' for Inactive)
REMARK    1  A    between atoms: C_1  and  C_2
REMARK    2  A    between atoms: C_2  and  C_3
REMARK    3  A    between atoms: C_2  and  N_4
REMARK    4  A    between atoms: C_5  and  C_7
REMARK    5  A    between atoms: C_7  and  C_8
REMARK    6  A    between atoms: C_7  and  N_17
REMARK    7  A    between atoms: C_8  and  C_9
REMARK    8  A    between atoms: C_9  and  N_10
REMARK    9  A    between atoms: N_13  and  C_14
REMARK   10  A    between atoms: C_18  and  C_20
REMARK                            x       y       z     vdW  Elec       q    Type
REMARK                         _______ _______ _______ _____ _____    ______ ____
ROOT
ATOM      1  C   UNL     1       4.056   5.370  17.918  0.00  0.00    +0.000 C 
ENDROOT
BRANCH   1   3
ATOM      2  N   UNL     1       2.340   3.971  19.051  0.00  0.00    +0.000 N 
ATOM      3  C   UNL     1       3.645   4.042  18.613  0.00  0.00    +0.000 C 
ATOM      4  O   UNL     1       4.441   3.113  18.762  0.00  0.00    +0.000 OA
ATOM      5  H   UNL     1       1.680   4.645  18.678  0.00  0.00    +0.000 HD
BRANCH   2   7
ATOM      6  C   UNL     1       1.277   3.200  21.118  0.00  0.00    +0.000 C 
ATOM      7  C   UNL     1       1.803   2.804  19.739  0.00  0.00    +0.000 C 
ATOM      8  C   UNL     1       0.681   2.141  18.938  0.00  0.00    +0.000 C 
ENDBRANCH   2   7
ENDBRANCH   1   3
BRANCH   1   9
ATOM      9  N   UNL     1       4.674   5.173  16.602  0.00  0.00    +0.000 N 
ATOM     10  C   UNL     1       6.046   5.053  16.451  0.00  0.00    +0.000 C 
ATOM     11  O   UNL     1       6.811   5.166  17.391  0.00  0.00    +0.000 OA
ATOM     12  H   UNL     1       4.108   5.205  15.765  0.00  0.00    +0.000 HD
BRANCH  10  13
ATOM     13  C   UNL     1       6.472   4.779  15.089  0.00  0.00    +0.000 A 
ATOM     14  C   UNL     1       5.967   3.935  14.112  0.00  0.00    +0.000 A 
ATOM     15  C   UNL     1       6.768   4.125  12.958  0.00  0.00    +0.000 A 
ATOM     16  C   UNL     1       7.715   5.060  13.299  0.00  0.00    +0.000 A 
ATOM     17  O   UNL     1       7.542   5.469  14.581  0.00  0.00    +0.000 OA
ENDBRANCH  10  13
ENDBRANCH   1   9
BRANCH   1  18
ATOM     18  C   UNL     1       2.791   6.221  17.771  0.00  0.00    +0.000 C 
BRANCH  18  19
ATOM     19  C   UNL     1       3.018   7.699  18.140  0.00  0.00    +0.000 C 
BRANCH  19  20
ATOM     20  N   UNL     1       1.779   8.326  18.626  0.00  0.00    +0.000 NA
ATOM     21  C   UNL     1       1.611   9.689  18.080  0.00  0.00    +0.000 C 
ATOM     22  C   UNL     1       0.301  10.352  18.580  0.00  0.00    +0.000 C 
ATOM     23  N   UNL     1       0.120  10.372  20.048  0.00  0.00    +0.000 NA
ATOM     24  C   UNL     1       0.974  11.373  20.684  0.00  0.00    +0.000 C 
ATOM     25  C   UNL     1       0.393   9.027  20.583  0.00  0.00    +0.000 C 
ATOM     26  C   UNL     1       1.718   8.400  20.100  0.00  0.00    +0.000 C 
ENDBRANCH  19  20
ENDBRANCH  18  19
ENDBRANCH   1  18
TORSDOF 7
ENDMDL
MODEL 9
REMARK VINA RESULT:      -6.8      1.698      2.306
REMARK  Name = 
REMARK  10 active torsions:
REMARK  status: ('A' for Active; 'I' for Inactive)
REMARK    1  A    between atoms: C_1  and  C_2
REMARK    2  A    between atoms: C_2  and  C_3
REMARK    3  A    between atoms: C_2  and  N_4
REMARK    4  A    between atoms: C_5  and  C_7
REMARK    5  A    between atoms: C_7  and  C_8
REMARK    6  A    between atoms: C_7  and  N_17
REMARK    7  A    between atoms: C_8  and  C_9
REMARK    8  A    between atoms: C_9  and  N_10
REMARK    9  A    between atoms: N_13  and  C_14
REMARK   10  A    between atoms: C_18  and  C_20
REMARK                            x       y       z     vdW  Elec       q    Type
REMARK                         _______ _______ _______ _____ _____    ______ ____
ROOT
ATOM      1  C   UNL     1       6.220   6.007  17.204  0.00  0.00    +0.000 C 
ENDROOT
BRANCH   1   3
ATOM      2  N   UNL     1       6.613   5.326  14.845  0.00  0.00    +0.000 N 
ATOM      3  C   UNL     1       7.007   5.172  16.157  0.00  0.00    +0.000 C 
ATOM      4  O   UNL     1       7.927   4.418  16.484  0.00  0.00    +0.000 OA
ATOM      5  H   UNL     1       6.043   6.132  14.616  0.00  0.00    +0.000 HD
BRANCH   2   7
ATOM      6  C   UNL     1       6.188   3.777  12.996  0.00  0.00    +0.000 C 
ATOM      7  C   UNL     1       7.236   4.599  13.746  0.00  0.00    +0.000 C 
ATOM      8  C   UNL     1       7.937   5.544  12.768  0.00  0.00    +0.000 C 
ENDBRANCH   2   7
ENDBRANCH   1   3
BRANCH   1   9
ATOM      9  N   UNL     1       6.760   7.359  17.398  0.00  0.00    +0.000 N 
ATOM     10  C   UNL     1       7.825   7.603  18.251  0.00  0.00    +0.000 C 
ATOM     11  O   UNL     1       8.325   6.724  18.927  0.00  0.00    +0.000 OA
ATOM     12  H   UNL     1       6.305   8.153  16.970  0.00  0.00    +0.000 HD
BRANCH  10  13
ATOM     13  C   UNL     1       8.278   8.984  18.253  0.00  0.00    +0.000 A 
ATOM     14  C   UNL     1       9.281   9.629  18.961  0.00  0.00    +0.000 A 
ATOM     15  C   UNL     1       9.294  10.973  18.513  0.00  0.00    +0.000 A 
ATOM     16  C   UNL     1       8.299  11.072  17.571  0.00  0.00    +0.000 A 
ATOM     17  O   UNL     1       7.683   9.876  17.400  0.00  0.00    +0.000 OA
ENDBRANCH  10  13
ENDBRANCH   1   9
BRANCH   1  18
ATOM     18  C   UNL     1       4.770   6.096  16.722  0.00  0.00    +0.000 C 
BRANCH  18  19
ATOM     19  C   UNL     1       3.882   6.946  17.651  0.00  0.00    +0.000 C 
BRANCH  19  20
ATOM     20  N   UNL     1       2.798   6.144  18.238  0.00  0.00    +0.000 NA
ATOM     21  C   UNL     1       2.947   6.020  19.703  0.00  0.00    +0.000 C 
ATOM     22  C   UNL     1       1.800   5.184  20.330  0.00  0.00    +0.000 C 
ATOM     23  N   UNL     1       1.587   3.849  19.730  0.00  0.00    +0.000 NA
ATOM     24  C   UNL     1       2.621   2.902  20.141  0.00  0.00    +0.000 C 
ATOM     25  C   UNL     1       1.545   3.983  18.264  0.00  0.00    +0.000 C 
ATOM     26  C   UNL     1       2.714   4.789  17.658  0.00  0.00    +0.000 C 
ENDBRANCH  19  20
ENDBRANCH  18  19
ENDBRANCH   1  18
TORSDOF 7
ENDMDL
