MODEL 1
REMARK VINA RESULT:      -7.0      0.000      0.000
REMARK  Name = 
REMARK  7 active torsions:
REMARK  status: ('A' for Active; 'I' for Inactive)
REMARK    1  A    between atoms: C_1  and  C_2
REMARK    2  A    between atoms: C_2  and  C_3
REMARK    3  A    between atoms: C_2  and  C_8
REMARK    4  A    between atoms: C_3  and  C_4
REMARK    5  A    between atoms: N_6  and  O_7
REMARK    6  A    between atoms: C_14  and  C_15
REMARK    7  A    between atoms: C_15  and  O_17
REMARK                            x       y       z     vdW  Elec       q    Type
REMARK                         _______ _______ _______ _____ _____    ______ ____
ROOT
ATOM      1  C   UNL     1       4.024   4.336  18.361  0.00  0.00    +0.000 C 
ATOM      2  O   UNL     1       4.392   3.363  17.686  0.00  0.00    +0.000 OA
ATOM      3  N   UNL     1       3.027   4.143  19.288  0.00  0.00    +0.000 N 
ATOM      4  C   UNL     1       2.481   5.056  20.275  0.00  0.00    +0.000 C 
ATOM      5  C   UNL     1       2.292   4.193  21.507  0.00  0.00    +0.000 C 
ATOM      6  C   UNL     1       1.895   2.836  20.950  0.00  0.00    +0.000 C 
ATOM      7  C   UNL     1       2.533   2.773  19.552  0.00  0.00    +0.000 C 
ENDROOT
BRANCH   1   9
ATOM      8  C   UNL     1       4.007   6.853  17.515  0.00  0.00    +0.000 C 
ATOM      9  C   UNL     1       4.745   5.690  18.180  0.00  0.00    +0.000 C 
BRANCH   9  10
ATOM     10  C   UNL     1       6.063   5.434  17.407  0.00  0.00    +0.000 C 
BRANCH  10  11
ATOM     11  C   UNL     1       7.211   5.051  18.325  0.00  0.00    +0.000 C 
ATOM     12  O   UNL     1       8.169   4.358  17.983  0.00  0.00    +0.000 OA
ATOM     13  N   UNL     1       7.096   5.562  19.593  0.00  0.00    +0.000 N 
ATOM     14  H   UNL     1       6.434   6.279  19.867  0.00  0.00    +0.000 HD
BRANCH  13  15
ATOM     15  O   UNL     1       8.173   5.316  20.472  0.00  0.00    +0.000 OA
ATOM     16  H   UNL     1       8.528   6.218  20.633  0.00  0.00    +0.000 HD
ENDBRANCH  13  15
ENDBRANCH  10  11
ENDBRANCH   9  10
ENDBRANCH   1   9
BRANCH   7  17
ATOM     17  C   UNL     1       1.485   2.261  18.549  0.00  0.00    +0.000 C 
ATOM     18  O   UNL     1       0.279   2.315  18.755  0.00  0.00    +0.000 OA
BRANCH  17  19
ATOM     19  O   UNL     1       1.987   1.783  17.389  0.00  0.00    +0.000 OA
ATOM     20  H   UNL     1       2.958   1.657  17.432  0.00  0.00    +0.000 HD
ENDBRANCH  17  19
ENDBRANCH   7  17
TORSDOF 6
ENDMDL
MODEL 2
REMARK VINA RESULT:      -6.9      1.211      1.378
REMARK  Name = 
REMARK  7 active torsions:
REMARK  status: ('A' for Active; 'I' for Inactive)
REMARK    1  A    between atoms: C_1  and  C_2
REMARK    2  A    between atoms: C_2  and  C_3
REMARK    3  A    between atoms: C_2  and  C_8
REMARK    4  A    between atoms: C_3  and  C_4
REMARK    5  A    between atoms: N_6  and  O_7
REMARK    6  A    between atoms: C_14  and  C_15
REMARK    7  A    between atoms: C_15  and  O_17
REMARK                            x       y       z     vdW  Elec       q    Type
REMARK                         _______ _______ _______ _____ _____    ______ ____
ROOT
ATOM      1  C   UNL     1       3.778   4.545  18.077  0.00  0.00    +0.000 C 
ATOM      2  O   UNL     1       4.197   3.539  17.482  0.00  0.00    +0.000 OA
ATOM      3  N   UNL     1       2.833   4.370  19.060  0.00  0.00    +0.000 N 
ATOM      4  C   UNL     1       2.253   5.332  19.979  0.00  0.00    +0.000 C 
ATOM      5  C   UNL     1       2.176   4.583  21.294  0.00  0.00    +0.000 C 
ATOM      6  C   UNL     1       1.866   3.152  20.885  0.00  0.00    +0.000 C 
ATOM      7  C   UNL     1       2.457   3.000  19.474  0.00  0.00    +0.000 C 
ENDROOT
BRANCH   1   9
ATOM      8  C   UNL     1       3.467   7.140  17.614  0.00  0.00    +0.000 C 
ATOM      9  C   UNL     1       4.386   5.924  17.738  0.00  0.00    +0.000 C 
BRANCH   9  10
ATOM     10  C   UNL     1       5.199   5.783  16.427  0.00  0.00    +0.000 C 
BRANCH  10  11
ATOM     11  C   UNL     1       6.683   5.577  16.682  0.00  0.00    +0.000 C 
ATOM     12  O   UNL     1       7.537   6.451  16.539  0.00  0.00    +0.000 OA
ATOM     13  N   UNL     1       6.998   4.310  17.105  0.00  0.00    +0.000 N 
ATOM     14  H   UNL     1       6.321   3.620  17.411  0.00  0.00    +0.000 HD
BRANCH  13  15
ATOM     15  O   UNL     1       8.348   4.076  17.443  0.00  0.00    +0.000 OA
ATOM     16  H   UNL     1       8.677   4.980  17.645  0.00  0.00    +0.000 HD
ENDBRANCH  13  15
ENDBRANCH  10  11
ENDBRANCH   9  10
ENDBRANCH   1   9
BRANCH   7  17
ATOM     17  C   UNL     1       1.417   2.316  18.570  0.00  0.00    +0.000 C 
ATOM     18  O   UNL     1       0.214   2.335  18.801  0.00  0.00    +0.000 OA
BRANCH  17  19
ATOM     19  O   UNL     1       1.919   1.723  17.464  0.00  0.00    +0.000 OA
ATOM     20  H   UNL     1       2.335   0.859  17.667  0.00  0.00    +0.000 HD
ENDBRANCH  17  19
ENDBRANCH   7  17
TORSDOF 6
ENDMDL
MODEL 3
REMARK VINA RESULT:      -6.9      1.858      5.759
REMARK  Name = 
REMARK  7 active torsions:
REMARK  status: ('A' for Active; 'I' for Inactive)
REMARK    1  A    between atoms: C_1  and  C_2
REMARK    2  A    between atoms: C_2  and  C_3
REMARK    3  A    between atoms: C_2  and  C_8
REMARK    4  A    between atoms: C_3  and  C_4
REMARK    5  A    between atoms: N_6  and  O_7
REMARK    6  A    between atoms: C_14  and  C_15
REMARK    7  A    between atoms: C_15  and  O_17
REMARK                            x       y       z     vdW  Elec       q    Type
REMARK                         _______ _______ _______ _____ _____    ______ ____
ROOT
ATOM      1  C   UNL     1       4.420   5.635  18.584  0.00  0.00    +0.000 C 
ATOM      2  O   UNL     1       4.572   5.264  19.758  0.00  0.00    +0.000 OA
ATOM      3  N   UNL     1       5.506   5.583  17.743  0.00  0.00    +0.000 N 
ATOM      4  C   UNL     1       5.596   5.845  16.318  0.00  0.00    +0.000 C 
ATOM      5  C   UNL     1       6.525   4.763  15.805  0.00  0.00    +0.000 C 
ATOM      6  C   UNL     1       7.521   4.566  16.935  0.00  0.00    +0.000 C 
ATOM      7  C   UNL     1       6.763   4.961  18.213  0.00  0.00    +0.000 C 
ENDROOT
BRANCH   1   9
ATOM      8  C   UNL     1       2.628   7.544  18.143  0.00  0.00    +0.000 C 
ATOM      9  C   UNL     1       3.014   6.064  18.109  0.00  0.00    +0.000 C 
BRANCH   9  10
ATOM     10  C   UNL     1       1.966   5.261  18.918  0.00  0.00    +0.000 C 
BRANCH  10  11
ATOM     11  C   UNL     1       1.699   3.889  18.323  0.00  0.00    +0.000 C 
ATOM     12  O   UNL     1       1.528   3.676  17.123  0.00  0.00    +0.000 OA
ATOM     13  N   UNL     1       1.676   2.880  19.254  0.00  0.00    +0.000 N 
ATOM     14  H   UNL     1       1.991   2.975  20.213  0.00  0.00    +0.000 HD
BRANCH  13  15
ATOM     15  O   UNL     1       1.519   1.568  18.758  0.00  0.00    +0.000 OA
ATOM     16  H   UNL     1       1.277   1.722  17.819  0.00  0.00    +0.000 HD
ENDBRANCH  13  15
ENDBRANCH  10  11
ENDBRANCH   9  10
ENDBRANCH   1   9
BRANCH   7  17
ATOM     17  C   UNL     1       7.660   5.880  19.060  0.00  0.00    +0.000 C 
ATOM     18  O   UNL     1       8.171   6.905  18.623  0.00  0.00    +0.000 OA
BRANCH  17  19
ATOM     19  O   UNL     1       7.813   5.504  20.349  0.00  0.00    +0.000 OA
ATOM     20  H   UNL     1       8.350   4.689  20.433  0.00  0.00    +0.000 HD
ENDBRANCH  17  19
ENDBRANCH   7  17
TORSDOF 6
ENDMDL
MODEL 4
REMARK VINA RESULT:      -6.8      2.803      3.524
REMARK  Name = 
REMARK  7 active torsions:
REMARK  status: ('A' for Active; 'I' for Inactive)
REMARK    1  A    between atoms: C_1  and  C_2
REMARK    2  A    between atoms: C_2  and  C_3
REMARK    3  A    between atoms: C_2  and  C_8
REMARK    4  A    between atoms: C_3  and  C_4
REMARK    5  A    between atoms: N_6  and  O_7
REMARK    6  A    between atoms: C_14  and  C_15
REMARK    7  A    between atoms: C_15  and  O_17
REMARK                            x       y       z     vdW  Elec       q    Type
REMARK                         _______ _______ _______ _____ _____    ______ ____
ROOT
ATOM      1  C   UNL     1       5.515   4.546  17.786  0.00  0.00    +0.000 C 
ATOM      2  O   UNL     1       6.457   4.382  18.577  0.00  0.00    +0.000 OA
ATOM      3  N   UNL     1       4.270   4.099  18.159  0.00  0.00    +0.000 N 
ATOM      4  C   UNL     1       2.987   4.250  17.497  0.00  0.00    +0.000 C 
ATOM      5  C   UNL     1       2.022   4.537  18.629  0.00  0.00    +0.000 C 
ATOM      6  C   UNL     1       2.553   3.706  19.786  0.00  0.00    +0.000 C 
ATOM      7  C   UNL     1       4.063   3.577  19.528  0.00  0.00    +0.000 C 
ENDROOT
BRANCH   1   9
ATOM      8  C   UNL     1       4.957   6.560  16.148  0.00  0.00    +0.000 C 
ATOM      9  C   UNL     1       5.770   5.303  16.463  0.00  0.00    +0.000 C 
BRANCH   9  10
ATOM     10  C   UNL     1       5.603   4.300  15.295  0.00  0.00    +0.000 C 
BRANCH  10  11
ATOM     11  C   UNL     1       6.609   4.532  14.181  0.00  0.00    +0.000 C 
ATOM     12  O   UNL     1       6.558   3.989  13.078  0.00  0.00    +0.000 OA
ATOM     13  N   UNL     1       7.597   5.427  14.509  0.00  0.00    +0.000 N 
ATOM     14  H   UNL     1       7.579   6.031  15.322  0.00  0.00    +0.000 HD
BRANCH  13  15
ATOM     15  O   UNL     1       8.516   5.754  13.488  0.00  0.00    +0.000 OA
ATOM     16  H   UNL     1       7.932   6.095  12.776  0.00  0.00    +0.000 HD
ENDBRANCH  13  15
ENDBRANCH  10  11
ENDBRANCH   9  10
ENDBRANCH   1   9
BRANCH   7  17
ATOM     17  C   UNL     1       4.478   2.109  19.727  0.00  0.00    +0.000 C 
ATOM     18  O   UNL     1       5.091   1.714  20.712  0.00  0.00    +0.000 OA
BRANCH  17  19
ATOM     19  O   UNL     1       4.078   1.262  18.752  0.00  0.00    +0.000 OA
ATOM     20  H   UNL     1       4.232   1.632  17.858  0.00  0.00    +0.000 HD
ENDBRANCH  17  19
ENDBRANCH   7  17
TORSDOF 6
ENDMDL
MODEL 5
REMARK VINA RESULT:      -6.8      1.985      2.508
REMARK  Name = 
REMARK  7 active torsions:
REMARK  status: ('A' for Active; 'I' for Inactive)
REMARK    1  A    between atoms: C_1  and  C_2
REMARK    2  A    between atoms: C_2  and  C_3
REMARK    3  A    between atoms: C_2  and  C_8
REMARK    4  A    between atoms: C_3  and  C_4
REMARK    5  A    between atoms: N_6  and  O_7
REMARK    6  A    between atoms: C_14  and  C_15
REMARK    7  A    between atoms: C_15  and  O_17
REMARK                            x       y       z     vdW  Elec       q    Type
REMARK                         _______ _______ _______ _____ _____    ______ ____
ROOT
ATOM      1  C   UNL     1       4.383   5.186  18.755  0.00  0.00    +0.000 C 
ATOM      2  O   UNL     1       5.139   5.012  19.722  0.00  0.00    +0.000 OA
ATOM      3  N   UNL     1       3.385   4.265  18.539  0.00  0.00    +0.000 N 
ATOM      4  C   UNL     1       2.305   4.269  17.569  0.00  0.00    +0.000 C 
ATOM      5  C   UNL     1       1.111   3.755  18.348  0.00  0.00    +0.000 C 
ATOM      6  C   UNL     1       1.705   2.734  19.303  0.00  0.00    +0.000 C 
ATOM      7  C   UNL     1       3.154   3.194  19.533  0.00  0.00    +0.000 C 
ENDROOT
BRANCH   1   9
ATOM      8  C   UNL     1       3.345   7.362  17.643  0.00  0.00    +0.000 C 
ATOM      9  C   UNL     1       4.551   6.454  17.889  0.00  0.00    +0.000 C 
BRANCH   9  10
ATOM     10  C   UNL     1       5.136   6.028  16.520  0.00  0.00    +0.000 C 
BRANCH  10  11
ATOM     11  C   UNL     1       6.612   5.678  16.601  0.00  0.00    +0.000 C 
ATOM     12  O   UNL     1       7.524   6.446  16.297  0.00  0.00    +0.000 OA
ATOM     13  N   UNL     1       6.852   4.407  17.063  0.00  0.00    +0.000 N 
ATOM     14  H   UNL     1       6.155   3.811  17.495  0.00  0.00    +0.000 HD
BRANCH  13  15
ATOM     15  O   UNL     1       8.205   4.048  17.245  0.00  0.00    +0.000 OA
ATOM     16  H   UNL     1       8.330   4.171  18.212  0.00  0.00    +0.000 HD
ENDBRANCH  13  15
ENDBRANCH  10  11
ENDBRANCH   9  10
ENDBRANCH   1   9
BRANCH   7  17
ATOM     17  C   UNL     1       4.089   1.979  19.401  0.00  0.00    +0.000 C 
ATOM     18  O   UNL     1       3.887   1.062  18.614  0.00  0.00    +0.000 OA
BRANCH  17  19
ATOM     19  O   UNL     1       5.187   2.012  20.188  0.00  0.00    +0.000 OA
ATOM     20  H   UNL     1       5.195   2.795  20.775  0.00  0.00    +0.000 HD
ENDBRANCH  17  19
ENDBRANCH   7  17
TORSDOF 6
ENDMDL
MODEL 6
REMARK VINA RESULT:      -6.8      2.278      5.559
REMARK  Name = 
REMARK  7 active torsions:
REMARK  status: ('A' for Active; 'I' for Inactive)
REMARK    1  A    between atoms: C_1  and  C_2
REMARK    2  A    between atoms: C_2  and  C_3
REMARK    3  A    between atoms: C_2  and  C_8
REMARK    4  A    between atoms: C_3  and  C_4
REMARK    5  A    between atoms: N_6  and  O_7
REMARK    6  A    between atoms: C_14  and  C_15
REMARK    7  A    between atoms: C_15  and  O_17
REMARK                            x       y       z     vdW  Elec       q    Type
REMARK                         _______ _______ _______ _____ _____    ______ ____
ROOT
ATOM      1  C   UNL     1       4.969   5.088  18.854  0.00  0.00    +0.000 C 
ATOM      2  O   UNL     1       5.682   5.264  19.854  0.00  0.00    +0.000 OA
ATOM      3  N   UNL     1       5.565   5.136  17.617  0.00  0.00    +0.000 N 
ATOM      4  C   UNL     1       5.011   4.864  16.302  0.00  0.00    +0.000 C 
ATOM      5  C   UNL     1       6.110   4.098  15.593  0.00  0.00    +0.000 C 
ATOM      6  C   UNL     1       7.392   4.719  16.120  0.00  0.00    +0.000 C 
ATOM      7  C   UNL     1       7.038   5.247  17.520  0.00  0.00    +0.000 C 
ENDROOT
BRANCH   1   9
ATOM      8  C   UNL     1       2.487   5.882  19.361  0.00  0.00    +0.000 C 
ATOM      9  C   UNL     1       3.473   4.756  19.049  0.00  0.00    +0.000 C 
BRANCH   9  10
ATOM     10  C   UNL     1       3.360   3.678  20.156  0.00  0.00    +0.000 C 
BRANCH  10  11
ATOM     11  C   UNL     1       4.122   2.409  19.813  0.00  0.00    +0.000 C 
ATOM     12  O   UNL     1       4.998   1.915  20.522  0.00  0.00    +0.000 OA
ATOM     13  N   UNL     1       3.735   1.839  18.625  0.00  0.00    +0.000 N 
ATOM     14  H   UNL     1       2.905   2.099  18.106  0.00  0.00    +0.000 HD
BRANCH  13  15
ATOM     15  O   UNL     1       4.343   0.610  18.290  0.00  0.00    +0.000 OA
ATOM     16  H   UNL     1       3.697  -0.048  18.629  0.00  0.00    +0.000 HD
ENDBRANCH  13  15
ENDBRANCH  10  11
ENDBRANCH   9  10
ENDBRANCH   1   9
BRANCH   7  17
ATOM     17  C   UNL     1       7.587   6.677  17.667  0.00  0.00    +0.000 C 
ATOM     18  O   UNL     1       7.445   7.540  16.809  0.00  0.00    +0.000 OA
BRANCH  17  19
ATOM     19  O   UNL     1       8.206   6.936  18.841  0.00  0.00    +0.000 OA
ATOM     20  H   UNL     1       8.608   7.829  18.854  0.00  0.00    +0.000 HD
ENDBRANCH  17  19
ENDBRANCH   7  17
TORSDOF 6
ENDMDL
MODEL 7
REMARK VINA RESULT:      -6.7      1.764      2.225
REMARK  Name = 
REMARK  7 active torsions:
REMARK  status: ('A' for Active; 'I' for Inactive)
REMARK    1  A    between atoms: C_1  and  C_2
REMARK    2  A    between atoms: C_2  and  C_3
REMARK    3  A    between atoms: C_2  and  C_8
REMARK    4  A    between atoms: C_3  and  C_4
REMARK    5  A    between atoms: N_6  and  O_7
REMARK    6  A    between atoms: C_14  and  C_15
REMARK    7  A    between atoms: C_15  and  O_17
REMARK                            x       y       z     vdW  Elec       q    Type
REMARK                         _______ _______ _______ _____ _____    ______ ____
ROOT
ATOM      1  C   UNL     1       4.618   4.359  18.908  0.00  0.00    +0.000 C 
ATOM      2  O   UNL     1       5.098   3.217  18.975  0.00  0.00    +0.000 OA
ATOM      3  N   UNL     1       3.305   4.532  19.277  0.00  0.00    +0.000 N 
ATOM      4  C   UNL     1       2.523   5.748  19.402  0.00  0.00    +0.000 C 
ATOM      5  C   UNL     1       1.708   5.532  20.662  0.00  0.00    +0.000 C 
ATOM      6  C   UNL     1       1.402   4.043  20.651  0.00  0.00    +0.000 C 
ATOM      7  C   UNL     1       2.559   3.400  19.871  0.00  0.00    +0.000 C 
ENDROOT
BRANCH   1   9
ATOM      8  C   UNL     1       5.028   6.540  17.451  0.00  0.00    +0.000 C 
ATOM      9  C   UNL     1       5.529   5.533  18.488  0.00  0.00    +0.000 C 
BRANCH   9  10
ATOM     10  C   UNL     1       6.875   4.946  17.996  0.00  0.00    +0.000 C 
BRANCH  10  11
ATOM     11  C   UNL     1       6.927   4.793  16.485  0.00  0.00    +0.000 C 
ATOM     12  O   UNL     1       7.524   5.561  15.732  0.00  0.00    +0.000 OA
ATOM     13  N   UNL     1       6.245   3.697  16.019  0.00  0.00    +0.000 N 
ATOM     14  H   UNL     1       5.899   2.943  16.602  0.00  0.00    +0.000 HD
BRANCH  13  15
ATOM     15  O   UNL     1       6.325   3.448  14.632  0.00  0.00    +0.000 OA
ATOM     16  H   UNL     1       6.880   2.638  14.592  0.00  0.00    +0.000 HD
ENDBRANCH  13  15
ENDBRANCH  10  11
ENDBRANCH   9  10
ENDBRANCH   1   9
BRANCH   7  17
ATOM     17  C   UNL     1       1.979   2.405  18.851  0.00  0.00    +0.000 C 
ATOM     18  O   UNL     1       0.888   2.555  18.314  0.00  0.00    +0.000 OA
BRANCH  17  19
ATOM     19  O   UNL     1       2.783   1.361  18.546  0.00  0.00    +0.000 OA
ATOM     20  H   UNL     1       2.366   0.753  17.901  0.00  0.00    +0.000 HD
ENDBRANCH  17  19
ENDBRANCH   7  17
TORSDOF 6
ENDMDL
MODEL 8
REMARK VINA RESULT:      -6.7      2.002      5.866
REMARK  Name = 
REMARK  7 active torsions:
REMARK  status: ('A' for Active; 'I' for Inactive)
REMARK    1  A    between atoms: C_1  and  C_2
REMARK    2  A    between atoms: C_2  and  C_3
REMARK    3  A    between atoms: C_2  and  C_8
REMARK    4  A    between atoms: C_3  and  C_4
REMARK    5  A    between atoms: N_6  and  O_7
REMARK    6  A    between atoms: C_14  and  C_15
REMARK    7  A    between atoms: C_15  and  O_17
REMARK                            x       y       z     vdW  Elec       q    Type
REMARK                         _______ _______ _______ _____ _____    ______ ____
ROOT
ATOM      1  C   UNL     1       4.336   3.904  17.931  0.00  0.00    +0.000 C 
ATOM      2  O   UNL     1       4.663   3.531  19.068  0.00  0.00    +0.000 OA
ATOM      3  N   UNL     1       5.300   4.474  17.134  0.00  0.00    +0.000 N 
ATOM      4  C   UNL     1       5.235   4.896  15.747  0.00  0.00    +0.000 C 
ATOM      5  C   UNL     1       6.566   4.462  15.168  0.00  0.00    +0.000 C 
ATOM      6  C   UNL     1       7.546   4.654  16.314  0.00  0.00    +0.000 C 
ATOM      7  C   UNL     1       6.707   4.493  17.592  0.00  0.00    +0.000 C 
ENDROOT
BRANCH   1   9
ATOM      8  C   UNL     1       1.800   4.669  17.753  0.00  0.00    +0.000 C 
ATOM      9  C   UNL     1       2.894   3.646  17.443  0.00  0.00    +0.000 C 
BRANCH   9  10
ATOM     10  C   UNL     1       2.444   2.264  17.978  0.00  0.00    +0.000 C 
BRANCH  10  11
ATOM     11  C   UNL     1       1.368   2.375  19.044  0.00  0.00    +0.000 C 
ATOM     12  O   UNL     1       0.169   2.191  18.839  0.00  0.00    +0.000 OA
ATOM     13  N   UNL     1       1.856   2.693  20.287  0.00  0.00    +0.000 N 
ATOM     14  H   UNL     1       2.836   2.672  20.544  0.00  0.00    +0.000 HD
BRANCH  13  15
ATOM     15  O   UNL     1       0.918   2.727  21.342  0.00  0.00    +0.000 OA
ATOM     16  H   UNL     1       0.911   3.677  21.591  0.00  0.00    +0.000 HD
ENDBRANCH  13  15
ENDBRANCH  10  11
ENDBRANCH   9  10
ENDBRANCH   1   9
BRANCH   7  17
ATOM     17  C   UNL     1       7.054   5.636  18.562  0.00  0.00    +0.000 C 
ATOM     18  O   UNL     1       7.402   6.750  18.187  0.00  0.00    +0.000 OA
BRANCH  17  19
ATOM     19  O   UNL     1       6.904   5.342  19.872  0.00  0.00    +0.000 OA
ATOM     20  H   UNL     1       7.755   5.107  20.296  0.00  0.00    +0.000 HD
ENDBRANCH  17  19
ENDBRANCH   7  17
TORSDOF 6
ENDMDL
MODEL 9
REMARK VINA RESULT:      -6.7      1.768      5.548
REMARK  Name = 
REMARK  7 active torsions:
REMARK  status: ('A' for Active; 'I' for Inactive)
REMARK    1  A    between atoms: C_1  and  C_2
REMARK    2  A    between atoms: C_2  and  C_3
REMARK    3  A    between atoms: C_2  and  C_8
REMARK    4  A    between atoms: C_3  and  C_4
REMARK    5  A    between atoms: N_6  and  O_7
REMARK    6  A    between atoms: C_14  and  C_15
REMARK    7  A    between atoms: C_15  and  O_17
REMARK                            x       y       z     vdW  Elec       q    Type
REMARK                         _______ _______ _______ _____ _____    ______ ____
ROOT
ATOM      1  C   UNL     1       4.301   4.813  18.725  0.00  0.00    +0.000 C 
ATOM      2  O   UNL     1       4.782   4.191  19.684  0.00  0.00    +0.000 OA
ATOM      3  N   UNL     1       5.164   5.306  17.774  0.00  0.00    +0.000 N 
ATOM      4  C   UNL     1       4.884   5.965  16.512  0.00  0.00    +0.000 C 
ATOM      5  C   UNL     1       5.903   5.376  15.557  0.00  0.00    +0.000 C 
ATOM      6  C   UNL     1       7.137   5.166  16.419  0.00  0.00    +0.000 C 
ATOM      7  C   UNL     1       6.601   4.960  17.845  0.00  0.00    +0.000 C 
ENDROOT
BRANCH   1   9
ATOM      8  C   UNL     1       1.915   4.991  19.876  0.00  0.00    +0.000 C 
ATOM      9  C   UNL     1       2.766   4.940  18.606  0.00  0.00    +0.000 C 
BRANCH   9  10
ATOM     10  C   UNL     1       2.255   3.782  17.714  0.00  0.00    +0.000 C 
BRANCH  10  11
ATOM     11  C   UNL     1       2.553   2.415  18.307  0.00  0.00    +0.000 C 
ATOM     12  O   UNL     1       1.790   1.804  19.055  0.00  0.00    +0.000 OA
ATOM     13  N   UNL     1       3.766   1.901  17.922  0.00  0.00    +0.000 N 
ATOM     14  H   UNL     1       4.338   2.274  17.174  0.00  0.00    +0.000 HD
BRANCH  13  15
ATOM     15  O   UNL     1       4.067   0.596  18.368  0.00  0.00    +0.000 OA
ATOM     16  H   UNL     1       3.188   0.156  18.350  0.00  0.00    +0.000 HD
ENDBRANCH  13  15
ENDBRANCH  10  11
ENDBRANCH   9  10
ENDBRANCH   1   9
BRANCH   7  17
ATOM     17  C   UNL     1       7.424   5.825  18.816  0.00  0.00    +0.000 C 
ATOM     18  O   UNL     1       7.973   6.868  18.482  0.00  0.00    +0.000 OA
BRANCH  17  19
ATOM     19  O   UNL     1       7.465   5.377  20.090  0.00  0.00    +0.000 OA
ATOM     20  H   UNL     1       6.868   5.885  20.678  0.00  0.00    +0.000 HD
ENDBRANCH  17  19
ENDBRANCH   7  17
TORSDOF 6
ENDMDL
