MODEL 1
REMARK VINA RESULT:      -8.9      0.000      0.000
REMARK  Name = 
REMARK  6 active torsions:
REMARK  status: ('A' for Active; 'I' for Inactive)
REMARK    1  A    between atoms: C_2  and  C_17
REMARK    2  A    between atoms: N_3  and  C_4
REMARK    3  A    between atoms: C_4  and  C_5
REMARK    4  A    between atoms: C_4  and  C_11
REMARK    5  A    between atoms: C_20  and  C_21
REMARK    6  A    between atoms: C_25  and  O_26
REMARK                            x       y       z     vdW  Elec       q    Type
REMARK                         _______ _______ _______ _____ _____    ______ ____
ROOT
ATOM      1  O   UNL     1       1.988   8.488  17.829  0.00  0.00    +0.000 OA
ATOM      2  C   UNL     1       1.934   8.032  18.971  0.00  0.00    +0.000 C 
ATOM      3  N   UNL     1       2.417   6.777  19.263  0.00  0.00    +0.000 N 
ATOM      4  H   UNL     1       2.383   6.456  20.218  0.00  0.00    +0.000 HD
ENDROOT
BRANCH   2   5
ATOM      5  C   UNL     1       1.357   8.798  20.070  0.00  0.00    +0.000 A 
ATOM      6  C   UNL     1       1.475   8.475  21.407  0.00  0.00    +0.000 A 
ATOM      7  C   UNL     1       0.812   9.399  22.257  0.00  0.00    +0.000 A 
ATOM      8  C   UNL     1       0.198  10.426  21.564  0.00  0.00    +0.000 A 
ATOM      9  S   UNL     1       0.445  10.233  19.868  0.00  0.00    +0.000 S 
BRANCH   8  10
ATOM     10  C   UNL     1      -0.554  11.565  22.131  0.00  0.00    +0.000 A 
ATOM     11  C   UNL     1      -0.171  12.902  21.938  0.00  0.00    +0.000 A 
ATOM     12  C   UNL     1      -0.941  13.954  22.454  0.00  0.00    +0.000 A 
ATOM     13  C   UNL     1      -2.109  13.691  23.167  0.00  0.00    +0.000 A 
ATOM     14  C   UNL     1      -2.495  12.371  23.364  0.00  0.00    +0.000 A 
ATOM     15  C   UNL     1      -1.734  11.321  22.858  0.00  0.00    +0.000 A 
BRANCH  14  16
ATOM     16  O   UNL     1      -3.631  12.055  24.050  0.00  0.00    +0.000 OA
ATOM     17  H   UNL     1      -3.680  11.090  24.147  0.00  0.00    +0.000 HD
ENDBRANCH  14  16
ENDBRANCH   8  10
ENDBRANCH   2   5
BRANCH   3  18
ATOM     18  C   UNL     1       2.998   5.917  18.243  0.00  0.00    +0.000 C 
BRANCH  18  19
ATOM     19  C   UNL     1       4.517   6.034  18.244  0.00  0.00    +0.000 A 
ATOM     20  C   UNL     1       5.314   5.393  19.204  0.00  0.00    +0.000 A 
ATOM     21  C   UNL     1       6.704   5.537  19.188  0.00  0.00    +0.000 A 
ATOM     22  C   UNL     1       7.317   6.317  18.209  0.00  0.00    +0.000 A 
ATOM     23  C   UNL     1       6.542   6.951  17.242  0.00  0.00    +0.000 A 
ATOM     24  C   UNL     1       5.154   6.812  17.260  0.00  0.00    +0.000 A 
ENDBRANCH  18  19
BRANCH  18  25
ATOM     25  C   UNL     1       2.500   4.476  18.326  0.00  0.00    +0.000 A 
ATOM     26  C   UNL     1       1.495   4.157  19.261  0.00  0.00    +0.000 A 
ATOM     27  C   UNL     1       1.006   2.854  19.375  0.00  0.00    +0.000 A 
ATOM     28  C   UNL     1       1.507   1.850  18.554  0.00  0.00    +0.000 A 
ATOM     29  C   UNL     1       2.493   2.148  17.617  0.00  0.00    +0.000 A 
ATOM     30  C   UNL     1       2.984   3.452  17.499  0.00  0.00    +0.000 A 
ENDBRANCH  18  25
ENDBRANCH   3  18
TORSDOF 6
ENDMDL
MODEL 2
REMARK VINA RESULT:      -8.7      0.149      1.292
REMARK  Name = 
REMARK  6 active torsions:
REMARK  status: ('A' for Active; 'I' for Inactive)
REMARK    1  A    between atoms: C_2  and  C_17
REMARK    2  A    between atoms: N_3  and  C_4
REMARK    3  A    between atoms: C_4  and  C_5
REMARK    4  A    between atoms: C_4  and  C_11
REMARK    5  A    between atoms: C_20  and  C_21
REMARK    6  A    between atoms: C_25  and  O_26
REMARK                            x       y       z     vdW  Elec       q    Type
REMARK                         _______ _______ _______ _____ _____    ______ ____
ROOT
ATOM      1  O   UNL     1       1.992   8.486  17.778  0.00  0.00    +0.000 OA
ATOM      2  C   UNL     1       1.953   8.029  18.920  0.00  0.00    +0.000 C 
ATOM      3  N   UNL     1       2.462   6.785  19.211  0.00  0.00    +0.000 N 
ATOM      4  H   UNL     1       2.439   6.464  20.167  0.00  0.00    +0.000 HD
ENDROOT
BRANCH   2   5
ATOM      5  C   UNL     1       1.366   8.785  20.022  0.00  0.00    +0.000 A 
ATOM      6  C   UNL     1       1.439   8.428  21.354  0.00  0.00    +0.000 A 
ATOM      7  C   UNL     1       0.777   9.349  22.207  0.00  0.00    +0.000 A 
ATOM      8  C   UNL     1       0.207  10.407  21.522  0.00  0.00    +0.000 A 
ATOM      9  S   UNL     1       0.494  10.246  19.829  0.00  0.00    +0.000 S 
BRANCH   8  10
ATOM     10  C   UNL     1      -0.532  11.551  22.096  0.00  0.00    +0.000 A 
ATOM     11  C   UNL     1      -0.135  12.885  21.907  0.00  0.00    +0.000 A 
ATOM     12  C   UNL     1      -0.893  13.943  22.430  0.00  0.00    +0.000 A 
ATOM     13  C   UNL     1      -2.062  13.688  23.145  0.00  0.00    +0.000 A 
ATOM     14  C   UNL     1      -2.461  12.372  23.337  0.00  0.00    +0.000 A 
ATOM     15  C   UNL     1      -1.712  11.317  22.825  0.00  0.00    +0.000 A 
BRANCH  14  16
ATOM     16  O   UNL     1      -3.599  12.065  24.025  0.00  0.00    +0.000 OA
ATOM     17  H   UNL     1      -3.815  11.131  23.872  0.00  0.00    +0.000 HD
ENDBRANCH  14  16
ENDBRANCH   8  10
ENDBRANCH   2   5
BRANCH   3  18
ATOM     18  C   UNL     1       3.056   5.936  18.190  0.00  0.00    +0.000 C 
BRANCH  18  19
ATOM     19  C   UNL     1       4.574   6.072  18.193  0.00  0.00    +0.000 A 
ATOM     20  C   UNL     1       5.259   6.816  17.221  0.00  0.00    +0.000 A 
ATOM     21  C   UNL     1       6.654   6.903  17.243  0.00  0.00    +0.000 A 
ATOM     22  C   UNL     1       7.382   6.254  18.238  0.00  0.00    +0.000 A 
ATOM     23  C   UNL     1       6.718   5.520  19.216  0.00  0.00    +0.000 A 
ATOM     24  C   UNL     1       5.325   5.428  19.194  0.00  0.00    +0.000 A 
ENDBRANCH  18  19
BRANCH  18  25
ATOM     25  C   UNL     1       2.576   4.489  18.265  0.00  0.00    +0.000 A 
ATOM     26  C   UNL     1       3.272   3.503  17.538  0.00  0.00    +0.000 A 
ATOM     27  C   UNL     1       2.872   2.165  17.574  0.00  0.00    +0.000 A 
ATOM     28  C   UNL     1       1.774   1.789  18.341  0.00  0.00    +0.000 A 
ATOM     29  C   UNL     1       1.079   2.748  19.075  0.00  0.00    +0.000 A 
ATOM     30  C   UNL     1       1.478   4.088  19.041  0.00  0.00    +0.000 A 
ENDBRANCH  18  25
ENDBRANCH   3  18
TORSDOF 6
ENDMDL
MODEL 3
REMARK VINA RESULT:      -8.6      1.211      1.690
REMARK  Name = 
REMARK  6 active torsions:
REMARK  status: ('A' for Active; 'I' for Inactive)
REMARK    1  A    between atoms: C_2  and  C_17
REMARK    2  A    between atoms: N_3  and  C_4
REMARK    3  A    between atoms: C_4  and  C_5
REMARK    4  A    between atoms: C_4  and  C_11
REMARK    5  A    between atoms: C_20  and  C_21
REMARK    6  A    between atoms: C_25  and  O_26
REMARK                            x       y       z     vdW  Elec       q    Type
REMARK                         _______ _______ _______ _____ _____    ______ ____
ROOT
ATOM      1  O   UNL     1       2.269   8.483  17.406  0.00  0.00    +0.000 OA
ATOM      2  C   UNL     1       2.114   8.079  18.558  0.00  0.00    +0.000 C 
ATOM      3  N   UNL     1       2.556   6.835  18.944  0.00  0.00    +0.000 N 
ATOM      4  H   UNL     1       2.437   6.557  19.906  0.00  0.00    +0.000 HD
ENDROOT
BRANCH   2   5
ATOM      5  C   UNL     1       1.454   8.897  19.570  0.00  0.00    +0.000 A 
ATOM      6  C   UNL     1       1.389   8.592  20.915  0.00  0.00    +0.000 A 
ATOM      7  C   UNL     1       0.685   9.569  21.667  0.00  0.00    +0.000 A 
ATOM      8  C   UNL     1       0.221  10.616  20.892  0.00  0.00    +0.000 A 
ATOM      9  S   UNL     1       0.659  10.378  19.241  0.00  0.00    +0.000 S 
BRANCH   8  10
ATOM     10  C   UNL     1      -0.526  11.807  21.350  0.00  0.00    +0.000 A 
ATOM     11  C   UNL     1      -0.904  12.000  22.688  0.00  0.00    +0.000 A 
ATOM     12  C   UNL     1      -1.569  13.168  23.087  0.00  0.00    +0.000 A 
ATOM     13  C   UNL     1      -1.865  14.165  22.159  0.00  0.00    +0.000 A 
ATOM     14  C   UNL     1      -1.495  13.982  20.833  0.00  0.00    +0.000 A 
ATOM     15  C   UNL     1      -0.838  12.823  20.428  0.00  0.00    +0.000 A 
BRANCH  14  16
ATOM     16  O   UNL     1      -1.754  14.927  19.883  0.00  0.00    +0.000 OA
ATOM     17  H   UNL     1      -2.141  15.707  20.314  0.00  0.00    +0.000 HD
ENDBRANCH  14  16
ENDBRANCH   8  10
ENDBRANCH   2   5
BRANCH   3  18
ATOM     18  C   UNL     1       3.212   5.926  18.016  0.00  0.00    +0.000 C 
BRANCH  18  19
ATOM     19  C   UNL     1       4.727   6.054  18.119  0.00  0.00    +0.000 A 
ATOM     20  C   UNL     1       5.481   6.765  17.174  0.00  0.00    +0.000 A 
ATOM     21  C   UNL     1       6.872   6.845  17.288  0.00  0.00    +0.000 A 
ATOM     22  C   UNL     1       7.527   6.223  18.348  0.00  0.00    +0.000 A 
ATOM     23  C   UNL     1       6.792   5.522  19.301  0.00  0.00    +0.000 A 
ATOM     24  C   UNL     1       5.404   5.436  19.187  0.00  0.00    +0.000 A 
ENDBRANCH  18  19
BRANCH  18  25
ATOM     25  C   UNL     1       2.714   4.488  18.139  0.00  0.00    +0.000 A 
ATOM     26  C   UNL     1       1.622   4.217  18.988  0.00  0.00    +0.000 A 
ATOM     27  C   UNL     1       1.129   2.919  19.136  0.00  0.00    +0.000 A 
ATOM     28  C   UNL     1       1.715   1.871  18.434  0.00  0.00    +0.000 A 
ATOM     29  C   UNL     1       2.789   2.119  17.583  0.00  0.00    +0.000 A 
ATOM     30  C   UNL     1       3.283   3.419  17.432  0.00  0.00    +0.000 A 
ENDBRANCH  18  25
ENDBRANCH   3  18
TORSDOF 6
ENDMDL
MODEL 4
REMARK VINA RESULT:      -8.5      1.221      1.517
REMARK  Name = 
REMARK  6 active torsions:
REMARK  status: ('A' for Active; 'I' for Inactive)
REMARK    1  A    between atoms: C_2  and  C_17
REMARK    2  A    between atoms: N_3  and  C_4
REMARK    3  A    between atoms: C_4  and  C_5
REMARK    4  A    between atoms: C_4  and  C_11
REMARK    5  A    between atoms: C_20  and  C_21
REMARK    6  A    between atoms: C_25  and  O_26
REMARK                            x       y       z     vdW  Elec       q    Type
REMARK                         _______ _______ _______ _____ _____    ______ ____
ROOT
ATOM      1  O   UNL     1       2.155   8.522  17.564  0.00  0.00    +0.000 OA
ATOM      2  C   UNL     1       2.030   8.120  18.720  0.00  0.00    +0.000 C 
ATOM      3  N   UNL     1       2.457   6.866  19.092  0.00  0.00    +0.000 N 
ATOM      4  H   UNL     1       2.364   6.591  20.057  0.00  0.00    +0.000 HD
ENDROOT
BRANCH   2   5
ATOM      5  C   UNL     1       1.425   8.953  19.754  0.00  0.00    +0.000 A 
ATOM      6  C   UNL     1       1.215   8.564  21.062  0.00  0.00    +0.000 A 
ATOM      7  C   UNL     1       0.608   9.579  21.847  0.00  0.00    +0.000 A 
ATOM      8  C   UNL     1       0.362  10.739  21.135  0.00  0.00    +0.000 A 
ATOM      9  S   UNL     1       0.883  10.558  19.501  0.00  0.00    +0.000 S 
BRANCH   8  10
ATOM     10  C   UNL     1      -0.233  11.992  21.643  0.00  0.00    +0.000 A 
ATOM     11  C   UNL     1      -1.004  12.049  22.814  0.00  0.00    +0.000 A 
ATOM     12  C   UNL     1      -1.510  13.269  23.287  0.00  0.00    +0.000 A 
ATOM     13  C   UNL     1      -1.250  14.454  22.600  0.00  0.00    +0.000 A 
ATOM     14  C   UNL     1      -0.488  14.407  21.440  0.00  0.00    +0.000 A 
ATOM     15  C   UNL     1       0.014  13.199  20.963  0.00  0.00    +0.000 A 
BRANCH  14  16
ATOM     16  O   UNL     1      -0.198  15.536  20.732  0.00  0.00    +0.000 OA
ATOM     17  H   UNL     1      -0.341  16.310  21.302  0.00  0.00    +0.000 HD
ENDBRANCH  14  16
ENDBRANCH   8  10
ENDBRANCH   2   5
BRANCH   3  18
ATOM     18  C   UNL     1       3.059   5.943  18.142  0.00  0.00    +0.000 C 
BRANCH  18  19
ATOM     19  C   UNL     1       4.580   6.040  18.189  0.00  0.00    +0.000 A 
ATOM     20  C   UNL     1       5.336   5.412  19.190  0.00  0.00    +0.000 A 
ATOM     21  C   UNL     1       6.728   5.538  19.216  0.00  0.00    +0.000 A 
ATOM     22  C   UNL     1       7.383   6.286  18.239  0.00  0.00    +0.000 A 
ATOM     23  C   UNL     1       6.648   6.906  17.232  0.00  0.00    +0.000 A 
ATOM     24  C   UNL     1       5.258   6.786  17.208  0.00  0.00    +0.000 A 
ENDBRANCH  18  19
BRANCH  18  25
ATOM     25  C   UNL     1       2.537   4.515  18.287  0.00  0.00    +0.000 A 
ATOM     26  C   UNL     1       1.573   4.241  19.277  0.00  0.00    +0.000 A 
ATOM     27  C   UNL     1       1.064   2.953  19.450  0.00  0.00    +0.000 A 
ATOM     28  C   UNL     1       1.505   1.917  18.633  0.00  0.00    +0.000 A 
ATOM     29  C   UNL     1       2.450   2.170  17.641  0.00  0.00    +0.000 A 
ATOM     30  C   UNL     1       2.960   3.460  17.466  0.00  0.00    +0.000 A 
ENDBRANCH  18  25
ENDBRANCH   3  18
TORSDOF 6
ENDMDL
MODEL 5
REMARK VINA RESULT:      -8.5      1.158      1.959
REMARK  Name = 
REMARK  6 active torsions:
REMARK  status: ('A' for Active; 'I' for Inactive)
REMARK    1  A    between atoms: C_2  and  C_17
REMARK    2  A    between atoms: N_3  and  C_4
REMARK    3  A    between atoms: C_4  and  C_5
REMARK    4  A    between atoms: C_4  and  C_11
REMARK    5  A    between atoms: C_20  and  C_21
REMARK    6  A    between atoms: C_25  and  O_26
REMARK                            x       y       z     vdW  Elec       q    Type
REMARK                         _______ _______ _______ _____ _____    ______ ____
ROOT
ATOM      1  O   UNL     1       1.856   8.498  17.713  0.00  0.00    +0.000 OA
ATOM      2  C   UNL     1       1.875   8.126  18.886  0.00  0.00    +0.000 C 
ATOM      3  N   UNL     1       2.405   6.907  19.241  0.00  0.00    +0.000 N 
ATOM      4  H   UNL     1       2.429   6.657  20.218  0.00  0.00    +0.000 HD
ENDROOT
BRANCH   2   5
ATOM      5  C   UNL     1       1.337   8.958  19.957  0.00  0.00    +0.000 A 
ATOM      6  C   UNL     1       1.288   8.599  21.289  0.00  0.00    +0.000 A 
ATOM      7  C   UNL     1       0.712   9.604  22.109  0.00  0.00    +0.000 A 
ATOM      8  C   UNL     1       0.330  10.728  21.398  0.00  0.00    +0.000 A 
ATOM      9  S   UNL     1       0.685  10.524  19.723  0.00  0.00    +0.000 S 
BRANCH   8  10
ATOM     10  C   UNL     1      -0.276  11.965  21.935  0.00  0.00    +0.000 A 
ATOM     11  C   UNL     1      -1.376  11.957  22.808  0.00  0.00    +0.000 A 
ATOM     12  C   UNL     1      -1.888  13.152  23.332  0.00  0.00    +0.000 A 
ATOM     13  C   UNL     1      -1.310  14.375  22.997  0.00  0.00    +0.000 A 
ATOM     14  C   UNL     1      -0.222  14.392  22.134  0.00  0.00    +0.000 A 
ATOM     15  C   UNL     1       0.290  13.210  21.607  0.00  0.00    +0.000 A 
BRANCH  14  16
ATOM     16  O   UNL     1       0.387  15.560  21.777  0.00  0.00    +0.000 OA
ATOM     17  H   UNL     1       0.412  16.149  22.549  0.00  0.00    +0.000 HD
ENDBRANCH  14  16
ENDBRANCH   8  10
ENDBRANCH   2   5
BRANCH   3  18
ATOM     18  C   UNL     1       2.954   5.988  18.256  0.00  0.00    +0.000 C 
BRANCH  18  19
ATOM     19  C   UNL     1       4.475   6.078  18.225  0.00  0.00    +0.000 A 
ATOM     20  C   UNL     1       5.159   6.801  17.237  0.00  0.00    +0.000 A 
ATOM     21  C   UNL     1       6.556   6.846  17.227  0.00  0.00    +0.000 A 
ATOM     22  C   UNL     1       7.287   6.176  18.205  0.00  0.00    +0.000 A 
ATOM     23  C   UNL     1       6.624   5.462  19.199  0.00  0.00    +0.000 A 
ATOM     24  C   UNL     1       5.229   5.412  19.209  0.00  0.00    +0.000 A 
ENDBRANCH  18  19
BRANCH  18  25
ATOM     25  C   UNL     1       2.433   4.561  18.419  0.00  0.00    +0.000 A 
ATOM     26  C   UNL     1       2.845   3.579  17.497  0.00  0.00    +0.000 A 
ATOM     27  C   UNL     1       2.397   2.260  17.601  0.00  0.00    +0.000 A 
ATOM     28  C   UNL     1       1.535   1.900  18.632  0.00  0.00    +0.000 A 
ATOM     29  C   UNL     1       1.125   2.855  19.559  0.00  0.00    +0.000 A 
ATOM     30  C   UNL     1       1.573   4.175  19.457  0.00  0.00    +0.000 A 
ENDBRANCH  18  25
ENDBRANCH   3  18
TORSDOF 6
ENDMDL
MODEL 6
REMARK VINA RESULT:      -8.5      1.100      1.189
REMARK  Name = 
REMARK  6 active torsions:
REMARK  status: ('A' for Active; 'I' for Inactive)
REMARK    1  A    between atoms: C_2  and  C_17
REMARK    2  A    between atoms: N_3  and  C_4
REMARK    3  A    between atoms: C_4  and  C_5
REMARK    4  A    between atoms: C_4  and  C_11
REMARK    5  A    between atoms: C_20  and  C_21
REMARK    6  A    between atoms: C_25  and  O_26
REMARK                            x       y       z     vdW  Elec       q    Type
REMARK                         _______ _______ _______ _____ _____    ______ ____
ROOT
ATOM      1  O   UNL     1       2.460   8.437  17.278  0.00  0.00    +0.000 OA
ATOM      2  C   UNL     1       2.228   8.023  18.413  0.00  0.00    +0.000 C 
ATOM      3  N   UNL     1       2.647   6.778  18.820  0.00  0.00    +0.000 N 
ATOM      4  H   UNL     1       2.464   6.492  19.770  0.00  0.00    +0.000 HD
ENDROOT
BRANCH   2   5
ATOM      5  C   UNL     1       1.499   8.833  19.385  0.00  0.00    +0.000 A 
ATOM      6  C   UNL     1       1.422   8.567  20.737  0.00  0.00    +0.000 A 
ATOM      7  C   UNL     1       0.645   9.522  21.442  0.00  0.00    +0.000 A 
ATOM      8  C   UNL     1       0.137  10.516  20.624  0.00  0.00    +0.000 A 
ATOM      9  S   UNL     1       0.626  10.252  18.991  0.00  0.00    +0.000 S 
BRANCH   8  10
ATOM     10  C   UNL     1      -0.688  11.674  21.028  0.00  0.00    +0.000 A 
ATOM     11  C   UNL     1      -1.759  12.150  20.256  0.00  0.00    +0.000 A 
ATOM     12  C   UNL     1      -2.547  13.222  20.701  0.00  0.00    +0.000 A 
ATOM     13  C   UNL     1      -2.280  13.834  21.925  0.00  0.00    +0.000 A 
ATOM     14  C   UNL     1      -1.222  13.370  22.693  0.00  0.00    +0.000 A 
ATOM     15  C   UNL     1      -0.434  12.308  22.257  0.00  0.00    +0.000 A 
BRANCH  14  16
ATOM     16  O   UNL     1      -0.919  13.927  23.902  0.00  0.00    +0.000 OA
ATOM     17  H   UNL     1      -1.249  13.346  24.606  0.00  0.00    +0.000 HD
ENDBRANCH  14  16
ENDBRANCH   8  10
ENDBRANCH   2   5
BRANCH   3  18
ATOM     18  C   UNL     1       3.367   5.878  17.932  0.00  0.00    +0.000 C 
BRANCH  18  19
ATOM     19  C   UNL     1       4.872   6.027  18.120  0.00  0.00    +0.000 A 
ATOM     20  C   UNL     1       5.554   5.422  19.186  0.00  0.00    +0.000 A 
ATOM     21  C   UNL     1       6.932   5.596  19.341  0.00  0.00    +0.000 A 
ATOM     22  C   UNL     1       7.648   6.370  18.430  0.00  0.00    +0.000 A 
ATOM     23  C   UNL     1       6.989   6.968  17.360  0.00  0.00    +0.000 A 
ATOM     24  C   UNL     1       5.612   6.800  17.206  0.00  0.00    +0.000 A 
ENDBRANCH  18  19
BRANCH  18  25
ATOM     25  C   UNL     1       2.883   4.433  18.029  0.00  0.00    +0.000 A 
ATOM     26  C   UNL     1       1.655   4.169  18.666  0.00  0.00    +0.000 A 
ATOM     27  C   UNL     1       1.169   2.865  18.781  0.00  0.00    +0.000 A 
ATOM     28  C   UNL     1       1.898   1.804  18.256  0.00  0.00    +0.000 A 
ATOM     29  C   UNL     1       3.110   2.045  17.613  0.00  0.00    +0.000 A 
ATOM     30  C   UNL     1       3.598   3.350  17.496  0.00  0.00    +0.000 A 
ENDBRANCH  18  25
ENDBRANCH   3  18
TORSDOF 6
ENDMDL
MODEL 7
REMARK VINA RESULT:      -8.5      1.177      1.263
REMARK  Name = 
REMARK  6 active torsions:
REMARK  status: ('A' for Active; 'I' for Inactive)
REMARK    1  A    between atoms: C_2  and  C_17
REMARK    2  A    between atoms: N_3  and  C_4
REMARK    3  A    between atoms: C_4  and  C_5
REMARK    4  A    between atoms: C_4  and  C_11
REMARK    5  A    between atoms: C_20  and  C_21
REMARK    6  A    between atoms: C_25  and  O_26
REMARK                            x       y       z     vdW  Elec       q    Type
REMARK                         _______ _______ _______ _____ _____    ______ ____
ROOT
ATOM      1  O   UNL     1       2.424   8.459  17.461  0.00  0.00    +0.000 OA
ATOM      2  C   UNL     1       2.187   7.987  18.573  0.00  0.00    +0.000 C 
ATOM      3  N   UNL     1       2.590   6.717  18.912  0.00  0.00    +0.000 N 
ATOM      4  H   UNL     1       2.404   6.383  19.845  0.00  0.00    +0.000 HD
ENDROOT
BRANCH   2   5
ATOM      5  C   UNL     1       1.468   8.752  19.587  0.00  0.00    +0.000 A 
ATOM      6  C   UNL     1       1.515   8.507  20.944  0.00  0.00    +0.000 A 
ATOM      7  C   UNL     1       0.716   9.409  21.694  0.00  0.00    +0.000 A 
ATOM      8  C   UNL     1       0.067  10.342  20.905  0.00  0.00    +0.000 A 
ATOM      9  S   UNL     1       0.453  10.088  19.243  0.00  0.00    +0.000 S 
BRANCH   8  10
ATOM     10  C   UNL     1      -0.819  11.435  21.355  0.00  0.00    +0.000 A 
ATOM     11  C   UNL     1      -0.816  11.924  22.671  0.00  0.00    +0.000 A 
ATOM     12  C   UNL     1      -1.640  12.996  23.043  0.00  0.00    +0.000 A 
ATOM     13  C   UNL     1      -2.477  13.602  22.107  0.00  0.00    +0.000 A 
ATOM     14  C   UNL     1      -2.486  13.124  20.804  0.00  0.00    +0.000 A 
ATOM     15  C   UNL     1      -1.674  12.058  20.428  0.00  0.00    +0.000 A 
BRANCH  14  16
ATOM     16  O   UNL     1      -3.281  13.682  19.845  0.00  0.00    +0.000 OA
ATOM     17  H   UNL     1      -4.032  14.121  20.278  0.00  0.00    +0.000 HD
ENDBRANCH  14  16
ENDBRANCH   8  10
ENDBRANCH   2   5
BRANCH   3  18
ATOM     18  C   UNL     1       3.299   5.857  17.976  0.00  0.00    +0.000 C 
BRANCH  18  19
ATOM     19  C   UNL     1       4.806   6.025  18.128  0.00  0.00    +0.000 A 
ATOM     20  C   UNL     1       5.524   5.415  19.167  0.00  0.00    +0.000 A 
ATOM     21  C   UNL     1       6.903   5.606  19.288  0.00  0.00    +0.000 A 
ATOM     22  C   UNL     1       7.584   6.403  18.370  0.00  0.00    +0.000 A 
ATOM     23  C   UNL     1       6.889   7.007  17.326  0.00  0.00    +0.000 A 
ATOM     24  C   UNL     1       5.511   6.821  17.206  0.00  0.00    +0.000 A 
ENDBRANCH  18  19
BRANCH  18  25
ATOM     25  C   UNL     1       2.841   4.402  18.041  0.00  0.00    +0.000 A 
ATOM     26  C   UNL     1       1.638   4.097  18.708  0.00  0.00    +0.000 A 
ATOM     27  C   UNL     1       1.176   2.782  18.796  0.00  0.00    +0.000 A 
ATOM     28  C   UNL     1       1.904   1.751  18.214  0.00  0.00    +0.000 A 
ATOM     29  C   UNL     1       3.091   2.032  17.541  0.00  0.00    +0.000 A 
ATOM     30  C   UNL     1       3.555   3.348  17.451  0.00  0.00    +0.000 A 
ENDBRANCH  18  25
ENDBRANCH   3  18
TORSDOF 6
ENDMDL
MODEL 8
REMARK VINA RESULT:      -8.3      1.447      1.893
REMARK  Name = 
REMARK  6 active torsions:
REMARK  status: ('A' for Active; 'I' for Inactive)
REMARK    1  A    between atoms: C_2  and  C_17
REMARK    2  A    between atoms: N_3  and  C_4
REMARK    3  A    between atoms: C_4  and  C_5
REMARK    4  A    between atoms: C_4  and  C_11
REMARK    5  A    between atoms: C_20  and  C_21
REMARK    6  A    between atoms: C_25  and  O_26
REMARK                            x       y       z     vdW  Elec       q    Type
REMARK                         _______ _______ _______ _____ _____    ______ ____
ROOT
ATOM      1  O   UNL     1       2.469   8.546  16.806  0.00  0.00    +0.000 OA
ATOM      2  C   UNL     1       2.215   8.507  18.010  0.00  0.00    +0.000 C 
ATOM      3  N   UNL     1       2.400   7.358  18.742  0.00  0.00    +0.000 N 
ATOM      4  H   UNL     1       2.209   7.380  19.733  0.00  0.00    +0.000 HD
ENDROOT
BRANCH   2   5
ATOM      5  C   UNL     1       1.706   9.677  18.718  0.00  0.00    +0.000 A 
ATOM      6  C   UNL     1       1.935  10.987  18.349  0.00  0.00    +0.000 A 
ATOM      7  C   UNL     1       1.318  11.920  19.223  0.00  0.00    +0.000 A 
ATOM      8  C   UNL     1       0.616  11.317  20.251  0.00  0.00    +0.000 A 
ATOM      9  S   UNL     1       0.732   9.600  20.125  0.00  0.00    +0.000 S 
BRANCH   8  10
ATOM     10  C   UNL     1      -0.160  11.983  21.317  0.00  0.00    +0.000 A 
ATOM     11  C   UNL     1      -1.216  11.354  21.996  0.00  0.00    +0.000 A 
ATOM     12  C   UNL     1      -1.894  12.006  23.035  0.00  0.00    +0.000 A 
ATOM     13  C   UNL     1      -1.528  13.296  23.418  0.00  0.00    +0.000 A 
ATOM     14  C   UNL     1      -0.486  13.926  22.751  0.00  0.00    +0.000 A 
ATOM     15  C   UNL     1       0.190  13.286  21.716  0.00  0.00    +0.000 A 
BRANCH  14  16
ATOM     16  O   UNL     1      -0.082  15.185  23.087  0.00  0.00    +0.000 OA
ATOM     17  H   UNL     1      -0.789  15.617  23.593  0.00  0.00    +0.000 HD
ENDBRANCH  14  16
ENDBRANCH   8  10
ENDBRANCH   2   5
BRANCH   3  18
ATOM     18  C   UNL     1       2.886   6.127  18.138  0.00  0.00    +0.000 C 
BRANCH  18  19
ATOM     19  C   UNL     1       4.407   6.059  18.205  0.00  0.00    +0.000 A 
ATOM     20  C   UNL     1       5.080   5.428  19.262  0.00  0.00    +0.000 A 
ATOM     21  C   UNL     1       6.476   5.402  19.302  0.00  0.00    +0.000 A 
ATOM     22  C   UNL     1       7.219   5.999  18.285  0.00  0.00    +0.000 A 
ATOM     23  C   UNL     1       6.567   6.620  17.224  0.00  0.00    +0.000 A 
ATOM     24  C   UNL     1       5.173   6.652  17.183  0.00  0.00    +0.000 A 
ENDBRANCH  18  19
BRANCH  18  25
ATOM     25  C   UNL     1       2.198   4.880  18.691  0.00  0.00    +0.000 A 
ATOM     26  C   UNL     1       1.757   4.884  20.029  0.00  0.00    +0.000 A 
ATOM     27  C   UNL     1       1.123   3.770  20.582  0.00  0.00    +0.000 A 
ATOM     28  C   UNL     1       0.914   2.635  19.806  0.00  0.00    +0.000 A 
ATOM     29  C   UNL     1       1.333   2.615  18.477  0.00  0.00    +0.000 A 
ATOM     30  C   UNL     1       1.967   3.730  17.921  0.00  0.00    +0.000 A 
ENDBRANCH  18  25
ENDBRANCH   3  18
TORSDOF 6
ENDMDL
MODEL 9
REMARK VINA RESULT:      -8.3      0.983      1.768
REMARK  Name = 
REMARK  6 active torsions:
REMARK  status: ('A' for Active; 'I' for Inactive)
REMARK    1  A    between atoms: C_2  and  C_17
REMARK    2  A    between atoms: N_3  and  C_4
REMARK    3  A    between atoms: C_4  and  C_5
REMARK    4  A    between atoms: C_4  and  C_11
REMARK    5  A    between atoms: C_20  and  C_21
REMARK    6  A    between atoms: C_25  and  O_26
REMARK                            x       y       z     vdW  Elec       q    Type
REMARK                         _______ _______ _______ _____ _____    ______ ____
ROOT
ATOM      1  O   UNL     1       2.133   8.568  17.247  0.00  0.00    +0.000 OA
ATOM      2  C   UNL     1       2.014   8.298  18.442  0.00  0.00    +0.000 C 
ATOM      3  N   UNL     1       2.427   7.086  18.945  0.00  0.00    +0.000 N 
ATOM      4  H   UNL     1       2.341   6.920  19.936  0.00  0.00    +0.000 HD
ENDROOT
BRANCH   2   5
ATOM      5  C   UNL     1       1.431   9.249  19.383  0.00  0.00    +0.000 A 
ATOM      6  C   UNL     1       1.109   8.966  20.696  0.00  0.00    +0.000 A 
ATOM      7  C   UNL     1       0.556  10.081  21.378  0.00  0.00    +0.000 A 
ATOM      8  C   UNL     1       0.464  11.210  20.584  0.00  0.00    +0.000 A 
ATOM      9  S   UNL     1       1.060  10.876  19.000  0.00  0.00    +0.000 S 
BRANCH   8  10
ATOM     10  C   UNL     1      -0.038  12.543  20.977  0.00  0.00    +0.000 A 
ATOM     11  C   UNL     1      -0.106  13.625  20.085  0.00  0.00    +0.000 A 
ATOM     12  C   UNL     1      -0.634  14.860  20.488  0.00  0.00    +0.000 A 
ATOM     13  C   UNL     1      -1.107  15.035  21.787  0.00  0.00    +0.000 A 
ATOM     14  C   UNL     1      -1.043  13.971  22.677  0.00  0.00    +0.000 A 
ATOM     15  C   UNL     1      -0.516  12.743  22.285  0.00  0.00    +0.000 A 
BRANCH  14  16
ATOM     16  O   UNL     1      -1.496  14.085  23.959  0.00  0.00    +0.000 OA
ATOM     17  H   UNL     1      -0.763  13.896  24.568  0.00  0.00    +0.000 HD
ENDBRANCH  14  16
ENDBRANCH   8  10
ENDBRANCH   2   5
BRANCH   3  18
ATOM     18  C   UNL     1       3.007   6.056  18.098  0.00  0.00    +0.000 C 
BRANCH  18  19
ATOM     19  C   UNL     1       4.529   6.102  18.160  0.00  0.00    +0.000 A 
ATOM     20  C   UNL     1       5.294   6.786  17.203  0.00  0.00    +0.000 A 
ATOM     21  C   UNL     1       6.689   6.791  17.278  0.00  0.00    +0.000 A 
ATOM     22  C   UNL     1       7.339   6.121  18.312  0.00  0.00    +0.000 A 
ATOM     23  C   UNL     1       6.595   5.447  19.276  0.00  0.00    +0.000 A 
ATOM     24  C   UNL     1       5.201   5.435  19.201  0.00  0.00    +0.000 A 
ENDBRANCH  18  19
BRANCH  18  25
ATOM     25  C   UNL     1       2.431   4.668  18.369  0.00  0.00    +0.000 A 
ATOM     26  C   UNL     1       2.776   3.608  17.508  0.00  0.00    +0.000 A 
ATOM     27  C   UNL     1       2.276   2.321  17.712  0.00  0.00    +0.000 A 
ATOM     28  C   UNL     1       1.426   2.069  18.784  0.00  0.00    +0.000 A 
ATOM     29  C   UNL     1       1.080   3.102  19.653  0.00  0.00    +0.000 A 
ATOM     30  C   UNL     1       1.581   4.391  19.451  0.00  0.00    +0.000 A 
ENDBRANCH  18  25
ENDBRANCH   3  18
TORSDOF 6
ENDMDL
