MODEL 1
REMARK VINA RESULT:      -8.6      0.000      0.000
REMARK  Name = 
REMARK  2 active torsions:
REMARK  status: ('A' for Active; 'I' for Inactive)
REMARK    1  A    between atoms: C_1  and  N_2
REMARK    2  A    between atoms: C_4  and  C_5
REMARK                            x       y       z     vdW  Elec       q    Type
REMARK                         _______ _______ _______ _____ _____    ______ ____
ROOT
ATOM      1  C   UNL     1       1.563   7.405  20.372  0.00  0.00    +0.000 C 
ATOM      2  N   UNL     1       2.498   6.425  19.877  0.00  0.00    +0.000 N 
ATOM      3  N   UNL     1       3.345   6.737  18.879  0.00  0.00    +0.000 NA
ATOM      4  C   UNL     1       4.002   5.589  18.623  0.00  0.00    +0.000 A 
ATOM      5  C   UNL     1       3.606   4.557  19.540  0.00  0.00    +0.000 A 
ATOM      6  C   UNL     1       3.913   3.221  19.839  0.00  0.00    +0.000 A 
ATOM      7  N   UNL     1       4.907   2.468  19.230  0.00  0.00    +0.000 N 
ATOM      8  N   UNL     1       3.207   2.592  20.802  0.00  0.00    +0.000 NA
ATOM      9  C   UNL     1       2.249   3.274  21.457  0.00  0.00    +0.000 A 
ATOM     10  N   UNL     1       1.892   4.555  21.287  0.00  0.00    +0.000 NA
ATOM     11  C   UNL     1       2.611   5.138  20.311  0.00  0.00    +0.000 A 
ATOM     12  H   UNL     1       5.752   2.974  19.000  0.00  0.00    +0.000 HD
ATOM     13  H   UNL     1       5.056   1.608  19.749  0.00  0.00    +0.000 HD
ENDROOT
BRANCH   4  14
ATOM     14  C   UNL     1       4.956   5.537  17.513  0.00  0.00    +0.000 A 
ATOM     15  C   UNL     1       6.201   6.162  17.589  0.00  0.00    +0.000 A 
ATOM     16  N   UNL     1       7.156   6.189  16.623  0.00  0.00    +0.000 NA
ATOM     17  C   UNL     1       6.819   5.459  15.546  0.00  0.00    +0.000 A 
ATOM     18  N   UNL     1       7.617   5.288  14.450  0.00  0.00    +0.000 N 
ATOM     19  C   UNL     1       7.011   4.438  13.561  0.00  0.00    +0.000 A 
ATOM     20  C   UNL     1       5.782   4.090  14.086  0.00  0.00    +0.000 A 
ATOM     21  C   UNL     1       5.646   4.740  15.342  0.00  0.00    +0.000 A 
ATOM     22  C   UNL     1       4.673   4.794  16.358  0.00  0.00    +0.000 A 
ATOM     23  H   UNL     1       8.527   5.715  14.352  0.00  0.00    +0.000 HD
ENDBRANCH   4  14
TORSDOF 1
ENDMDL
MODEL 2
REMARK VINA RESULT:      -8.1      0.993      2.663
REMARK  Name = 
REMARK  2 active torsions:
REMARK  status: ('A' for Active; 'I' for Inactive)
REMARK    1  A    between atoms: C_1  and  N_2
REMARK    2  A    between atoms: C_4  and  C_5
REMARK                            x       y       z     vdW  Elec       q    Type
REMARK                         _______ _______ _______ _____ _____    ______ ____
ROOT
ATOM      1  C   UNL     1       3.344   2.471  20.753  0.00  0.00    +0.000 C 
ATOM      2  N   UNL     1       3.547   3.548  19.817  0.00  0.00    +0.000 N 
ATOM      3  N   UNL     1       4.371   3.388  18.764  0.00  0.00    +0.000 NA
ATOM      4  C   UNL     1       4.384   4.592  18.160  0.00  0.00    +0.000 A 
ATOM      5  C   UNL     1       3.483   5.501  18.810  0.00  0.00    +0.000 A 
ATOM      6  C   UNL     1       3.012   6.816  18.674  0.00  0.00    +0.000 A 
ATOM      7  N   UNL     1       3.334   7.683  17.640  0.00  0.00    +0.000 N 
ATOM      8  N   UNL     1       2.165   7.303  19.606  0.00  0.00    +0.000 NA
ATOM      9  C   UNL     1       1.785   6.504  20.620  0.00  0.00    +0.000 A 
ATOM     10  N   UNL     1       2.137   5.228  20.836  0.00  0.00    +0.000 NA
ATOM     11  C   UNL     1       2.989   4.789  19.892  0.00  0.00    +0.000 A 
ATOM     12  H   UNL     1       3.426   7.252  16.729  0.00  0.00    +0.000 HD
ATOM     13  H   UNL     1       2.722   8.494  17.665  0.00  0.00    +0.000 HD
ENDROOT
BRANCH   4  14
ATOM     14  C   UNL     1       5.263   4.811  17.009  0.00  0.00    +0.000 A 
ATOM     15  C   UNL     1       6.376   5.649  17.088  0.00  0.00    +0.000 A 
ATOM     16  N   UNL     1       7.249   5.934  16.087  0.00  0.00    +0.000 NA
ATOM     17  C   UNL     1       6.985   5.246  14.962  0.00  0.00    +0.000 A 
ATOM     18  N   UNL     1       7.733   5.320  13.820  0.00  0.00    +0.000 N 
ATOM     19  C   UNL     1       7.237   4.449  12.884  0.00  0.00    +0.000 A 
ATOM     20  C   UNL     1       6.126   3.835  13.428  0.00  0.00    +0.000 A 
ATOM     21  C   UNL     1       5.952   4.341  14.744  0.00  0.00    +0.000 A 
ATOM     22  C   UNL     1       5.049   4.128  15.803  0.00  0.00    +0.000 A 
ATOM     23  H   UNL     1       8.542   5.915  13.722  0.00  0.00    +0.000 HD
ENDBRANCH   4  14
TORSDOF 1
ENDMDL
MODEL 3
REMARK VINA RESULT:      -7.3      2.357      5.714
REMARK  Name = 
REMARK  2 active torsions:
REMARK  status: ('A' for Active; 'I' for Inactive)
REMARK    1  A    between atoms: C_1  and  N_2
REMARK    2  A    between atoms: C_4  and  C_5
REMARK                            x       y       z     vdW  Elec       q    Type
REMARK                         _______ _______ _______ _____ _____    ______ ____
ROOT
ATOM      1  C   UNL     1       5.461   4.173  16.320  0.00  0.00    +0.000 C 
ATOM      2  N   UNL     1       4.341   4.454  17.184  0.00  0.00    +0.000 N 
ATOM      3  N   UNL     1       3.957   5.724  17.408  0.00  0.00    +0.000 NA
ATOM      4  C   UNL     1       2.956   5.620  18.304  0.00  0.00    +0.000 A 
ATOM      5  C   UNL     1       2.658   4.244  18.582  0.00  0.00    +0.000 A 
ATOM      6  C   UNL     1       1.757   3.479  19.339  0.00  0.00    +0.000 A 
ATOM      7  N   UNL     1       0.708   3.985  20.093  0.00  0.00    +0.000 N 
ATOM      8  N   UNL     1       1.891   2.136  19.347  0.00  0.00    +0.000 NA
ATOM      9  C   UNL     1       2.869   1.576  18.611  0.00  0.00    +0.000 A 
ATOM     10  N   UNL     1       3.761   2.195  17.825  0.00  0.00    +0.000 NA
ATOM     11  C   UNL     1       3.599   3.529  17.857  0.00  0.00    +0.000 A 
ATOM     12  H   UNL     1       0.232   4.782  19.689  0.00  0.00    +0.000 HD
ATOM     13  H   UNL     1       0.096   3.229  20.385  0.00  0.00    +0.000 HD
ENDROOT
BRANCH   4  14
ATOM     14  C   UNL     1       2.350   6.836  18.852  0.00  0.00    +0.000 A 
ATOM     15  C   UNL     1       2.031   6.948  20.205  0.00  0.00    +0.000 A 
ATOM     16  N   UNL     1       1.459   8.017  20.819  0.00  0.00    +0.000 NA
ATOM     17  C   UNL     1       1.279   9.054  19.983  0.00  0.00    +0.000 A 
ATOM     18  N   UNL     1       0.759  10.262  20.354  0.00  0.00    +0.000 N 
ATOM     19  C   UNL     1       0.771  11.121  19.286  0.00  0.00    +0.000 A 
ATOM     20  C   UNL     1       1.275  10.434  18.200  0.00  0.00    +0.000 A 
ATOM     21  C   UNL     1       1.593   9.117  18.630  0.00  0.00    +0.000 A 
ATOM     22  C   UNL     1       2.134   7.959  18.040  0.00  0.00    +0.000 A 
ATOM     23  H   UNL     1       0.448  10.470  21.292  0.00  0.00    +0.000 HD
ENDBRANCH   4  14
TORSDOF 1
ENDMDL
MODEL 4
REMARK VINA RESULT:      -7.3      2.191      5.901
REMARK  Name = 
REMARK  2 active torsions:
REMARK  status: ('A' for Active; 'I' for Inactive)
REMARK    1  A    between atoms: C_1  and  N_2
REMARK    2  A    between atoms: C_4  and  C_5
REMARK                            x       y       z     vdW  Elec       q    Type
REMARK                         _______ _______ _______ _____ _____    ______ ____
ROOT
ATOM      1  C   UNL     1       5.557   4.217  16.265  0.00  0.00    +0.000 C 
ATOM      2  N   UNL     1       4.443   4.526  17.127  0.00  0.00    +0.000 N 
ATOM      3  N   UNL     1       4.058   5.803  17.310  0.00  0.00    +0.000 NA
ATOM      4  C   UNL     1       3.063   5.729  18.215  0.00  0.00    +0.000 A 
ATOM      5  C   UNL     1       2.770   4.362  18.544  0.00  0.00    +0.000 A 
ATOM      6  C   UNL     1       1.877   3.623  19.333  0.00  0.00    +0.000 A 
ATOM      7  N   UNL     1       0.831   4.152  20.076  0.00  0.00    +0.000 N 
ATOM      8  N   UNL     1       2.013   2.281  19.387  0.00  0.00    +0.000 NA
ATOM      9  C   UNL     1       2.987   1.697  18.664  0.00  0.00    +0.000 A 
ATOM     10  N   UNL     1       3.872   2.290  17.850  0.00  0.00    +0.000 NA
ATOM     11  C   UNL     1       3.708   3.624  17.837  0.00  0.00    +0.000 A 
ATOM     12  H   UNL     1       0.351   4.934  19.649  0.00  0.00    +0.000 HD
ATOM     13  H   UNL     1       0.223   3.406  20.399  0.00  0.00    +0.000 HD
ENDROOT
BRANCH   4  14
ATOM     14  C   UNL     1       2.460   6.962  18.725  0.00  0.00    +0.000 A 
ATOM     15  C   UNL     1       2.093   8.003  17.873  0.00  0.00    +0.000 A 
ATOM     16  N   UNL     1       1.539   9.191  18.233  0.00  0.00    +0.000 NA
ATOM     17  C   UNL     1       1.287   9.261  19.552  0.00  0.00    +0.000 A 
ATOM     18  N   UNL     1       0.698  10.330  20.168  0.00  0.00    +0.000 N 
ATOM     19  C   UNL     1       0.524  10.060  21.501  0.00  0.00    +0.000 A 
ATOM     20  C   UNL     1       1.048   8.806  21.747  0.00  0.00    +0.000 A 
ATOM     21  C   UNL     1       1.543   8.294  20.517  0.00  0.00    +0.000 A 
ATOM     22  C   UNL     1       2.167   7.107  20.089  0.00  0.00    +0.000 A 
ATOM     23  H   UNL     1       0.417  11.168  19.680  0.00  0.00    +0.000 HD
ENDBRANCH   4  14
TORSDOF 1
ENDMDL
MODEL 5
REMARK VINA RESULT:      -7.2      2.258      5.844
REMARK  Name = 
REMARK  2 active torsions:
REMARK  status: ('A' for Active; 'I' for Inactive)
REMARK    1  A    between atoms: C_1  and  N_2
REMARK    2  A    between atoms: C_4  and  C_5
REMARK                            x       y       z     vdW  Elec       q    Type
REMARK                         _______ _______ _______ _____ _____    ______ ____
ROOT
ATOM      1  C   UNL     1       6.547   4.828  17.843  0.00  0.00    +0.000 C 
ATOM      2  N   UNL     1       5.234   5.078  18.384  0.00  0.00    +0.000 N 
ATOM      3  N   UNL     1       4.631   6.264  18.186  0.00  0.00    +0.000 NA
ATOM      4  C   UNL     1       3.480   6.178  18.881  0.00  0.00    +0.000 A 
ATOM      5  C   UNL     1       3.329   4.874  19.462  0.00  0.00    +0.000 A 
ATOM      6  C   UNL     1       2.401   4.146  20.222  0.00  0.00    +0.000 A 
ATOM      7  N   UNL     1       1.148   4.598  20.611  0.00  0.00    +0.000 N 
ATOM      8  N   UNL     1       2.722   2.896  20.616  0.00  0.00    +0.000 NA
ATOM      9  C   UNL     1       3.910   2.382  20.246  0.00  0.00    +0.000 A 
ATOM     10  N   UNL     1       4.857   2.963  19.495  0.00  0.00    +0.000 NA
ATOM     11  C   UNL     1       4.501   4.209  19.137  0.00  0.00    +0.000 A 
ATOM     12  H   UNL     1       0.665   5.169  19.929  0.00  0.00    +0.000 HD
ATOM     13  H   UNL     1       0.601   3.826  20.981  0.00  0.00    +0.000 HD
ENDROOT
BRANCH   4  14
ATOM     14  C   UNL     1       2.599   7.345  18.963  0.00  0.00    +0.000 A 
ATOM     15  C   UNL     1       2.296   8.114  17.839  0.00  0.00    +0.000 A 
ATOM     16  N   UNL     1       1.505   9.218  17.800  0.00  0.00    +0.000 NA
ATOM     17  C   UNL     1       0.940   9.488  18.989  0.00  0.00    +0.000 A 
ATOM     18  N   UNL     1       0.072  10.521  19.213  0.00  0.00    +0.000 N 
ATOM     19  C   UNL     1      -0.371  10.481  20.510  0.00  0.00    +0.000 A 
ATOM     20  C   UNL     1       0.258   9.424  21.136  0.00  0.00    +0.000 A 
ATOM     21  C   UNL     1       1.099   8.792  20.182  0.00  0.00    +0.000 A 
ATOM     22  C   UNL     1       1.974   7.689  20.171  0.00  0.00    +0.000 A 
ATOM     23  H   UNL     1      -0.205  11.180  18.500  0.00  0.00    +0.000 HD
ENDBRANCH   4  14
TORSDOF 1
ENDMDL
MODEL 6
REMARK VINA RESULT:      -7.1      1.203      2.661
REMARK  Name = 
REMARK  2 active torsions:
REMARK  status: ('A' for Active; 'I' for Inactive)
REMARK    1  A    between atoms: C_1  and  N_2
REMARK    2  A    between atoms: C_4  and  C_5
REMARK                            x       y       z     vdW  Elec       q    Type
REMARK                         _______ _______ _______ _____ _____    ______ ____
ROOT
ATOM      1  C   UNL     1       4.507   1.416  21.333  0.00  0.00    +0.000 C 
ATOM      2  N   UNL     1       4.316   2.444  20.341  0.00  0.00    +0.000 N 
ATOM      3  N   UNL     1       5.189   2.581  19.326  0.00  0.00    +0.000 NA
ATOM      4  C   UNL     1       4.756   3.664  18.652  0.00  0.00    +0.000 A 
ATOM      5  C   UNL     1       3.536   4.166  19.219  0.00  0.00    +0.000 A 
ATOM      6  C   UNL     1       2.590   5.177  18.991  0.00  0.00    +0.000 A 
ATOM      7  N   UNL     1       2.596   6.057  17.918  0.00  0.00    +0.000 N 
ATOM      8  N   UNL     1       1.573   5.326  19.866  0.00  0.00    +0.000 NA
ATOM      9  C   UNL     1       1.488   4.485  20.913  0.00  0.00    +0.000 A 
ATOM     10  N   UNL     1       2.305   3.465  21.214  0.00  0.00    +0.000 NA
ATOM     11  C   UNL     1       3.308   3.363  20.326  0.00  0.00    +0.000 A 
ATOM     12  H   UNL     1       2.899   5.661  17.037  0.00  0.00    +0.000 HD
ATOM     13  H   UNL     1       1.713   6.558  17.876  0.00  0.00    +0.000 HD
ENDROOT
BRANCH   4  14
ATOM     14  C   UNL     1       5.534   4.167  17.518  0.00  0.00    +0.000 A 
ATOM     15  C   UNL     1       6.651   4.983  17.702  0.00  0.00    +0.000 A 
ATOM     16  N   UNL     1       7.437   5.514  16.728  0.00  0.00    +0.000 NA
ATOM     17  C   UNL     1       7.078   5.107  15.499  0.00  0.00    +0.000 A 
ATOM     18  N   UNL     1       7.727   5.463  14.349  0.00  0.00    +0.000 N 
ATOM     19  C   UNL     1       7.154   4.830  13.277  0.00  0.00    +0.000 A 
ATOM     20  C   UNL     1       6.092   4.083  13.749  0.00  0.00    +0.000 A 
ATOM     21  C   UNL     1       6.030   4.260  15.158  0.00  0.00    +0.000 A 
ATOM     22  C   UNL     1       5.220   3.785  16.206  0.00  0.00    +0.000 A 
ATOM     23  H   UNL     1       8.526   6.080  14.329  0.00  0.00    +0.000 HD
ENDBRANCH   4  14
TORSDOF 1
ENDMDL
MODEL 7
REMARK VINA RESULT:      -7.1      1.286      1.740
REMARK  Name = 
REMARK  2 active torsions:
REMARK  status: ('A' for Active; 'I' for Inactive)
REMARK    1  A    between atoms: C_1  and  N_2
REMARK    2  A    between atoms: C_4  and  C_5
REMARK                            x       y       z     vdW  Elec       q    Type
REMARK                         _______ _______ _______ _____ _____    ______ ____
ROOT
ATOM      1  C   UNL     1       2.503   8.173  18.618  0.00  0.00    +0.000 C 
ATOM      2  N   UNL     1       3.154   6.956  18.198  0.00  0.00    +0.000 N 
ATOM      3  N   UNL     1       4.016   6.968  17.165  0.00  0.00    +0.000 NA
ATOM      4  C   UNL     1       4.364   5.676  17.002  0.00  0.00    +0.000 A 
ATOM      5  C   UNL     1       3.761   4.852  18.012  0.00  0.00    +0.000 A 
ATOM      6  C   UNL     1       3.744   3.511  18.423  0.00  0.00    +0.000 A 
ATOM      7  N   UNL     1       4.501   2.489  17.869  0.00  0.00    +0.000 N 
ATOM      8  N   UNL     1       2.940   3.155  19.447  0.00  0.00    +0.000 NA
ATOM      9  C   UNL     1       2.201   4.103  20.053  0.00  0.00    +0.000 A 
ATOM     10  N   UNL     1       2.161   5.415  19.775  0.00  0.00    +0.000 NA
ATOM     11  C   UNL     1       2.965   5.720  18.743  0.00  0.00    +0.000 A 
ATOM     12  H   UNL     1       5.436   2.751  17.583  0.00  0.00    +0.000 HD
ATOM     13  H   UNL     1       4.454   1.664  18.460  0.00  0.00    +0.000 HD
ENDROOT
BRANCH   4  14
ATOM     14  C   UNL     1       5.237   5.300  15.888  0.00  0.00    +0.000 A 
ATOM     15  C   UNL     1       6.606   5.570  15.909  0.00  0.00    +0.000 A 
ATOM     16  N   UNL     1       7.505   5.279  14.933  0.00  0.00    +0.000 NA
ATOM     17  C   UNL     1       6.954   4.602  13.911  0.00  0.00    +0.000 A 
ATOM     18  N   UNL     1       7.646   4.155  12.820  0.00  0.00    +0.000 N 
ATOM     19  C   UNL     1       6.808   3.447  11.997  0.00  0.00    +0.000 A 
ATOM     20  C   UNL     1       5.546   3.476  12.556  0.00  0.00    +0.000 A 
ATOM     21  C   UNL     1       5.626   4.214  13.768  0.00  0.00    +0.000 A 
ATOM     22  C   UNL     1       4.733   4.592  14.788  0.00  0.00    +0.000 A 
ATOM     23  H   UNL     1       8.633   4.313  12.684  0.00  0.00    +0.000 HD
ENDBRANCH   4  14
TORSDOF 1
ENDMDL
MODEL 8
REMARK VINA RESULT:      -7.0      2.193      6.311
REMARK  Name = 
REMARK  2 active torsions:
REMARK  status: ('A' for Active; 'I' for Inactive)
REMARK    1  A    between atoms: C_1  and  N_2
REMARK    2  A    between atoms: C_4  and  C_5
REMARK                            x       y       z     vdW  Elec       q    Type
REMARK                         _______ _______ _______ _____ _____    ______ ____
ROOT
ATOM      1  C   UNL     1       3.022   2.257  17.436  0.00  0.00    +0.000 C 
ATOM      2  N   UNL     1       3.418   3.642  17.501  0.00  0.00    +0.000 N 
ATOM      3  N   UNL     1       2.661   4.535  18.164  0.00  0.00    +0.000 NA
ATOM      4  C   UNL     1       3.274   5.717  17.956  0.00  0.00    +0.000 A 
ATOM      5  C   UNL     1       4.487   5.540  17.210  0.00  0.00    +0.000 A 
ATOM      6  C   UNL     1       5.559   6.302  16.720  0.00  0.00    +0.000 A 
ATOM      7  N   UNL     1       5.751   7.658  16.943  0.00  0.00    +0.000 N 
ATOM      8  N   UNL     1       6.505   5.691  15.975  0.00  0.00    +0.000 NA
ATOM      9  C   UNL     1       6.399   4.369  15.747  0.00  0.00    +0.000 A 
ATOM     10  N   UNL     1       5.447   3.533  16.189  0.00  0.00    +0.000 NA
ATOM     11  C   UNL     1       4.522   4.186  16.914  0.00  0.00    +0.000 A 
ATOM     12  H   UNL     1       5.484   7.986  17.863  0.00  0.00    +0.000 HD
ATOM     13  H   UNL     1       6.685   7.928  16.651  0.00  0.00    +0.000 HD
ENDROOT
BRANCH   4  14
ATOM     14  C   UNL     1       2.662   6.946  18.467  0.00  0.00    +0.000 A 
ATOM     15  C   UNL     1       2.387   8.028  17.630  0.00  0.00    +0.000 A 
ATOM     16  N   UNL     1       1.835   9.216  17.994  0.00  0.00    +0.000 NA
ATOM     17  C   UNL     1       1.485   9.243  19.292  0.00  0.00    +0.000 A 
ATOM     18  N   UNL     1       0.876  10.304  19.903  0.00  0.00    +0.000 N 
ATOM     19  C   UNL     1       0.595   9.989  21.207  0.00  0.00    +0.000 A 
ATOM     20  C   UNL     1       1.069   8.714  21.443  0.00  0.00    +0.000 A 
ATOM     21  C   UNL     1       1.644   8.235  20.235  0.00  0.00    +0.000 A 
ATOM     22  C   UNL     1       2.270   7.048  19.809  0.00  0.00    +0.000 A 
ATOM     23  H   UNL     1       0.654  11.167  19.429  0.00  0.00    +0.000 HD
ENDBRANCH   4  14
TORSDOF 1
ENDMDL
MODEL 9
REMARK VINA RESULT:      -6.9      2.554      6.042
REMARK  Name = 
REMARK  2 active torsions:
REMARK  status: ('A' for Active; 'I' for Inactive)
REMARK    1  A    between atoms: C_1  and  N_2
REMARK    2  A    between atoms: C_4  and  C_5
REMARK                            x       y       z     vdW  Elec       q    Type
REMARK                         _______ _______ _______ _____ _____    ______ ____
ROOT
ATOM      1  C   UNL     1       1.969   3.504  21.468  0.00  0.00    +0.000 C 
ATOM      2  N   UNL     1       2.439   4.557  20.601  0.00  0.00    +0.000 N 
ATOM      3  N   UNL     1       1.834   5.759  20.602  0.00  0.00    +0.000 NA
ATOM      4  C   UNL     1       2.468   6.455  19.639  0.00  0.00    +0.000 A 
ATOM      5  C   UNL     1       3.547   5.691  19.079  0.00  0.00    +0.000 A 
ATOM      6  C   UNL     1       4.571   5.827  18.130  0.00  0.00    +0.000 A 
ATOM      7  N   UNL     1       4.862   6.983  17.420  0.00  0.00    +0.000 N 
ATOM      8  N   UNL     1       5.363   4.765  17.870  0.00  0.00    +0.000 NA
ATOM      9  C   UNL     1       5.158   3.620  18.548  0.00  0.00    +0.000 A 
ATOM     10  N   UNL     1       4.242   3.382  19.498  0.00  0.00    +0.000 NA
ATOM     11  C   UNL     1       3.469   4.460  19.713  0.00  0.00    +0.000 A 
ATOM     12  H   UNL     1       4.752   7.846  17.937  0.00  0.00    +0.000 HD
ATOM     13  H   UNL     1       5.755   6.884  16.946  0.00  0.00    +0.000 HD
ENDROOT
BRANCH   4  14
ATOM     14  C   UNL     1       2.003   7.801  19.297  0.00  0.00    +0.000 A 
ATOM     15  C   UNL     1       2.118   8.308  18.002  0.00  0.00    +0.000 A 
ATOM     16  N   UNL     1       1.733   9.540  17.576  0.00  0.00    +0.000 NA
ATOM     17  C   UNL     1       1.127  10.252  18.541  0.00  0.00    +0.000 A 
ATOM     18  N   UNL     1       0.611  11.506  18.365  0.00  0.00    +0.000 N 
ATOM     19  C   UNL     1       0.005  11.925  19.521  0.00  0.00    +0.000 A 
ATOM     20  C   UNL     1       0.172  10.932  20.466  0.00  0.00    +0.000 A 
ATOM     21  C   UNL     1       0.890   9.869  19.857  0.00  0.00    +0.000 A 
ATOM     22  C   UNL     1       1.360   8.603  20.252  0.00  0.00    +0.000 A 
ATOM     23  H   UNL     1       0.659  12.010  17.492  0.00  0.00    +0.000 HD
ENDBRANCH   4  14
TORSDOF 1
ENDMDL
