MODEL 1
REMARK VINA RESULT:      -5.5      0.000      0.000
REMARK  Name = 
REMARK  3 active torsions:
REMARK  status: ('A' for Active; 'I' for Inactive)
REMARK    1  A    between atoms: C_6  and  O_7
REMARK    2  A    between atoms: O_7  and  C_8
REMARK    3  A    between atoms: C_8  and  C_9
REMARK                            x       y       z     vdW  Elec       q    Type
REMARK                         _______ _______ _______ _____ _____    ______ ____
ROOT
ATOM      1  I   UNL     1       6.732   4.800  14.902  0.00  0.00    +0.000 I 
ATOM      2  C   UNL     1       5.795   4.665  16.745  0.00  0.00    +0.000 A 
ATOM      3  C   UNL     1       6.532   4.427  17.895  0.00  0.00    +0.000 A 
ATOM      4  N   UNL     1       5.984   4.328  19.126  0.00  0.00    +0.000 NA
ATOM      5  C   UNL     1       4.639   4.481  19.196  0.00  0.00    +0.000 A 
ATOM      6  C   UNL     1       3.811   4.727  18.104  0.00  0.00    +0.000 A 
ATOM      7  C   UNL     1       4.411   4.815  16.849  0.00  0.00    +0.000 A 
ENDROOT
BRANCH   6   8
ATOM      8  O   UNL     1       2.485   4.867  18.384  0.00  0.00    +0.000 OA
BRANCH   8   9
ATOM      9  C   UNL     1       1.621   3.780  18.038  0.00  0.00    +0.000 C 
BRANCH   9  10
ATOM     10  C   UNL     1       0.999   3.257  19.329  0.00  0.00    +0.000 C 
ATOM     11  C   UNL     1       1.119   4.146  20.588  0.00  0.00    +0.000 C 
ATOM     12  C   UNL     1       1.371   2.820  21.324  0.00  0.00    +0.000 C 
ATOM     13  N   UNL     1       1.862   2.267  20.038  0.00  0.00    +0.000 NA
ATOM     14  H   UNL     1       1.616   1.291  19.881  0.00  0.00    +0.000 HD
ENDBRANCH   9  10
ENDBRANCH   8   9
ENDBRANCH   6   8
TORSDOF 3
ENDMDL
MODEL 2
REMARK VINA RESULT:      -5.5      1.289      1.568
REMARK  Name = 
REMARK  3 active torsions:
REMARK  status: ('A' for Active; 'I' for Inactive)
REMARK    1  A    between atoms: C_6  and  O_7
REMARK    2  A    between atoms: O_7  and  C_8
REMARK    3  A    between atoms: C_8  and  C_9
REMARK                            x       y       z     vdW  Elec       q    Type
REMARK                         _______ _______ _______ _____ _____    ______ ____
ROOT
ATOM      1  I   UNL     1       6.230   4.255  14.417  0.00  0.00    +0.000 I 
ATOM      2  C   UNL     1       6.138   4.512  16.471  0.00  0.00    +0.000 A 
ATOM      3  C   UNL     1       7.297   4.679  17.213  0.00  0.00    +0.000 A 
ATOM      4  N   UNL     1       7.307   4.853  18.553  0.00  0.00    +0.000 NA
ATOM      5  C   UNL     1       6.097   4.861  19.164  0.00  0.00    +0.000 A 
ATOM      6  C   UNL     1       4.878   4.707  18.510  0.00  0.00    +0.000 A 
ATOM      7  C   UNL     1       4.907   4.523  17.130  0.00  0.00    +0.000 A 
ENDROOT
BRANCH   6   8
ATOM      8  O   UNL     1       3.769   4.762  19.301  0.00  0.00    +0.000 OA
BRANCH   8   9
ATOM      9  C   UNL     1       2.605   5.393  18.759  0.00  0.00    +0.000 C 
BRANCH   9  10
ATOM     10  C   UNL     1       1.457   4.393  18.845  0.00  0.00    +0.000 C 
ATOM     11  C   UNL     1       1.601   3.229  19.851  0.00  0.00    +0.000 C 
ATOM     12  C   UNL     1       0.962   2.380  18.740  0.00  0.00    +0.000 C 
ATOM     13  N   UNL     1       1.490   3.365  17.764  0.00  0.00    +0.000 NA
ATOM     14  H   UNL     1       0.871   3.547  16.976  0.00  0.00    +0.000 HD
ENDBRANCH   9  10
ENDBRANCH   8   9
ENDBRANCH   6   8
TORSDOF 3
ENDMDL
MODEL 3
REMARK VINA RESULT:      -5.5      1.088      1.088
REMARK  Name = 
REMARK  3 active torsions:
REMARK  status: ('A' for Active; 'I' for Inactive)
REMARK    1  A    between atoms: C_6  and  O_7
REMARK    2  A    between atoms: O_7  and  C_8
REMARK    3  A    between atoms: C_8  and  C_9
REMARK                            x       y       z     vdW  Elec       q    Type
REMARK                         _______ _______ _______ _____ _____    ______ ____
ROOT
ATOM      1  I   UNL     1       6.503   4.387  14.020  0.00  0.00    +0.000 I 
ATOM      2  C   UNL     1       6.062   4.360  16.044  0.00  0.00    +0.000 A 
ATOM      3  C   UNL     1       7.058   4.570  16.985  0.00  0.00    +0.000 A 
ATOM      4  N   UNL     1       6.839   4.566  18.319  0.00  0.00    +0.000 NA
ATOM      5  C   UNL     1       5.561   4.345  18.714  0.00  0.00    +0.000 A 
ATOM      6  C   UNL     1       4.491   4.127  17.850  0.00  0.00    +0.000 A 
ATOM      7  C   UNL     1       4.756   4.131  16.483  0.00  0.00    +0.000 A 
ENDROOT
BRANCH   6   8
ATOM      8  O   UNL     1       3.278   3.941  18.444  0.00  0.00    +0.000 OA
BRANCH   8   9
ATOM      9  C   UNL     1       2.683   2.645  18.330  0.00  0.00    +0.000 C 
BRANCH   9  10
ATOM     10  C   UNL     1       1.986   2.340  19.652  0.00  0.00    +0.000 C 
ATOM     11  C   UNL     1       1.066   3.433  20.241  0.00  0.00    +0.000 C 
ATOM     12  C   UNL     1       1.675   3.016  21.590  0.00  0.00    +0.000 C 
ATOM     13  N   UNL     1       2.865   2.544  20.840  0.00  0.00    +0.000 NA
ATOM     14  H   UNL     1       3.287   1.696  21.215  0.00  0.00    +0.000 HD
ENDBRANCH   9  10
ENDBRANCH   8   9
ENDBRANCH   6   8
TORSDOF 3
ENDMDL
MODEL 4
REMARK VINA RESULT:      -5.4      1.108      1.221
REMARK  Name = 
REMARK  3 active torsions:
REMARK  status: ('A' for Active; 'I' for Inactive)
REMARK    1  A    between atoms: C_6  and  O_7
REMARK    2  A    between atoms: O_7  and  C_8
REMARK    3  A    between atoms: C_8  and  C_9
REMARK                            x       y       z     vdW  Elec       q    Type
REMARK                         _______ _______ _______ _____ _____    ______ ____
ROOT
ATOM      1  I   UNL     1       6.598   4.540  14.363  0.00  0.00    +0.000 I 
ATOM      2  C   UNL     1       6.033   4.365  16.349  0.00  0.00    +0.000 A 
ATOM      3  C   UNL     1       6.928   4.666  17.365  0.00  0.00    +0.000 A 
ATOM      4  N   UNL     1       6.625   4.575  18.679  0.00  0.00    +0.000 NA
ATOM      5  C   UNL     1       5.367   4.167  18.975  0.00  0.00    +0.000 A 
ATOM      6  C   UNL     1       4.395   3.847  18.031  0.00  0.00    +0.000 A 
ATOM      7  C   UNL     1       4.746   3.946  16.687  0.00  0.00    +0.000 A 
ENDROOT
BRANCH   6   8
ATOM      8  O   UNL     1       3.182   3.474  18.531  0.00  0.00    +0.000 OA
BRANCH   8   9
ATOM      9  C   UNL     1       2.329   4.509  19.028  0.00  0.00    +0.000 C 
BRANCH   9  10
ATOM     10  C   UNL     1       1.975   4.161  20.470  0.00  0.00    +0.000 C 
ATOM     11  C   UNL     1       2.675   2.936  21.100  0.00  0.00    +0.000 C 
ATOM     12  C   UNL     1       1.299   2.651  21.723  0.00  0.00    +0.000 C 
ATOM     13  N   UNL     1       0.696   3.402  20.594  0.00  0.00    +0.000 NA
ATOM     14  H   UNL     1      -0.115   3.962  20.849  0.00  0.00    +0.000 HD
ENDBRANCH   9  10
ENDBRANCH   8   9
ENDBRANCH   6   8
TORSDOF 3
ENDMDL
MODEL 5
REMARK VINA RESULT:      -5.3      1.617      1.855
REMARK  Name = 
REMARK  3 active torsions:
REMARK  status: ('A' for Active; 'I' for Inactive)
REMARK    1  A    between atoms: C_6  and  O_7
REMARK    2  A    between atoms: O_7  and  C_8
REMARK    3  A    between atoms: C_8  and  C_9
REMARK                            x       y       z     vdW  Elec       q    Type
REMARK                         _______ _______ _______ _____ _____    ______ ____
ROOT
ATOM      1  I   UNL     1       6.437   4.651  15.596  0.00  0.00    +0.000 I 
ATOM      2  C   UNL     1       4.810   5.334  16.682  0.00  0.00    +0.000 A 
ATOM      3  C   UNL     1       4.684   6.680  16.992  0.00  0.00    +0.000 A 
ATOM      4  N   UNL     1       3.649   7.191  17.695  0.00  0.00    +0.000 NA
ATOM      5  C   UNL     1       2.704   6.306  18.096  0.00  0.00    +0.000 A 
ATOM      6  C   UNL     1       2.735   4.939  17.833  0.00  0.00    +0.000 A 
ATOM      7  C   UNL     1       3.821   4.447  17.112  0.00  0.00    +0.000 A 
ENDROOT
BRANCH   6   8
ATOM      8  O   UNL     1       1.680   4.219  18.308  0.00  0.00    +0.000 OA
BRANCH   8   9
ATOM      9  C   UNL     1       1.791   2.792  18.279  0.00  0.00    +0.000 C 
BRANCH   9  10
ATOM     10  C   UNL     1       1.806   2.301  19.723  0.00  0.00    +0.000 C 
ATOM     11  C   UNL     1       1.105   3.182  20.782  0.00  0.00    +0.000 C 
ATOM     12  C   UNL     1       2.302   2.813  21.672  0.00  0.00    +0.000 C 
ATOM     13  N   UNL     1       3.086   2.599  20.431  0.00  0.00    +0.000 NA
ATOM     14  H   UNL     1       3.743   1.822  20.478  0.00  0.00    +0.000 HD
ENDBRANCH   9  10
ENDBRANCH   8   9
ENDBRANCH   6   8
TORSDOF 3
ENDMDL
MODEL 6
REMARK VINA RESULT:      -5.2      1.488      1.612
REMARK  Name = 
REMARK  3 active torsions:
REMARK  status: ('A' for Active; 'I' for Inactive)
REMARK    1  A    between atoms: C_6  and  O_7
REMARK    2  A    between atoms: O_7  and  C_8
REMARK    3  A    between atoms: C_8  and  C_9
REMARK                            x       y       z     vdW  Elec       q    Type
REMARK                         _______ _______ _______ _____ _____    ______ ____
ROOT
ATOM      1  I   UNL     1       7.352   7.055  17.640  0.00  0.00    +0.000 I 
ATOM      2  C   UNL     1       5.812   5.691  17.396  0.00  0.00    +0.000 A 
ATOM      3  C   UNL     1       6.005   4.535  16.654  0.00  0.00    +0.000 A 
ATOM      4  N   UNL     1       5.044   3.605  16.457  0.00  0.00    +0.000 NA
ATOM      5  C   UNL     1       3.845   3.852  17.037  0.00  0.00    +0.000 A 
ATOM      6  C   UNL     1       3.551   4.977  17.803  0.00  0.00    +0.000 A 
ATOM      7  C   UNL     1       4.564   5.918  17.979  0.00  0.00    +0.000 A 
ENDROOT
BRANCH   6   8
ATOM      8  O   UNL     1       2.289   5.033  18.316  0.00  0.00    +0.000 OA
BRANCH   8   9
ATOM      9  C   UNL     1       1.465   3.874  18.163  0.00  0.00    +0.000 C 
BRANCH   9  10
ATOM     10  C   UNL     1       0.975   3.472  19.550  0.00  0.00    +0.000 C 
ATOM     11  C   UNL     1       1.538   4.253  20.759  0.00  0.00    +0.000 C 
ATOM     12  C   UNL     1       1.577   2.878  21.446  0.00  0.00    +0.000 C 
ATOM     13  N   UNL     1       1.673   2.271  20.096  0.00  0.00    +0.000 NA
ATOM     14  H   UNL     1       1.166   1.394  19.994  0.00  0.00    +0.000 HD
ENDBRANCH   9  10
ENDBRANCH   8   9
ENDBRANCH   6   8
TORSDOF 3
ENDMDL
MODEL 7
REMARK VINA RESULT:      -5.1      1.271      1.542
REMARK  Name = 
REMARK  3 active torsions:
REMARK  status: ('A' for Active; 'I' for Inactive)
REMARK    1  A    between atoms: C_6  and  O_7
REMARK    2  A    between atoms: O_7  and  C_8
REMARK    3  A    between atoms: C_8  and  C_9
REMARK                            x       y       z     vdW  Elec       q    Type
REMARK                         _______ _______ _______ _____ _____    ______ ____
ROOT
ATOM      1  I   UNL     1       6.430   4.418  14.481  0.00  0.00    +0.000 I 
ATOM      2  C   UNL     1       6.245   4.782  16.512  0.00  0.00    +0.000 A 
ATOM      3  C   UNL     1       7.325   4.599  17.362  0.00  0.00    +0.000 A 
ATOM      4  N   UNL     1       7.272   4.819  18.695  0.00  0.00    +0.000 NA
ATOM      5  C   UNL     1       6.082   5.243  19.184  0.00  0.00    +0.000 A 
ATOM      6  C   UNL     1       4.941   5.461  18.416  0.00  0.00    +0.000 A 
ATOM      7  C   UNL     1       5.031   5.217  17.047  0.00  0.00    +0.000 A 
ENDROOT
BRANCH   6   8
ATOM      8  O   UNL     1       3.845   5.905  19.094  0.00  0.00    +0.000 OA
BRANCH   8   9
ATOM      9  C   UNL     1       3.220   4.993  20.003  0.00  0.00    +0.000 C 
BRANCH   9  10
ATOM     10  C   UNL     1       2.624   3.857  19.178  0.00  0.00    +0.000 C 
ATOM     11  C   UNL     1       1.103   3.612  19.299  0.00  0.00    +0.000 C 
ATOM     12  C   UNL     1       1.486   2.123  19.271  0.00  0.00    +0.000 C 
ATOM     13  N   UNL     1       2.814   2.515  19.803  0.00  0.00    +0.000 NA
ATOM     14  H   UNL     1       3.591   1.972  19.431  0.00  0.00    +0.000 HD
ENDBRANCH   9  10
ENDBRANCH   8   9
ENDBRANCH   6   8
TORSDOF 3
ENDMDL
MODEL 8
REMARK VINA RESULT:      -5.1      3.164      5.772
REMARK  Name = 
REMARK  3 active torsions:
REMARK  status: ('A' for Active; 'I' for Inactive)
REMARK    1  A    between atoms: C_6  and  O_7
REMARK    2  A    between atoms: O_7  and  C_8
REMARK    3  A    between atoms: C_8  and  C_9
REMARK                            x       y       z     vdW  Elec       q    Type
REMARK                         _______ _______ _______ _____ _____    ______ ____
ROOT
ATOM      1  I   UNL     1       1.951   3.005  21.543  0.00  0.00    +0.000 I 
ATOM      2  C   UNL     1       2.497   3.187  19.553  0.00  0.00    +0.000 A 
ATOM      3  C   UNL     1       1.622   2.810  18.545  0.00  0.00    +0.000 A 
ATOM      4  N   UNL     1       1.915   2.904  17.229  0.00  0.00    +0.000 NA
ATOM      5  C   UNL     1       3.138   3.402  16.922  0.00  0.00    +0.000 A 
ATOM      6  C   UNL     1       4.084   3.812  17.857  0.00  0.00    +0.000 A 
ATOM      7  C   UNL     1       3.751   3.693  19.204  0.00  0.00    +0.000 A 
ENDROOT
BRANCH   6   8
ATOM      8  O   UNL     1       5.250   4.301  17.346  0.00  0.00    +0.000 OA
BRANCH   8   9
ATOM      9  C   UNL     1       5.303   5.700  17.052  0.00  0.00    +0.000 C 
BRANCH   9  10
ATOM     10  C   UNL     1       5.824   5.851  15.626  0.00  0.00    +0.000 C 
ATOM     11  C   UNL     1       5.634   4.653  14.668  0.00  0.00    +0.000 C 
ATOM     12  C   UNL     1       7.048   5.004  14.180  0.00  0.00    +0.000 C 
ATOM     13  N   UNL     1       7.293   5.616  15.509  0.00  0.00    +0.000 NA
ATOM     14  H   UNL     1       7.864   6.458  15.484  0.00  0.00    +0.000 HD
ENDBRANCH   9  10
ENDBRANCH   8   9
ENDBRANCH   6   8
TORSDOF 3
ENDMDL
MODEL 9
REMARK VINA RESULT:      -5.1      3.026      5.450
REMARK  Name = 
REMARK  3 active torsions:
REMARK  status: ('A' for Active; 'I' for Inactive)
REMARK    1  A    between atoms: C_6  and  O_7
REMARK    2  A    between atoms: O_7  and  C_8
REMARK    3  A    between atoms: C_8  and  C_9
REMARK                            x       y       z     vdW  Elec       q    Type
REMARK                         _______ _______ _______ _____ _____    ______ ____
ROOT
ATOM      1  I   UNL     1       1.059   2.884  19.555  0.00  0.00    +0.000 I 
ATOM      2  C   UNL     1       2.962   3.589  19.140  0.00  0.00    +0.000 A 
ATOM      3  C   UNL     1       4.072   3.025  19.753  0.00  0.00    +0.000 A 
ATOM      4  N   UNL     1       5.339   3.436  19.526  0.00  0.00    +0.000 NA
ATOM      5  C   UNL     1       5.489   4.454  18.643  0.00  0.00    +0.000 A 
ATOM      6  C   UNL     1       4.442   5.083  17.974  0.00  0.00    +0.000 A 
ATOM      7  C   UNL     1       3.149   4.637  18.238  0.00  0.00    +0.000 A 
ENDROOT
BRANCH   6   8
ATOM      8  O   UNL     1       4.802   6.076  17.112  0.00  0.00    +0.000 OA
BRANCH   8   9
ATOM      9  C   UNL     1       6.125   6.030  16.570  0.00  0.00    +0.000 C 
BRANCH   9  10
ATOM     10  C   UNL     1       6.013   5.575  15.118  0.00  0.00    +0.000 C 
ATOM     11  C   UNL     1       5.667   4.091  14.861  0.00  0.00    +0.000 C 
ATOM     12  C   UNL     1       6.697   4.197  13.725  0.00  0.00    +0.000 C 
ATOM     13  N   UNL     1       7.335   5.300  14.485  0.00  0.00    +0.000 NA
ATOM     14  H   UNL     1       7.701   6.052  13.904  0.00  0.00    +0.000 HD
ENDBRANCH   9  10
ENDBRANCH   8   9
ENDBRANCH   6   8
TORSDOF 3
ENDMDL
