MODEL 1
REMARK VINA RESULT:      -6.5      0.000      0.000
REMARK  Name = 
REMARK  6 active torsions:
REMARK  status: ('A' for Active; 'I' for Inactive)
REMARK    1  A    between atoms: C_1  and  O_2
REMARK    2  A    between atoms: O_2  and  C_3
REMARK    3  A    between atoms: C_3  and  C_4
REMARK    4  A    between atoms: C_4  and  C_5
REMARK    5  A    between atoms: C_4  and  O_6
REMARK    6  A    between atoms: O_6  and  C_7
REMARK                            x       y       z     vdW  Elec       q    Type
REMARK                         _______ _______ _______ _____ _____    ______ ____
ROOT
ATOM      1  C   UNL     1       3.786   5.269  19.391  0.00  0.00    +0.000 A 
ATOM      2  C   UNL     1       2.659   6.100  19.322  0.00  0.00    +0.000 A 
ATOM      3  C   UNL     1       2.584   7.129  18.393  0.00  0.00    +0.000 A 
ATOM      4  C   UNL     1       3.648   7.354  17.532  0.00  0.00    +0.000 A 
ATOM      5  C   UNL     1       4.796   6.554  17.606  0.00  0.00    +0.000 A 
ATOM      6  C   UNL     1       5.871   6.818  16.756  0.00  0.00    +0.000 A 
ATOM      7  C   UNL     1       7.012   6.034  16.825  0.00  0.00    +0.000 A 
ATOM      8  C   UNL     1       7.041   5.001  17.742  0.00  0.00    +0.000 A 
ATOM      9  N   UNL     1       8.163   4.175  17.822  0.00  0.00    +0.000 N 
ATOM     10  N   UNL     1       6.017   4.719  18.570  0.00  0.00    +0.000 NA
ATOM     11  C   UNL     1       4.893   5.483  18.530  0.00  0.00    +0.000 A 
ATOM     12  H   UNL     1       9.003   4.716  17.990  0.00  0.00    +0.000 HD
ATOM     13  H   UNL     1       7.981   3.517  18.577  0.00  0.00    +0.000 HD
ENDROOT
BRANCH   1  14
ATOM     14  O   UNL     1       3.892   4.213  20.282  0.00  0.00    +0.000 OA
BRANCH  14  15
ATOM     15  C   UNL     1       3.029   3.076  20.120  0.00  0.00    +0.000 C 
ATOM     16  C   UNL     1       2.388   2.708  21.462  0.00  0.00    +0.000 C 
BRANCH  15  17
ATOM     17  C   UNL     1       3.836   1.887  19.573  0.00  0.00    +0.000 C 
BRANCH  17  19
ATOM     18  C   UNL     1       2.396   2.283  17.726  0.00  0.00    +0.000 C 
ATOM     19  O   UNL     1       3.683   1.865  18.148  0.00  0.00    +0.000 OA
ENDBRANCH  17  19
ENDBRANCH  15  17
ENDBRANCH  14  15
ENDBRANCH   1  14
TORSDOF 4
ENDMDL
MODEL 2
REMARK VINA RESULT:      -6.5      2.661      5.077
REMARK  Name = 
REMARK  6 active torsions:
REMARK  status: ('A' for Active; 'I' for Inactive)
REMARK    1  A    between atoms: C_1  and  O_2
REMARK    2  A    between atoms: O_2  and  C_3
REMARK    3  A    between atoms: C_3  and  C_4
REMARK    4  A    between atoms: C_4  and  C_5
REMARK    5  A    between atoms: C_4  and  O_6
REMARK    6  A    between atoms: O_6  and  C_7
REMARK                            x       y       z     vdW  Elec       q    Type
REMARK                         _______ _______ _______ _____ _____    ______ ____
ROOT
ATOM      1  C   UNL     1       3.845   5.295  17.372  0.00  0.00    +0.000 A 
ATOM      2  C   UNL     1       3.947   6.692  17.410  0.00  0.00    +0.000 A 
ATOM      3  C   UNL     1       3.235   7.437  18.342  0.00  0.00    +0.000 A 
ATOM      4  C   UNL     1       2.393   6.791  19.235  0.00  0.00    +0.000 A 
ATOM      5  C   UNL     1       2.254   5.398  19.192  0.00  0.00    +0.000 A 
ATOM      6  C   UNL     1       1.374   4.769  20.075  0.00  0.00    +0.000 A 
ATOM      7  C   UNL     1       1.228   3.392  20.037  0.00  0.00    +0.000 A 
ATOM      8  C   UNL     1       1.973   2.680  19.116  0.00  0.00    +0.000 A 
ATOM      9  N   UNL     1       1.871   1.289  19.066  0.00  0.00    +0.000 N 
ATOM     10  N   UNL     1       2.833   3.259  18.257  0.00  0.00    +0.000 NA
ATOM     11  C   UNL     1       2.984   4.610  18.266  0.00  0.00    +0.000 A 
ATOM     12  H   UNL     1       0.910   0.999  18.926  0.00  0.00    +0.000 HD
ATOM     13  H   UNL     1       2.471   0.985  18.303  0.00  0.00    +0.000 HD
ENDROOT
BRANCH   1  14
ATOM     14  O   UNL     1       4.559   4.510  16.480  0.00  0.00    +0.000 OA
BRANCH  14  15
ATOM     15  C   UNL     1       5.578   5.122  15.674  0.00  0.00    +0.000 C 
ATOM     16  C   UNL     1       5.677   4.409  14.322  0.00  0.00    +0.000 C 
BRANCH  15  17
ATOM     17  C   UNL     1       6.928   5.058  16.408  0.00  0.00    +0.000 C 
BRANCH  17  19
ATOM     18  C   UNL     1       7.519   7.071  17.522  0.00  0.00    +0.000 C 
ATOM     19  O   UNL     1       7.552   6.344  16.305  0.00  0.00    +0.000 OA
ENDBRANCH  17  19
ENDBRANCH  15  17
ENDBRANCH  14  15
ENDBRANCH   1  14
TORSDOF 4
ENDMDL
MODEL 3
REMARK VINA RESULT:      -6.4      2.388      4.667
REMARK  Name = 
REMARK  6 active torsions:
REMARK  status: ('A' for Active; 'I' for Inactive)
REMARK    1  A    between atoms: C_1  and  O_2
REMARK    2  A    between atoms: O_2  and  C_3
REMARK    3  A    between atoms: C_3  and  C_4
REMARK    4  A    between atoms: C_4  and  C_5
REMARK    5  A    between atoms: C_4  and  O_6
REMARK    6  A    between atoms: O_6  and  C_7
REMARK                            x       y       z     vdW  Elec       q    Type
REMARK                         _______ _______ _______ _____ _____    ______ ____
ROOT
ATOM      1  C   UNL     1       3.853   5.635  18.046  0.00  0.00    +0.000 A 
ATOM      2  C   UNL     1       3.317   6.855  18.480  0.00  0.00    +0.000 A 
ATOM      3  C   UNL     1       2.353   6.900  19.479  0.00  0.00    +0.000 A 
ATOM      4  C   UNL     1       1.897   5.718  20.042  0.00  0.00    +0.000 A 
ATOM      5  C   UNL     1       2.397   4.487  19.600  0.00  0.00    +0.000 A 
ATOM      6  C   UNL     1       1.899   3.306  20.155  0.00  0.00    +0.000 A 
ATOM      7  C   UNL     1       2.386   2.083  19.722  0.00  0.00    +0.000 A 
ATOM      8  C   UNL     1       3.365   2.077  18.746  0.00  0.00    +0.000 A 
ATOM      9  N   UNL     1       3.897   0.866  18.304  0.00  0.00    +0.000 N 
ATOM     10  N   UNL     1       3.868   3.200  18.199  0.00  0.00    +0.000 NA
ATOM     11  C   UNL     1       3.396   4.411  18.598  0.00  0.00    +0.000 A 
ATOM     12  H   UNL     1       3.168   0.249  17.965  0.00  0.00    +0.000 HD
ATOM     13  H   UNL     1       4.565   1.096  17.572  0.00  0.00    +0.000 HD
ENDROOT
BRANCH   1  14
ATOM     14  O   UNL     1       4.837   5.545  17.074  0.00  0.00    +0.000 OA
BRANCH  14  15
ATOM     15  C   UNL     1       6.215   5.641  17.467  0.00  0.00    +0.000 C 
ATOM     16  C   UNL     1       6.713   7.078  17.288  0.00  0.00    +0.000 C 
BRANCH  15  17
ATOM     17  C   UNL     1       7.063   4.676  16.622  0.00  0.00    +0.000 C 
BRANCH  17  19
ATOM     18  C   UNL     1       6.906   4.780  14.255  0.00  0.00    +0.000 C 
ATOM     19  O   UNL     1       7.456   5.360  15.426  0.00  0.00    +0.000 OA
ENDBRANCH  17  19
ENDBRANCH  15  17
ENDBRANCH  14  15
ENDBRANCH   1  14
TORSDOF 4
ENDMDL
MODEL 4
REMARK VINA RESULT:      -6.4      2.301      4.746
REMARK  Name = 
REMARK  6 active torsions:
REMARK  status: ('A' for Active; 'I' for Inactive)
REMARK    1  A    between atoms: C_1  and  O_2
REMARK    2  A    between atoms: O_2  and  C_3
REMARK    3  A    between atoms: C_3  and  C_4
REMARK    4  A    between atoms: C_4  and  C_5
REMARK    5  A    between atoms: C_4  and  O_6
REMARK    6  A    between atoms: O_6  and  C_7
REMARK                            x       y       z     vdW  Elec       q    Type
REMARK                         _______ _______ _______ _____ _____    ______ ____
ROOT
ATOM      1  C   UNL     1       4.573   5.464  18.674  0.00  0.00    +0.000 A 
ATOM      2  C   UNL     1       4.021   6.742  18.508  0.00  0.00    +0.000 A 
ATOM      3  C   UNL     1       2.682   6.907  18.178  0.00  0.00    +0.000 A 
ATOM      4  C   UNL     1       1.882   5.791  17.988  0.00  0.00    +0.000 A 
ATOM      5  C   UNL     1       2.422   4.505  18.117  0.00  0.00    +0.000 A 
ATOM      6  C   UNL     1       1.609   3.394  17.886  0.00  0.00    +0.000 A 
ATOM      7  C   UNL     1       2.136   2.118  18.009  0.00  0.00    +0.000 A 
ATOM      8  C   UNL     1       3.464   1.990  18.367  0.00  0.00    +0.000 A 
ATOM      9  N   UNL     1       4.022   0.721  18.525  0.00  0.00    +0.000 N 
ATOM     10  N   UNL     1       4.270   3.044  18.602  0.00  0.00    +0.000 NA
ATOM     11  C   UNL     1       3.779   4.305  18.474  0.00  0.00    +0.000 A 
ATOM     12  H   UNL     1       3.910   0.166  17.685  0.00  0.00    +0.000 HD
ATOM     13  H   UNL     1       5.004   0.866  18.752  0.00  0.00    +0.000 HD
ENDROOT
BRANCH   1  14
ATOM     14  O   UNL     1       5.895   5.252  19.032  0.00  0.00    +0.000 OA
BRANCH  14  15
ATOM     15  C   UNL     1       6.936   5.697  18.150  0.00  0.00    +0.000 C 
ATOM     16  C   UNL     1       7.377   4.549  17.237  0.00  0.00    +0.000 C 
BRANCH  15  17
ATOM     17  C   UNL     1       8.129   6.211  18.972  0.00  0.00    +0.000 C 
BRANCH  17  19
ATOM     18  C   UNL     1       7.613   7.994  17.490  0.00  0.00    +0.000 C 
ATOM     19  O   UNL     1       8.336   7.590  18.642  0.00  0.00    +0.000 OA
ENDBRANCH  17  19
ENDBRANCH  15  17
ENDBRANCH  14  15
ENDBRANCH   1  14
TORSDOF 4
ENDMDL
MODEL 5
REMARK VINA RESULT:      -6.3      2.413      4.888
REMARK  Name = 
REMARK  6 active torsions:
REMARK  status: ('A' for Active; 'I' for Inactive)
REMARK    1  A    between atoms: C_1  and  O_2
REMARK    2  A    between atoms: O_2  and  C_3
REMARK    3  A    between atoms: C_3  and  C_4
REMARK    4  A    between atoms: C_4  and  C_5
REMARK    5  A    between atoms: C_4  and  O_6
REMARK    6  A    between atoms: O_6  and  C_7
REMARK                            x       y       z     vdW  Elec       q    Type
REMARK                         _______ _______ _______ _____ _____    ______ ____
ROOT
ATOM      1  C   UNL     1       4.025   5.713  17.619  0.00  0.00    +0.000 A 
ATOM      2  C   UNL     1       3.851   7.007  17.110  0.00  0.00    +0.000 A 
ATOM      3  C   UNL     1       3.038   7.929  17.757  0.00  0.00    +0.000 A 
ATOM      4  C   UNL     1       2.371   7.559  18.914  0.00  0.00    +0.000 A 
ATOM      5  C   UNL     1       2.507   6.260  19.422  0.00  0.00    +0.000 A 
ATOM      6  C   UNL     1       1.798   5.895  20.569  0.00  0.00    +0.000 A 
ATOM      7  C   UNL     1       1.925   4.612  21.077  0.00  0.00    +0.000 A 
ATOM      8  C   UNL     1       2.765   3.729  20.423  0.00  0.00    +0.000 A 
ATOM      9  N   UNL     1       2.936   2.437  20.920  0.00  0.00    +0.000 N 
ATOM     10  N   UNL     1       3.465   4.056  19.320  0.00  0.00    +0.000 NA
ATOM     11  C   UNL     1       3.346   5.305  18.795  0.00  0.00    +0.000 A 
ATOM     12  H   UNL     1       2.047   1.958  21.006  0.00  0.00    +0.000 HD
ATOM     13  H   UNL     1       3.559   1.961  20.272  0.00  0.00    +0.000 HD
ENDROOT
BRANCH   1  14
ATOM     14  O   UNL     1       4.850   4.772  17.024  0.00  0.00    +0.000 OA
BRANCH  14  15
ATOM     15  C   UNL     1       5.807   5.203  16.044  0.00  0.00    +0.000 C 
ATOM     16  C   UNL     1       5.920   4.161  14.926  0.00  0.00    +0.000 C 
BRANCH  15  17
ATOM     17  C   UNL     1       7.174   5.415  16.713  0.00  0.00    +0.000 C 
BRANCH  17  19
ATOM     18  C   UNL     1       7.611   7.574  17.601  0.00  0.00    +0.000 C 
ATOM     19  O   UNL     1       7.598   6.757  16.442  0.00  0.00    +0.000 OA
ENDBRANCH  17  19
ENDBRANCH  15  17
ENDBRANCH  14  15
ENDBRANCH   1  14
TORSDOF 4
ENDMDL
MODEL 6
REMARK VINA RESULT:      -6.3      2.258      4.827
REMARK  Name = 
REMARK  6 active torsions:
REMARK  status: ('A' for Active; 'I' for Inactive)
REMARK    1  A    between atoms: C_1  and  O_2
REMARK    2  A    between atoms: O_2  and  C_3
REMARK    3  A    between atoms: C_3  and  C_4
REMARK    4  A    between atoms: C_4  and  C_5
REMARK    5  A    between atoms: C_4  and  O_6
REMARK    6  A    between atoms: O_6  and  C_7
REMARK                            x       y       z     vdW  Elec       q    Type
REMARK                         _______ _______ _______ _____ _____    ______ ____
ROOT
ATOM      1  C   UNL     1       4.318   5.382  17.113  0.00  0.00    +0.000 A 
ATOM      2  C   UNL     1       4.296   6.783  17.090  0.00  0.00    +0.000 A 
ATOM      3  C   UNL     1       3.375   7.498  17.845  0.00  0.00    +0.000 A 
ATOM      4  C   UNL     1       2.448   6.816  18.618  0.00  0.00    +0.000 A 
ATOM      5  C   UNL     1       2.432   5.415  18.630  0.00  0.00    +0.000 A 
ATOM      6  C   UNL     1       1.468   4.746  19.386  0.00  0.00    +0.000 A 
ATOM      7  C   UNL     1       1.444   3.361  19.401  0.00  0.00    +0.000 A 
ATOM      8  C   UNL     1       2.393   2.682  18.661  0.00  0.00    +0.000 A 
ATOM      9  N   UNL     1       2.415   1.287  18.672  0.00  0.00    +0.000 N 
ATOM     10  N   UNL     1       3.338   3.300  17.927  0.00  0.00    +0.000 NA
ATOM     11  C   UNL     1       3.373   4.659  17.886  0.00  0.00    +0.000 A 
ATOM     12  H   UNL     1       1.520   0.905  18.388  0.00  0.00    +0.000 HD
ATOM     13  H   UNL     1       3.162   1.007  18.039  0.00  0.00    +0.000 HD
ENDROOT
BRANCH   1  14
ATOM     14  O   UNL     1       5.237   4.629  16.400  0.00  0.00    +0.000 OA
BRANCH  14  15
ATOM     15  C   UNL     1       6.576   5.125  16.247  0.00  0.00    +0.000 C 
ATOM     16  C   UNL     1       7.052   4.918  14.806  0.00  0.00    +0.000 C 
BRANCH  15  17
ATOM     17  C   UNL     1       7.513   4.398  17.226  0.00  0.00    +0.000 C 
BRANCH  17  19
ATOM     18  C   UNL     1       7.762   6.195  18.759  0.00  0.00    +0.000 C 
ATOM     19  O   UNL     1       7.247   4.891  18.545  0.00  0.00    +0.000 OA
ENDBRANCH  17  19
ENDBRANCH  15  17
ENDBRANCH  14  15
ENDBRANCH   1  14
TORSDOF 4
ENDMDL
MODEL 7
REMARK VINA RESULT:      -6.3      2.235      4.476
REMARK  Name = 
REMARK  6 active torsions:
REMARK  status: ('A' for Active; 'I' for Inactive)
REMARK    1  A    between atoms: C_1  and  O_2
REMARK    2  A    between atoms: O_2  and  C_3
REMARK    3  A    between atoms: C_3  and  C_4
REMARK    4  A    between atoms: C_4  and  C_5
REMARK    5  A    between atoms: C_4  and  O_6
REMARK    6  A    between atoms: O_6  and  C_7
REMARK                            x       y       z     vdW  Elec       q    Type
REMARK                         _______ _______ _______ _____ _____    ______ ____
ROOT
ATOM      1  C   UNL     1       5.097   5.631  18.650  0.00  0.00    +0.000 A 
ATOM      2  C   UNL     1       4.397   6.668  18.019  0.00  0.00    +0.000 A 
ATOM      3  C   UNL     1       3.059   6.523  17.674  0.00  0.00    +0.000 A 
ATOM      4  C   UNL     1       2.410   5.327  17.939  0.00  0.00    +0.000 A 
ATOM      5  C   UNL     1       3.101   4.267  18.541  0.00  0.00    +0.000 A 
ATOM      6  C   UNL     1       2.440   3.058  18.767  0.00  0.00    +0.000 A 
ATOM      7  C   UNL     1       3.117   2.004  19.359  0.00  0.00    +0.000 A 
ATOM      8  C   UNL     1       4.439   2.192  19.714  0.00  0.00    +0.000 A 
ATOM      9  N   UNL     1       5.144   1.162  20.336  0.00  0.00    +0.000 N 
ATOM     10  N   UNL     1       5.099   3.349  19.515  0.00  0.00    +0.000 NA
ATOM     11  C   UNL     1       4.460   4.393  18.923  0.00  0.00    +0.000 A 
ATOM     12  H   UNL     1       5.128   0.318  19.774  0.00  0.00    +0.000 HD
ATOM     13  H   UNL     1       6.093   1.505  20.472  0.00  0.00    +0.000 HD
ENDROOT
BRANCH   1  14
ATOM     14  O   UNL     1       6.423   5.742  19.039  0.00  0.00    +0.000 OA
BRANCH  14  15
ATOM     15  C   UNL     1       7.440   5.831  18.029  0.00  0.00    +0.000 C 
ATOM     16  C   UNL     1       7.521   7.263  17.492  0.00  0.00    +0.000 C 
BRANCH  15  17
ATOM     17  C   UNL     1       7.124   4.852  16.887  0.00  0.00    +0.000 C 
BRANCH  17  19
ATOM     18  C   UNL     1       6.828   4.855  14.530  0.00  0.00    +0.000 C 
ATOM     19  O   UNL     1       7.408   5.511  15.646  0.00  0.00    +0.000 OA
ENDBRANCH  17  19
ENDBRANCH  15  17
ENDBRANCH  14  15
ENDBRANCH   1  14
TORSDOF 4
ENDMDL
MODEL 8
REMARK VINA RESULT:      -6.3      2.303      4.472
REMARK  Name = 
REMARK  6 active torsions:
REMARK  status: ('A' for Active; 'I' for Inactive)
REMARK    1  A    between atoms: C_1  and  O_2
REMARK    2  A    between atoms: O_2  and  C_3
REMARK    3  A    between atoms: C_3  and  C_4
REMARK    4  A    between atoms: C_4  and  C_5
REMARK    5  A    between atoms: C_4  and  O_6
REMARK    6  A    between atoms: O_6  and  C_7
REMARK                            x       y       z     vdW  Elec       q    Type
REMARK                         _______ _______ _______ _____ _____    ______ ____
ROOT
ATOM      1  C   UNL     1       4.830   5.386  18.500  0.00  0.00    +0.000 A 
ATOM      2  C   UNL     1       4.349   6.689  18.310  0.00  0.00    +0.000 A 
ATOM      3  C   UNL     1       3.007   6.925  18.039  0.00  0.00    +0.000 A 
ATOM      4  C   UNL     1       2.132   5.855  17.933  0.00  0.00    +0.000 A 
ATOM      5  C   UNL     1       2.600   4.543  18.088  0.00  0.00    +0.000 A 
ATOM      6  C   UNL     1       1.710   3.477  17.942  0.00  0.00    +0.000 A 
ATOM      7  C   UNL     1       2.165   2.176  18.091  0.00  0.00    +0.000 A 
ATOM      8  C   UNL     1       3.500   1.979  18.388  0.00  0.00    +0.000 A 
ATOM      9  N   UNL     1       3.988   0.685  18.570  0.00  0.00    +0.000 N 
ATOM     10  N   UNL     1       4.378   2.989  18.541  0.00  0.00    +0.000 NA
ATOM     11  C   UNL     1       3.959   4.273  18.386  0.00  0.00    +0.000 A 
ATOM     12  H   UNL     1       3.798   0.106  17.759  0.00  0.00    +0.000 HD
ATOM     13  H   UNL     1       4.986   0.776  18.742  0.00  0.00    +0.000 HD
ENDROOT
BRANCH   1  14
ATOM     14  O   UNL     1       6.154   5.106  18.801  0.00  0.00    +0.000 OA
BRANCH  14  15
ATOM     15  C   UNL     1       7.149   5.257  17.777  0.00  0.00    +0.000 C 
ATOM     16  C   UNL     1       7.413   6.742  17.516  0.00  0.00    +0.000 C 
BRANCH  15  17
ATOM     17  C   UNL     1       6.675   4.566  16.488  0.00  0.00    +0.000 C 
BRANCH  17  19
ATOM     18  C   UNL     1       7.002   4.842  14.152  0.00  0.00    +0.000 C 
ATOM     19  O   UNL     1       7.592   4.903  15.440  0.00  0.00    +0.000 OA
ENDBRANCH  17  19
ENDBRANCH  15  17
ENDBRANCH  14  15
ENDBRANCH   1  14
TORSDOF 4
ENDMDL
MODEL 9
REMARK VINA RESULT:      -6.1      1.788      2.332
REMARK  Name = 
REMARK  6 active torsions:
REMARK  status: ('A' for Active; 'I' for Inactive)
REMARK    1  A    between atoms: C_1  and  O_2
REMARK    2  A    between atoms: O_2  and  C_3
REMARK    3  A    between atoms: C_3  and  C_4
REMARK    4  A    between atoms: C_4  and  C_5
REMARK    5  A    between atoms: C_4  and  O_6
REMARK    6  A    between atoms: O_6  and  C_7
REMARK                            x       y       z     vdW  Elec       q    Type
REMARK                         _______ _______ _______ _____ _____    ______ ____
ROOT
ATOM      1  C   UNL     1       2.728   4.773  17.922  0.00  0.00    +0.000 A 
ATOM      2  C   UNL     1       2.069   5.823  18.574  0.00  0.00    +0.000 A 
ATOM      3  C   UNL     1       2.530   7.130  18.476  0.00  0.00    +0.000 A 
ATOM      4  C   UNL     1       3.674   7.398  17.740  0.00  0.00    +0.000 A 
ATOM      5  C   UNL     1       4.365   6.357  17.106  0.00  0.00    +0.000 A 
ATOM      6  C   UNL     1       5.535   6.642  16.399  0.00  0.00    +0.000 A 
ATOM      7  C   UNL     1       6.227   5.617  15.772  0.00  0.00    +0.000 A 
ATOM      8  C   UNL     1       5.723   4.334  15.866  0.00  0.00    +0.000 A 
ATOM      9  N   UNL     1       6.379   3.282  15.226  0.00  0.00    +0.000 N 
ATOM     10  N   UNL     1       4.594   4.031  16.535  0.00  0.00    +0.000 NA
ATOM     11  C   UNL     1       3.906   5.017  17.170  0.00  0.00    +0.000 A 
ATOM     12  H   UNL     1       7.346   3.220  15.523  0.00  0.00    +0.000 HD
ATOM     13  H   UNL     1       5.860   2.437  15.457  0.00  0.00    +0.000 HD
ENDROOT
BRANCH   1  14
ATOM     14  O   UNL     1       2.286   3.460  17.967  0.00  0.00    +0.000 OA
BRANCH  14  15
ATOM     15  C   UNL     1       2.626   2.648  19.101  0.00  0.00    +0.000 C 
ATOM     16  C   UNL     1       3.471   1.450  18.655  0.00  0.00    +0.000 C 
BRANCH  15  17
ATOM     17  C   UNL     1       1.344   2.164  19.797  0.00  0.00    +0.000 C 
BRANCH  17  19
ATOM     18  C   UNL     1       2.162   3.470  21.604  0.00  0.00    +0.000 C 
ATOM     19  O   UNL     1       1.028   3.092  20.842  0.00  0.00    +0.000 OA
ENDBRANCH  17  19
ENDBRANCH  15  17
ENDBRANCH  14  15
ENDBRANCH   1  14
TORSDOF 4
ENDMDL
