MODEL 1
REMARK VINA RESULT:      -7.4      0.000      0.000
REMARK  Name = 
REMARK  8 active torsions:
REMARK  status: ('A' for Active; 'I' for Inactive)
REMARK    1  A    between atoms: C_1  and  C_2
REMARK    2  A    between atoms: C_2  and  N_3
REMARK    3  A    between atoms: N_6  and  C_7
REMARK    4  A    between atoms: C_7  and  C_8
REMARK    5  A    between atoms: C_7  and  C_20
REMARK    6  A    between atoms: C_8  and  N_9
REMARK    7  A    between atoms: N_9  and  S_10
REMARK    8  A    between atoms: S_10  and  C_13
REMARK                            x       y       z     vdW  Elec       q    Type
REMARK                         _______ _______ _______ _____ _____    ______ ____
ROOT
ATOM      1  C   UNL     1       3.007   5.801  18.632  0.00  0.00    +0.000 C 
ENDROOT
BRANCH   1   5
ATOM      2  N   UNL     1       6.690   5.336  18.037  0.00  0.00    +0.000 NA
ATOM      3  C   UNL     1       5.971   6.460  17.384  0.00  0.00    +0.000 C 
ATOM      4  C   UNL     1       4.603   6.135  16.704  0.00  0.00    +0.000 C 
ATOM      5  N   UNL     1       3.697   5.208  17.436  0.00  0.00    +0.000 NA
ATOM      6  C   UNL     1       4.542   4.049  17.811  0.00  0.00    +0.000 C 
ATOM      7  C   UNL     1       5.725   4.454  18.713  0.00  0.00    +0.000 C 
BRANCH   2   9
ATOM      8  C   UNL     1       7.306   4.935  15.644  0.00  0.00    +0.000 C 
ATOM      9  C   UNL     1       7.576   4.605  17.117  0.00  0.00    +0.000 C 
ENDBRANCH   2   9
ENDBRANCH   1   5
BRANCH   1  10
ATOM     10  C   UNL     1       2.330   4.719  19.506  0.00  0.00    +0.000 A 
ATOM     11  C   UNL     1       2.707   4.560  20.854  0.00  0.00    +0.000 A 
ATOM     12  C   UNL     1       2.108   3.586  21.664  0.00  0.00    +0.000 A 
ATOM     13  C   UNL     1       1.120   2.756  21.142  0.00  0.00    +0.000 A 
ATOM     14  C   UNL     1       0.746   2.887  19.807  0.00  0.00    +0.000 A 
ATOM     15  C   UNL     1       1.350   3.853  18.992  0.00  0.00    +0.000 A 
ENDBRANCH   1  10
BRANCH   1  16
ATOM     16  C   UNL     1       1.976   6.916  18.255  0.00  0.00    +0.000 C 
BRANCH  16  17
ATOM     17  N   UNL     1       2.369   8.252  18.767  0.00  0.00    +0.000 NA
ATOM     18  H   UNL     1       3.362   8.481  18.730  0.00  0.00    +0.000 HD
BRANCH  17  19
ATOM     19  S   UNL     1       1.456   9.571  18.233  0.00  0.00    +0.000 S 
ATOM     20  O   UNL     1       2.391  10.619  17.908  0.00  0.00    +0.000 OA
ATOM     21  O   UNL     1       0.522   9.070  17.260  0.00  0.00    +0.000 OA
BRANCH  19  22
ATOM     22  C   UNL     1       0.567  10.058  19.688  0.00  0.00    +0.000 A 
ATOM     23  C   UNL     1      -0.315  11.140  19.625  0.00  0.00    +0.000 A 
ATOM     24  C   UNL     1      -1.001  11.534  20.777  0.00  0.00    +0.000 A 
ATOM     25  C   UNL     1      -0.801  10.848  21.976  0.00  0.00    +0.000 A 
ATOM     26 CL   UNL     1      -1.641  11.344  23.393  0.00  0.00    +0.000 Cl
ATOM     27  C   UNL     1       0.077   9.765  22.037  0.00  0.00    +0.000 A 
ATOM     28  C   UNL     1       0.765   9.365  20.887  0.00  0.00    +0.000 A 
ENDBRANCH  19  22
ENDBRANCH  17  19
ENDBRANCH  16  17
ENDBRANCH   1  16
TORSDOF 7
ENDMDL
MODEL 2
REMARK VINA RESULT:      -7.4      0.241      1.330
REMARK  Name = 
REMARK  8 active torsions:
REMARK  status: ('A' for Active; 'I' for Inactive)
REMARK    1  A    between atoms: C_1  and  C_2
REMARK    2  A    between atoms: C_2  and  N_3
REMARK    3  A    between atoms: N_6  and  C_7
REMARK    4  A    between atoms: C_7  and  C_8
REMARK    5  A    between atoms: C_7  and  C_20
REMARK    6  A    between atoms: C_8  and  N_9
REMARK    7  A    between atoms: N_9  and  S_10
REMARK    8  A    between atoms: S_10  and  C_13
REMARK                            x       y       z     vdW  Elec       q    Type
REMARK                         _______ _______ _______ _____ _____    ______ ____
ROOT
ATOM      1  C   UNL     1       3.020   5.905  18.495  0.00  0.00    +0.000 C 
ENDROOT
BRANCH   1   5
ATOM      2  N   UNL     1       6.703   5.331  18.009  0.00  0.00    +0.000 NA
ATOM      3  C   UNL     1       6.043   6.492  17.360  0.00  0.00    +0.000 C 
ATOM      4  C   UNL     1       4.689   6.228  16.628  0.00  0.00    +0.000 C 
ATOM      5  N   UNL     1       3.730   5.316  17.309  0.00  0.00    +0.000 NA
ATOM      6  C   UNL     1       4.524   4.121  17.684  0.00  0.00    +0.000 C 
ATOM      7  C   UNL     1       5.688   4.467  18.633  0.00  0.00    +0.000 C 
BRANCH   2   9
ATOM      8  C   UNL     1       7.280   4.843  15.622  0.00  0.00    +0.000 C 
ATOM      9  C   UNL     1       7.595   4.592  17.102  0.00  0.00    +0.000 C 
ENDBRANCH   2   9
ENDBRANCH   1   5
BRANCH   1  10
ATOM     10  C   UNL     1       2.360   4.817  19.374  0.00  0.00    +0.000 A 
ATOM     11  C   UNL     1       1.405   3.942  18.819  0.00  0.00    +0.000 A 
ATOM     12  C   UNL     1       0.793   2.949  19.596  0.00  0.00    +0.000 A 
ATOM     13  C   UNL     1       1.126   2.812  20.940  0.00  0.00    +0.000 A 
ATOM     14  C   UNL     1       2.056   3.677  21.511  0.00  0.00    +0.000 A 
ATOM     15  C   UNL     1       2.662   4.678  20.739  0.00  0.00    +0.000 A 
ENDBRANCH   1  10
BRANCH   1  16
ATOM     16  C   UNL     1       1.969   6.996  18.102  0.00  0.00    +0.000 C 
BRANCH  16  17
ATOM     17  N   UNL     1       2.083   8.221  18.929  0.00  0.00    +0.000 NA
ATOM     18  H   UNL     1       3.016   8.457  19.269  0.00  0.00    +0.000 HD
BRANCH  17  19
ATOM     19  S   UNL     1       1.319   9.610  18.341  0.00  0.00    +0.000 S 
ATOM     20  O   UNL     1       2.362  10.548  18.005  0.00  0.00    +0.000 OA
ATOM     21  O   UNL     1       0.354   9.179  17.365  0.00  0.00    +0.000 OA
BRANCH  19  22
ATOM     22  C   UNL     1       0.462  10.229  19.765  0.00  0.00    +0.000 A 
ATOM     23  C   UNL     1       0.421   9.461  20.931  0.00  0.00    +0.000 A 
ATOM     24  C   UNL     1      -0.270   9.942  22.046  0.00  0.00    +0.000 A 
ATOM     25  C   UNL     1      -0.912  11.181  21.987  0.00  0.00    +0.000 A 
ATOM     26 CL   UNL     1      -1.769  11.763  23.360  0.00  0.00    +0.000 Cl
ATOM     27  C   UNL     1      -0.868  11.949  20.823  0.00  0.00    +0.000 A 
ATOM     28  C   UNL     1      -0.176  11.473  19.705  0.00  0.00    +0.000 A 
ENDBRANCH  19  22
ENDBRANCH  17  19
ENDBRANCH  16  17
ENDBRANCH   1  16
TORSDOF 7
ENDMDL
MODEL 3
REMARK VINA RESULT:      -7.0      4.174      7.593
REMARK  Name = 
REMARK  8 active torsions:
REMARK  status: ('A' for Active; 'I' for Inactive)
REMARK    1  A    between atoms: C_1  and  C_2
REMARK    2  A    between atoms: C_2  and  N_3
REMARK    3  A    between atoms: N_6  and  C_7
REMARK    4  A    between atoms: C_7  and  C_8
REMARK    5  A    between atoms: C_7  and  C_20
REMARK    6  A    between atoms: C_8  and  N_9
REMARK    7  A    between atoms: N_9  and  S_10
REMARK    8  A    between atoms: S_10  and  C_13
REMARK                            x       y       z     vdW  Elec       q    Type
REMARK                         _______ _______ _______ _____ _____    ______ ____
ROOT
ATOM      1  C   UNL     1       2.996   6.344  18.789  0.00  0.00    +0.000 C 
ENDROOT
BRANCH   1   5
ATOM      2  N   UNL     1       3.056   3.085  20.662  0.00  0.00    +0.000 NA
ATOM      3  C   UNL     1       3.460   3.125  19.234  0.00  0.00    +0.000 C 
ATOM      4  C   UNL     1       2.540   3.919  18.252  0.00  0.00    +0.000 C 
ATOM      5  N   UNL     1       2.002   5.217  18.744  0.00  0.00    +0.000 NA
ATOM      6  C   UNL     1       1.443   4.925  20.086  0.00  0.00    +0.000 C 
ATOM      7  C   UNL     1       2.511   4.392  21.062  0.00  0.00    +0.000 C 
BRANCH   2   9
ATOM      8  C   UNL     1       1.213   2.278  22.154  0.00  0.00    +0.000 C 
ATOM      9  C   UNL     1       2.143   1.973  20.973  0.00  0.00    +0.000 C 
ENDBRANCH   2   9
ENDBRANCH   1   5
BRANCH   1  10
ATOM     10  C   UNL     1       2.302   7.723  18.871  0.00  0.00    +0.000 A 
ATOM     11  C   UNL     1       2.302   8.583  17.755  0.00  0.00    +0.000 A 
ATOM     12  C   UNL     1       1.680   9.838  17.806  0.00  0.00    +0.000 A 
ATOM     13  C   UNL     1       1.045  10.255  18.972  0.00  0.00    +0.000 A 
ATOM     14  C   UNL     1       1.048   9.426  20.091  0.00  0.00    +0.000 A 
ATOM     15  C   UNL     1       1.678   8.175  20.047  0.00  0.00    +0.000 A 
ENDBRANCH   1  10
BRANCH   1  16
ATOM     16  C   UNL     1       4.009   6.317  17.597  0.00  0.00    +0.000 C 
BRANCH  16  17
ATOM     17  N   UNL     1       5.355   6.807  17.983  0.00  0.00    +0.000 NA
ATOM     18  H   UNL     1       5.410   7.367  18.834  0.00  0.00    +0.000 HD
BRANCH  17  19
ATOM     19  S   UNL     1       6.612   5.677  17.958  0.00  0.00    +0.000 S 
ATOM     20  O   UNL     1       7.843   6.424  18.029  0.00  0.00    +0.000 OA
ATOM     21  O   UNL     1       6.290   4.667  18.929  0.00  0.00    +0.000 OA
BRANCH  19  22
ATOM     22  C   UNL     1       6.488   4.976  16.333  0.00  0.00    +0.000 A 
ATOM     23  C   UNL     1       7.231   5.530  15.287  0.00  0.00    +0.000 A 
ATOM     24  C   UNL     1       7.118   4.987  14.004  0.00  0.00    +0.000 A 
ATOM     25  C   UNL     1       6.268   3.902  13.779  0.00  0.00    +0.000 A 
ATOM     26 CL   UNL     1       6.127   3.245  12.195  0.00  0.00    +0.000 Cl
ATOM     27  C   UNL     1       5.530   3.348  14.825  0.00  0.00    +0.000 A 
ATOM     28  C   UNL     1       5.641   3.885  16.111  0.00  0.00    +0.000 A 
ENDBRANCH  19  22
ENDBRANCH  17  19
ENDBRANCH  16  17
ENDBRANCH   1  16
TORSDOF 7
ENDMDL
MODEL 4
REMARK VINA RESULT:      -6.9      2.252      4.684
REMARK  Name = 
REMARK  8 active torsions:
REMARK  status: ('A' for Active; 'I' for Inactive)
REMARK    1  A    between atoms: C_1  and  C_2
REMARK    2  A    between atoms: C_2  and  N_3
REMARK    3  A    between atoms: N_6  and  C_7
REMARK    4  A    between atoms: C_7  and  C_8
REMARK    5  A    between atoms: C_7  and  C_20
REMARK    6  A    between atoms: C_8  and  N_9
REMARK    7  A    between atoms: N_9  and  S_10
REMARK    8  A    between atoms: S_10  and  C_13
REMARK                            x       y       z     vdW  Elec       q    Type
REMARK                         _______ _______ _______ _____ _____    ______ ____
ROOT
ATOM      1  C   UNL     1       3.333   6.583  17.953  0.00  0.00    +0.000 C 
ENDROOT
BRANCH   1   5
ATOM      2  N   UNL     1       2.480   3.346  19.663  0.00  0.00    +0.000 NA
ATOM      3  C   UNL     1       1.518   4.476  19.697  0.00  0.00    +0.000 C 
ATOM      4  C   UNL     1       2.088   5.890  20.038  0.00  0.00    +0.000 C 
ATOM      5  N   UNL     1       3.392   6.251  19.418  0.00  0.00    +0.000 NA
ATOM      6  C   UNL     1       4.284   5.096  19.682  0.00  0.00    +0.000 C 
ATOM      7  C   UNL     1       3.749   3.790  19.063  0.00  0.00    +0.000 C 
BRANCH   2   9
ATOM      8  C   UNL     1       1.385   2.686  21.816  0.00  0.00    +0.000 C 
ATOM      9  C   UNL     1       2.668   2.707  20.975  0.00  0.00    +0.000 C 
ENDBRANCH   2   9
ENDBRANCH   1   5
BRANCH   1  10
ATOM     10  C   UNL     1       4.628   6.174  17.214  0.00  0.00    +0.000 A 
ATOM     11  C   UNL     1       5.849   6.806  17.522  0.00  0.00    +0.000 A 
ATOM     12  C   UNL     1       7.035   6.452  16.866  0.00  0.00    +0.000 A 
ATOM     13  C   UNL     1       7.023   5.459  15.891  0.00  0.00    +0.000 A 
ATOM     14  C   UNL     1       5.823   4.834  15.560  0.00  0.00    +0.000 A 
ATOM     15  C   UNL     1       4.633   5.192  16.208  0.00  0.00    +0.000 A 
ENDBRANCH   1  10
BRANCH   1  16
ATOM     16  C   UNL     1       3.005   8.089  17.678  0.00  0.00    +0.000 C 
BRANCH  16  17
ATOM     17  N   UNL     1       1.573   8.408  17.894  0.00  0.00    +0.000 NA
ATOM     18  H   UNL     1       0.971   7.635  18.180  0.00  0.00    +0.000 HD
BRANCH  17  19
ATOM     19  S   UNL     1       1.230   9.776  18.827  0.00  0.00    +0.000 S 
ATOM     20  O   UNL     1       1.169   9.338  20.200  0.00  0.00    +0.000 OA
ATOM     21  O   UNL     1       2.138  10.809  18.408  0.00  0.00    +0.000 OA
BRANCH  19  22
ATOM     22  C   UNL     1      -0.412  10.209  18.315  0.00  0.00    +0.000 A 
ATOM     23  C   UNL     1      -1.121  11.180  19.026  0.00  0.00    +0.000 A 
ATOM     24  C   UNL     1      -2.421  11.507  18.632  0.00  0.00    +0.000 A 
ATOM     25  C   UNL     1      -2.999  10.863  17.536  0.00  0.00    +0.000 A 
ATOM     26 CL   UNL     1      -4.604  11.263  17.061  0.00  0.00    +0.000 Cl
ATOM     27  C   UNL     1      -2.289   9.896  16.824  0.00  0.00    +0.000 A 
ATOM     28  C   UNL     1      -0.987   9.566  17.213  0.00  0.00    +0.000 A 
ENDBRANCH  19  22
ENDBRANCH  17  19
ENDBRANCH  16  17
ENDBRANCH   1  16
TORSDOF 7
ENDMDL
MODEL 5
REMARK VINA RESULT:      -6.9      2.261      4.766
REMARK  Name = 
REMARK  8 active torsions:
REMARK  status: ('A' for Active; 'I' for Inactive)
REMARK    1  A    between atoms: C_1  and  C_2
REMARK    2  A    between atoms: C_2  and  N_3
REMARK    3  A    between atoms: N_6  and  C_7
REMARK    4  A    between atoms: C_7  and  C_8
REMARK    5  A    between atoms: C_7  and  C_20
REMARK    6  A    between atoms: C_8  and  N_9
REMARK    7  A    between atoms: N_9  and  S_10
REMARK    8  A    between atoms: S_10  and  C_13
REMARK                            x       y       z     vdW  Elec       q    Type
REMARK                         _______ _______ _______ _____ _____    ______ ____
ROOT
ATOM      1  C   UNL     1       3.318   6.614  17.946  0.00  0.00    +0.000 C 
ENDROOT
BRANCH   1   5
ATOM      2  N   UNL     1       2.491   3.395  19.703  0.00  0.00    +0.000 NA
ATOM      3  C   UNL     1       1.523   4.522  19.728  0.00  0.00    +0.000 C 
ATOM      4  C   UNL     1       2.087   5.943  20.046  0.00  0.00    +0.000 C 
ATOM      5  N   UNL     1       3.387   6.302  19.415  0.00  0.00    +0.000 NA
ATOM      6  C   UNL     1       4.286   5.155  19.689  0.00  0.00    +0.000 C 
ATOM      7  C   UNL     1       3.754   3.838  19.091  0.00  0.00    +0.000 C 
BRANCH   2   9
ATOM      8  C   UNL     1       1.374   2.562  21.784  0.00  0.00    +0.000 C 
ATOM      9  C   UNL     1       2.688   2.775  21.023  0.00  0.00    +0.000 C 
ENDBRANCH   2   9
ENDBRANCH   1   5
BRANCH   1  10
ATOM     10  C   UNL     1       4.599   6.173  17.200  0.00  0.00    +0.000 A 
ATOM     11  C   UNL     1       4.547   5.117  16.268  0.00  0.00    +0.000 A 
ATOM     12  C   UNL     1       5.694   4.700  15.581  0.00  0.00    +0.000 A 
ATOM     13  C   UNL     1       6.914   5.330  15.811  0.00  0.00    +0.000 A 
ATOM     14  C   UNL     1       6.989   6.365  16.741  0.00  0.00    +0.000 A 
ATOM     15  C   UNL     1       5.845   6.778  17.437  0.00  0.00    +0.000 A 
ENDBRANCH   1  10
BRANCH   1  16
ATOM     16  C   UNL     1       3.012   8.121  17.653  0.00  0.00    +0.000 C 
BRANCH  16  17
ATOM     17  N   UNL     1       1.582   8.460  17.851  0.00  0.00    +0.000 NA
ATOM     18  H   UNL     1       0.966   7.696  18.131  0.00  0.00    +0.000 HD
BRANCH  17  19
ATOM     19  S   UNL     1       1.248   9.835  18.777  0.00  0.00    +0.000 S 
ATOM     20  O   UNL     1       1.222   9.412  20.155  0.00  0.00    +0.000 OA
ATOM     21  O   UNL     1       2.136  10.872  18.327  0.00  0.00    +0.000 OA
BRANCH  19  22
ATOM     22  C   UNL     1      -0.410  10.247  18.298  0.00  0.00    +0.000 A 
ATOM     23  C   UNL     1      -1.016   9.549  17.251  0.00  0.00    +0.000 A 
ATOM     24  C   UNL     1      -2.315   9.887  16.863  0.00  0.00    +0.000 A 
ATOM     25  C   UNL     1      -2.994  10.915  17.521  0.00  0.00    +0.000 A 
ATOM     26 CL   UNL     1      -4.589  11.333  17.033  0.00  0.00    +0.000 Cl
ATOM     27  C   UNL     1      -2.388  11.609  18.569  0.00  0.00    +0.000 A 
ATOM     28  C   UNL     1      -1.089  11.274  18.963  0.00  0.00    +0.000 A 
ENDBRANCH  19  22
ENDBRANCH  17  19
ENDBRANCH  16  17
ENDBRANCH   1  16
TORSDOF 7
ENDMDL
MODEL 6
REMARK VINA RESULT:      -6.8      0.639      1.155
REMARK  Name = 
REMARK  8 active torsions:
REMARK  status: ('A' for Active; 'I' for Inactive)
REMARK    1  A    between atoms: C_1  and  C_2
REMARK    2  A    between atoms: C_2  and  N_3
REMARK    3  A    between atoms: N_6  and  C_7
REMARK    4  A    between atoms: C_7  and  C_8
REMARK    5  A    between atoms: C_7  and  C_20
REMARK    6  A    between atoms: C_8  and  N_9
REMARK    7  A    between atoms: N_9  and  S_10
REMARK    8  A    between atoms: S_10  and  C_13
REMARK                            x       y       z     vdW  Elec       q    Type
REMARK                         _______ _______ _______ _____ _____    ______ ____
ROOT
ATOM      1  C   UNL     1       2.938   6.061  18.708  0.00  0.00    +0.000 C 
ENDROOT
BRANCH   1   5
ATOM      2  N   UNL     1       6.634   6.407  18.116  0.00  0.00    +0.000 NA
ATOM      3  C   UNL     1       5.683   7.285  17.388  0.00  0.00    +0.000 C 
ATOM      4  C   UNL     1       4.431   6.607  16.746  0.00  0.00    +0.000 C 
ATOM      5  N   UNL     1       3.755   5.554  17.553  0.00  0.00    +0.000 NA
ATOM      6  C   UNL     1       4.840   4.650  18.005  0.00  0.00    +0.000 C 
ATOM      7  C   UNL     1       5.891   5.380  18.864  0.00  0.00    +0.000 C 
BRANCH   2   9
ATOM      8  C   UNL     1       7.939   4.351  17.535  0.00  0.00    +0.000 C 
ATOM      9  C   UNL     1       7.671   5.833  17.245  0.00  0.00    +0.000 C 
ENDBRANCH   2   9
ENDBRANCH   1   5
BRANCH   1  10
ATOM     10  C   UNL     1       2.282   4.907  19.502  0.00  0.00    +0.000 A 
ATOM     11  C   UNL     1       1.403   4.014  18.858  0.00  0.00    +0.000 A 
ATOM     12  C   UNL     1       0.797   2.962  19.557  0.00  0.00    +0.000 A 
ATOM     13  C   UNL     1       1.058   2.783  20.912  0.00  0.00    +0.000 A 
ATOM     14  C   UNL     1       1.911   3.666  21.571  0.00  0.00    +0.000 A 
ATOM     15  C   UNL     1       2.511   4.724  20.877  0.00  0.00    +0.000 A 
ENDBRANCH   1  10
BRANCH   1  16
ATOM     16  C   UNL     1       1.857   7.109  18.282  0.00  0.00    +0.000 C 
BRANCH  16  17
ATOM     17  N   UNL     1       1.926   8.356  19.082  0.00  0.00    +0.000 NA
ATOM     18  H   UNL     1       2.847   8.623  19.431  0.00  0.00    +0.000 HD
BRANCH  17  19
ATOM     19  S   UNL     1       1.138   9.711  18.449  0.00  0.00    +0.000 S 
ATOM     20  O   UNL     1       2.162  10.669  18.115  0.00  0.00    +0.000 OA
ATOM     21  O   UNL     1       0.206   9.233  17.463  0.00  0.00    +0.000 OA
BRANCH  19  22
ATOM     22  C   UNL     1       0.234  10.335  19.842  0.00  0.00    +0.000 A 
ATOM     23  C   UNL     1      -0.578  11.461  19.686  0.00  0.00    +0.000 A 
ATOM     24  C   UNL     1      -1.275  11.962  20.788  0.00  0.00    +0.000 A 
ATOM     25  C   UNL     1      -1.155  11.337  22.031  0.00  0.00    +0.000 A 
ATOM     26 CL   UNL     1      -2.008  11.964  23.387  0.00  0.00    +0.000 Cl
ATOM     27  C   UNL     1      -0.346  10.211  22.185  0.00  0.00    +0.000 A 
ATOM     28  C   UNL     1       0.352   9.704  21.085  0.00  0.00    +0.000 A 
ENDBRANCH  19  22
ENDBRANCH  17  19
ENDBRANCH  16  17
ENDBRANCH   1  16
TORSDOF 7
ENDMDL
MODEL 7
REMARK VINA RESULT:      -6.8      1.184      4.277
REMARK  Name = 
REMARK  8 active torsions:
REMARK  status: ('A' for Active; 'I' for Inactive)
REMARK    1  A    between atoms: C_1  and  C_2
REMARK    2  A    between atoms: C_2  and  N_3
REMARK    3  A    between atoms: N_6  and  C_7
REMARK    4  A    between atoms: C_7  and  C_8
REMARK    5  A    between atoms: C_7  and  C_20
REMARK    6  A    between atoms: C_8  and  N_9
REMARK    7  A    between atoms: N_9  and  S_10
REMARK    8  A    between atoms: S_10  and  C_13
REMARK                            x       y       z     vdW  Elec       q    Type
REMARK                         _______ _______ _______ _____ _____    ______ ____
ROOT
ATOM      1  C   UNL     1       3.685   5.875  17.802  0.00  0.00    +0.000 C 
ENDROOT
BRANCH   1   5
ATOM      2  N   UNL     1       1.805   2.986  19.302  0.00  0.00    +0.000 NA
ATOM      3  C   UNL     1       1.444   4.378  19.675  0.00  0.00    +0.000 C 
ATOM      4  C   UNL     1       2.614   5.350  20.028  0.00  0.00    +0.000 C 
ATOM      5  N   UNL     1       3.829   5.271  19.171  0.00  0.00    +0.000 NA
ATOM      6  C   UNL     1       4.165   3.829  19.100  0.00  0.00    +0.000 C 
ATOM      7  C   UNL     1       3.027   2.992  18.482  0.00  0.00    +0.000 C 
BRANCH   2   9
ATOM      8  C   UNL     1       1.455   2.747  21.770  0.00  0.00    +0.000 C 
ATOM      9  C   UNL     1       1.906   2.086  20.461  0.00  0.00    +0.000 C 
ENDBRANCH   2   9
ENDBRANCH   1   5
BRANCH   1  10
ATOM     10  C   UNL     1       4.881   5.524  16.886  0.00  0.00    +0.000 A 
ATOM     11  C   UNL     1       4.711   4.626  15.814  0.00  0.00    +0.000 A 
ATOM     12  C   UNL     1       5.779   4.292  14.971  0.00  0.00    +0.000 A 
ATOM     13  C   UNL     1       7.037   4.851  15.184  0.00  0.00    +0.000 A 
ATOM     14  C   UNL     1       7.229   5.727  16.249  0.00  0.00    +0.000 A 
ATOM     15  C   UNL     1       6.164   6.056  17.099  0.00  0.00    +0.000 A 
ENDBRANCH   1  10
BRANCH   1  16
ATOM     16  C   UNL     1       3.466   7.424  17.835  0.00  0.00    +0.000 C 
BRANCH  16  17
ATOM     17  N   UNL     1       2.244   7.810  18.583  0.00  0.00    +0.000 NA
ATOM     18  H   UNL     1       2.308   7.795  19.601  0.00  0.00    +0.000 HD
BRANCH  17  19
ATOM     19  S   UNL     1       1.456   9.219  18.078  0.00  0.00    +0.000 S 
ATOM     20  O   UNL     1       2.484  10.171  17.741  0.00  0.00    +0.000 OA
ATOM     21  O   UNL     1       0.456   8.823  17.123  0.00  0.00    +0.000 OA
BRANCH  19  22
ATOM     22  C   UNL     1       0.652   9.779  19.557  0.00  0.00    +0.000 A 
ATOM     23  C   UNL     1      -0.078  10.969  19.534  0.00  0.00    +0.000 A 
ATOM     24  C   UNL     1      -0.696  11.418  20.704  0.00  0.00    +0.000 A 
ATOM     25  C   UNL     1      -0.580  10.677  21.882  0.00  0.00    +0.000 A 
ATOM     26 CL   UNL     1      -1.335  11.239  23.321  0.00  0.00    +0.000 Cl
ATOM     27  C   UNL     1       0.147   9.486  21.903  0.00  0.00    +0.000 A 
ATOM     28  C   UNL     1       0.766   9.031  20.734  0.00  0.00    +0.000 A 
ENDBRANCH  19  22
ENDBRANCH  17  19
ENDBRANCH  16  17
ENDBRANCH   1  16
TORSDOF 7
ENDMDL
MODEL 8
REMARK VINA RESULT:      -6.8      2.167      2.478
REMARK  Name = 
REMARK  8 active torsions:
REMARK  status: ('A' for Active; 'I' for Inactive)
REMARK    1  A    between atoms: C_1  and  C_2
REMARK    2  A    between atoms: C_2  and  N_3
REMARK    3  A    between atoms: N_6  and  C_7
REMARK    4  A    between atoms: C_7  and  C_8
REMARK    5  A    between atoms: C_7  and  C_20
REMARK    6  A    between atoms: C_8  and  N_9
REMARK    7  A    between atoms: N_9  and  S_10
REMARK    8  A    between atoms: S_10  and  C_13
REMARK                            x       y       z     vdW  Elec       q    Type
REMARK                         _______ _______ _______ _____ _____    ______ ____
ROOT
ATOM      1  C   UNL     1       2.875   6.243  19.297  0.00  0.00    +0.000 C 
ENDROOT
BRANCH   1   5
ATOM      2  N   UNL     1       6.257   5.881  17.697  0.00  0.00    +0.000 NA
ATOM      3  C   UNL     1       5.542   7.181  17.630  0.00  0.00    +0.000 C 
ATOM      4  C   UNL     1       4.030   7.145  17.241  0.00  0.00    +0.000 C 
ATOM      5  N   UNL     1       3.211   6.058  17.844  0.00  0.00    +0.000 NA
ATOM      6  C   UNL     1       3.983   4.813  17.615  0.00  0.00    +0.000 C 
ATOM      7  C   UNL     1       5.375   4.857  18.278  0.00  0.00    +0.000 C 
BRANCH   2   9
ATOM      8  C   UNL     1       6.322   4.099  15.940  0.00  0.00    +0.000 C 
ATOM      9  C   UNL     1       6.830   5.469  16.406  0.00  0.00    +0.000 C 
ENDBRANCH   2   9
ENDBRANCH   1   5
BRANCH   1  10
ATOM     10  C   UNL     1       2.261   4.965  19.916  0.00  0.00    +0.000 A 
ATOM     11  C   UNL     1       2.718   4.492  21.162  0.00  0.00    +0.000 A 
ATOM     12  C   UNL     1       2.177   3.337  21.742  0.00  0.00    +0.000 A 
ATOM     13  C   UNL     1       1.169   2.634  21.088  0.00  0.00    +0.000 A 
ATOM     14  C   UNL     1       0.716   3.076  19.848  0.00  0.00    +0.000 A 
ATOM     15  C   UNL     1       1.261   4.226  19.261  0.00  0.00    +0.000 A 
ENDBRANCH   1  10
BRANCH   1  16
ATOM     16  C   UNL     1       1.944   7.473  19.560  0.00  0.00    +0.000 C 
BRANCH  16  17
ATOM     17  N   UNL     1       2.169   8.082  20.893  0.00  0.00    +0.000 NA
ATOM     18  H   UNL     1       2.989   8.682  20.988  0.00  0.00    +0.000 HD
BRANCH  17  19
ATOM     19  S   UNL     1       0.835   8.815  21.630  0.00  0.00    +0.000 S 
ATOM     20  O   UNL     1      -0.266   7.891  21.510  0.00  0.00    +0.000 OA
ATOM     21  O   UNL     1       1.274   9.297  22.912  0.00  0.00    +0.000 OA
BRANCH  19  22
ATOM     22  C   UNL     1       0.506  10.202  20.574  0.00  0.00    +0.000 A 
ATOM     23  C   UNL     1       1.149  11.418  20.817  0.00  0.00    +0.000 A 
ATOM     24  C   UNL     1       0.875  12.515  19.995  0.00  0.00    +0.000 A 
ATOM     25  C   UNL     1      -0.035  12.387  18.943  0.00  0.00    +0.000 A 
ATOM     26 CL   UNL     1      -0.375  13.744  17.941  0.00  0.00    +0.000 Cl
ATOM     27  C   UNL     1      -0.673  11.171  18.700  0.00  0.00    +0.000 A 
ATOM     28  C   UNL     1      -0.402  10.070  19.517  0.00  0.00    +0.000 A 
ENDBRANCH  19  22
ENDBRANCH  17  19
ENDBRANCH  16  17
ENDBRANCH   1  16
TORSDOF 7
ENDMDL
MODEL 9
REMARK VINA RESULT:      -6.8      4.147      7.605
REMARK  Name = 
REMARK  8 active torsions:
REMARK  status: ('A' for Active; 'I' for Inactive)
REMARK    1  A    between atoms: C_1  and  C_2
REMARK    2  A    between atoms: C_2  and  N_3
REMARK    3  A    between atoms: N_6  and  C_7
REMARK    4  A    between atoms: C_7  and  C_8
REMARK    5  A    between atoms: C_7  and  C_20
REMARK    6  A    between atoms: C_8  and  N_9
REMARK    7  A    between atoms: N_9  and  S_10
REMARK    8  A    between atoms: S_10  and  C_13
REMARK                            x       y       z     vdW  Elec       q    Type
REMARK                         _______ _______ _______ _____ _____    ______ ____
ROOT
ATOM      1  C   UNL     1       3.258   6.314  18.528  0.00  0.00    +0.000 C 
ENDROOT
BRANCH   1   5
ATOM      2  N   UNL     1       2.812   2.767  19.691  0.00  0.00    +0.000 NA
ATOM      3  C   UNL     1       3.700   3.062  18.538  0.00  0.00    +0.000 C 
ATOM      4  C   UNL     1       3.154   4.036  17.445  0.00  0.00    +0.000 C 
ATOM      5  N   UNL     1       2.407   5.230  17.929  0.00  0.00    +0.000 NA
ATOM      6  C   UNL     1       1.420   4.706  18.903  0.00  0.00    +0.000 C 
ATOM      7  C   UNL     1       2.092   3.988  20.090  0.00  0.00    +0.000 C 
BRANCH   2   9
ATOM      8  C   UNL     1       0.509   2.069  18.999  0.00  0.00    +0.000 C 
ATOM      9  C   UNL     1       1.909   1.631  19.450  0.00  0.00    +0.000 C 
ENDBRANCH   2   9
ENDBRANCH   1   5
BRANCH   1  10
ATOM     10  C   UNL     1       2.453   7.614  18.767  0.00  0.00    +0.000 A 
ATOM     11  C   UNL     1       1.902   7.883  20.035  0.00  0.00    +0.000 A 
ATOM     12  C   UNL     1       1.170   9.053  20.275  0.00  0.00    +0.000 A 
ATOM     13  C   UNL     1       0.977   9.977  19.252  0.00  0.00    +0.000 A 
ATOM     14  C   UNL     1       1.500   9.722  17.986  0.00  0.00    +0.000 A 
ATOM     15  C   UNL     1       2.225   8.547  17.742  0.00  0.00    +0.000 A 
ENDBRANCH   1  10
BRANCH   1  16
ATOM     16  C   UNL     1       4.544   6.619  17.691  0.00  0.00    +0.000 C 
BRANCH  16  17
ATOM     17  N   UNL     1       5.724   5.854  18.163  0.00  0.00    +0.000 NA
ATOM     18  H   UNL     1       5.572   4.869  18.379  0.00  0.00    +0.000 HD
BRANCH  17  19
ATOM     19  S   UNL     1       7.151   6.032  17.273  0.00  0.00    +0.000 S 
ATOM     20  O   UNL     1       7.278   7.435  16.966  0.00  0.00    +0.000 OA
ATOM     21  O   UNL     1       8.181   5.323  17.983  0.00  0.00    +0.000 OA
BRANCH  19  22
ATOM     22  C   UNL     1       6.792   5.170  15.765  0.00  0.00    +0.000 A 
ATOM     23  C   UNL     1       5.892   4.102  15.781  0.00  0.00    +0.000 A 
ATOM     24  C   UNL     1       5.624   3.413  14.595  0.00  0.00    +0.000 A 
ATOM     25  C   UNL     1       6.256   3.794  13.410  0.00  0.00    +0.000 A 
ATOM     26 CL   UNL     1       5.930   2.935  11.955  0.00  0.00    +0.000 Cl
ATOM     27  C   UNL     1       7.153   4.863  13.394  0.00  0.00    +0.000 A 
ATOM     28  C   UNL     1       7.423   5.557  14.577  0.00  0.00    +0.000 A 
ENDBRANCH  19  22
ENDBRANCH  17  19
ENDBRANCH  16  17
ENDBRANCH   1  16
TORSDOF 7
ENDMDL
