MODEL 1
REMARK VINA RESULT:      -8.3      0.000      0.000
REMARK  Name = 
REMARK  8 active torsions:
REMARK  status: ('A' for Active; 'I' for Inactive)
REMARK    1  A    between atoms: C_1  and  C_2
REMARK    2  A    between atoms: C_2  and  C_3
REMARK    3  A    between atoms: C_3  and  C_4
REMARK    4  A    between atoms: C_4  and  C_5
REMARK    5  A    between atoms: C_8  and  C_9
REMARK    6  A    between atoms: N_19  and  C_20
REMARK    7  A    between atoms: C_23  and  C_24
REMARK    8  A    between atoms: C_26  and  C_27
REMARK                            x       y       z     vdW  Elec       q    Type
REMARK                         _______ _______ _______ _____ _____    ______ ____
ROOT
ATOM      1  C   UNL     1       2.434   5.755  20.447  0.00  0.00    +0.000 C 
ATOM      2  O   UNL     1       3.400   5.774  21.206  0.00  0.00    +0.000 OA
ATOM      3  N   UNL     1       1.932   4.561  19.972  0.00  0.00    +0.000 N 
ATOM      4  C   UNL     1       0.965   4.272  18.897  0.00  0.00    +0.000 C 
ATOM      5  C   UNL     1       1.140   2.737  18.747  0.00  0.00    +0.000 C 
ATOM      6  C   UNL     1       1.264   2.361  20.236  0.00  0.00    +0.000 C 
ATOM      7  C   UNL     1       2.493   3.276  20.430  0.00  0.00    +0.000 C 
ATOM      8  C   UNL     1       3.417   2.651  19.371  0.00  0.00    +0.000 C 
ATOM      9  C   UNL     1       4.515   3.447  18.713  0.00  0.00    +0.000 C 
ATOM     10  O   UNL     1       5.469   3.883  19.341  0.00  0.00    +0.000 OA
ATOM     11  N   UNL     1       4.277   3.471  17.342  0.00  0.00    +0.000 N 
ATOM     12  C   UNL     1       3.006   2.968  17.090  0.00  0.00    +0.000 C 
ATOM     13  O   UNL     1       2.330   3.065  16.078  0.00  0.00    +0.000 OA
ATOM     14  N   UNL     1       2.499   2.431  18.273  0.00  0.00    +0.000 N 
ENDROOT
BRANCH   1  18
ATOM     15  C   UNL     1       0.855   9.602  19.359  0.00  0.00    +0.000 A 
ATOM     16  C   UNL     1       1.692   8.887  18.491  0.00  0.00    +0.000 A 
ATOM     17  C   UNL     1       2.153   7.617  18.841  0.00  0.00    +0.000 A 
ATOM     18  C   UNL     1       1.810   7.053  20.077  0.00  0.00    +0.000 A 
ATOM     19  C   UNL     1       1.007   7.788  20.953  0.00  0.00    +0.000 A 
ATOM     20  C   UNL     1       0.510   9.038  20.588  0.00  0.00    +0.000 A 
BRANCH  15  21
ATOM     21  C   UNL     1       0.336  10.967  18.984  0.00  0.00    +0.000 C 
BRANCH  21  22
ATOM     22  C   UNL     1      -1.175  10.926  18.771  0.00  0.00    +0.000 C 
BRANCH  22  24
ATOM     23  C   UNL     1      -3.051   9.829  17.550  0.00  0.00    +0.000 C 
ATOM     24  C   UNL     1      -1.555  10.093  17.554  0.00  0.00    +0.000 C 
ENDBRANCH  22  24
ENDBRANCH  21  22
ENDBRANCH  15  21
ENDBRANCH   1  18
BRANCH  11  25
ATOM     25  C   UNL     1       5.173   4.003  16.362  0.00  0.00    +0.000 A 
ATOM     26  C   UNL     1       6.206   4.884  16.709  0.00  0.00    +0.000 A 
ATOM     27  C   UNL     1       7.130   5.353  15.767  0.00  0.00    +0.000 A 
ATOM     28  C   UNL     1       7.063   4.953  14.430  0.00  0.00    +0.000 A 
ATOM     29  C   UNL     1       6.041   4.075  14.037  0.00  0.00    +0.000 A 
ATOM     30  C   UNL     1       5.108   3.623  15.009  0.00  0.00    +0.000 A 
BRANCH  29  31
ATOM     31  C   UNL     1       5.890   3.555  12.625  0.00  0.00    +0.000 C 
ATOM     32  F   UNL     1       6.614   4.211  11.684  0.00  0.00    +0.000 F 
ATOM     33  F   UNL     1       6.264   2.248  12.528  0.00  0.00    +0.000 F 
ATOM     34  F   UNL     1       4.599   3.606  12.200  0.00  0.00    +0.000 F 
ENDBRANCH  29  31
BRANCH  28  35
ATOM     35  C   UNL     1       8.055   5.467  13.527  0.00  0.00    +0.000 C 
ATOM     36  N   UNL     1       8.873   5.895  12.826  0.00  0.00    +0.000 NA
ENDBRANCH  28  35
ENDBRANCH  11  25
TORSDOF 7
ENDMDL
MODEL 2
REMARK VINA RESULT:      -7.8      8.302     13.286
REMARK  Name = 
REMARK  8 active torsions:
REMARK  status: ('A' for Active; 'I' for Inactive)
REMARK    1  A    between atoms: C_1  and  C_2
REMARK    2  A    between atoms: C_2  and  C_3
REMARK    3  A    between atoms: C_3  and  C_4
REMARK    4  A    between atoms: C_4  and  C_5
REMARK    5  A    between atoms: C_8  and  C_9
REMARK    6  A    between atoms: N_19  and  C_20
REMARK    7  A    between atoms: C_23  and  C_24
REMARK    8  A    between atoms: C_26  and  C_27
REMARK                            x       y       z     vdW  Elec       q    Type
REMARK                         _______ _______ _______ _____ _____    ______ ____
ROOT
ATOM      1  C   UNL     1      -2.648  12.364  23.585  0.00  0.00    +0.000 C 
ATOM      2  O   UNL     1      -3.598  11.742  24.055  0.00  0.00    +0.000 OA
ATOM      3  N   UNL     1      -2.496  13.712  23.830  0.00  0.00    +0.000 N 
ATOM      4  C   UNL     1      -1.609  14.718  23.216  0.00  0.00    +0.000 C 
ATOM      5  C   UNL     1      -2.218  16.032  23.778  0.00  0.00    +0.000 C 
ATOM      6  C   UNL     1      -2.510  15.565  25.218  0.00  0.00    +0.000 C 
ATOM      7  C   UNL     1      -3.425  14.421  24.729  0.00  0.00    +0.000 C 
ATOM      8  C   UNL     1      -4.445  15.262  23.942  0.00  0.00    +0.000 C 
ATOM      9  C   UNL     1      -5.235  14.676  22.798  0.00  0.00    +0.000 C 
ATOM     10  O   UNL     1      -6.046  13.776  22.961  0.00  0.00    +0.000 OA
ATOM     11  N   UNL     1      -4.942  15.403  21.648  0.00  0.00    +0.000 N 
ATOM     12  C   UNL     1      -3.864  16.242  21.899  0.00  0.00    +0.000 C 
ATOM     13  O   UNL     1      -3.146  16.828  21.104  0.00  0.00    +0.000 OA
ATOM     14  N   UNL     1      -3.586  16.210  23.266  0.00  0.00    +0.000 N 
ENDROOT
BRANCH   1  18
ATOM     15  C   UNL     1       0.030  10.121  21.080  0.00  0.00    +0.000 A 
ATOM     16  C   UNL     1      -0.746  11.166  20.563  0.00  0.00    +0.000 A 
ATOM     17  C   UNL     1      -1.572  11.916  21.402  0.00  0.00    +0.000 A 
ATOM     18  C   UNL     1      -1.657  11.614  22.768  0.00  0.00    +0.000 A 
ATOM     19  C   UNL     1      -0.910  10.546  23.270  0.00  0.00    +0.000 A 
ATOM     20  C   UNL     1      -0.051   9.823  22.442  0.00  0.00    +0.000 A 
BRANCH  15  21
ATOM     21  C   UNL     1       0.940   9.316  20.187  0.00  0.00    +0.000 C 
BRANCH  21  22
ATOM     22  C   UNL     1       1.293   7.984  20.843  0.00  0.00    +0.000 C 
BRANCH  22  24
ATOM     23  C   UNL     1       2.016   5.639  20.405  0.00  0.00    +0.000 C 
ATOM     24  C   UNL     1       2.056   7.068  19.894  0.00  0.00    +0.000 C 
ENDBRANCH  22  24
ENDBRANCH  21  22
ENDBRANCH  15  21
ENDBRANCH   1  18
BRANCH  11  25
ATOM     25  C   UNL     1      -5.602  15.247  20.388  0.00  0.00    +0.000 A 
ATOM     26  C   UNL     1      -6.219  16.326  19.741  0.00  0.00    +0.000 A 
ATOM     27  C   UNL     1      -6.806  16.196  18.476  0.00  0.00    +0.000 A 
ATOM     28  C   UNL     1      -6.794  14.975  17.797  0.00  0.00    +0.000 A 
ATOM     29  C   UNL     1      -6.191  13.866  18.411  0.00  0.00    +0.000 A 
ATOM     30  C   UNL     1      -5.614  14.020  19.700  0.00  0.00    +0.000 A 
BRANCH  29  31
ATOM     31  C   UNL     1      -6.096  12.506  17.758  0.00  0.00    +0.000 C 
ATOM     32  F   UNL     1      -5.539  11.533  18.520  0.00  0.00    +0.000 F 
ATOM     33  F   UNL     1      -7.324  12.032  17.403  0.00  0.00    +0.000 F 
ATOM     34  F   UNL     1      -5.365  12.541  16.611  0.00  0.00    +0.000 F 
ENDBRANCH  29  31
BRANCH  28  35
ATOM     35  C   UNL     1      -7.404  14.925  16.498  0.00  0.00    +0.000 C 
ATOM     36  N   UNL     1      -7.864  14.889  15.435  0.00  0.00    +0.000 NA
ENDBRANCH  28  35
ENDBRANCH  11  25
TORSDOF 7
ENDMDL
MODEL 3
REMARK VINA RESULT:      -7.6      0.308      1.074
REMARK  Name = 
REMARK  8 active torsions:
REMARK  status: ('A' for Active; 'I' for Inactive)
REMARK    1  A    between atoms: C_1  and  C_2
REMARK    2  A    between atoms: C_2  and  C_3
REMARK    3  A    between atoms: C_3  and  C_4
REMARK    4  A    between atoms: C_4  and  C_5
REMARK    5  A    between atoms: C_8  and  C_9
REMARK    6  A    between atoms: N_19  and  C_20
REMARK    7  A    between atoms: C_23  and  C_24
REMARK    8  A    between atoms: C_26  and  C_27
REMARK                            x       y       z     vdW  Elec       q    Type
REMARK                         _______ _______ _______ _____ _____    ______ ____
ROOT
ATOM      1  C   UNL     1       2.531   5.881  20.407  0.00  0.00    +0.000 C 
ATOM      2  O   UNL     1       3.496   5.842  21.168  0.00  0.00    +0.000 OA
ATOM      3  N   UNL     1       1.973   4.720  19.915  0.00  0.00    +0.000 N 
ATOM      4  C   UNL     1       0.994   4.493  18.836  0.00  0.00    +0.000 C 
ATOM      5  C   UNL     1       1.094   2.953  18.664  0.00  0.00    +0.000 C 
ATOM      6  C   UNL     1       1.198   2.550  20.149  0.00  0.00    +0.000 C 
ATOM      7  C   UNL     1       2.470   3.403  20.356  0.00  0.00    +0.000 C 
ATOM      8  C   UNL     1       3.364   2.748  19.289  0.00  0.00    +0.000 C 
ATOM      9  C   UNL     1       4.501   3.500  18.643  0.00  0.00    +0.000 C 
ATOM     10  O   UNL     1       5.473   3.880  19.278  0.00  0.00    +0.000 OA
ATOM     11  N   UNL     1       4.265   3.554  17.272  0.00  0.00    +0.000 N 
ATOM     12  C   UNL     1       2.973   3.117  17.012  0.00  0.00    +0.000 C 
ATOM     13  O   UNL     1       2.303   3.260  16.001  0.00  0.00    +0.000 OA
ATOM     14  N   UNL     1       2.438   2.588  18.187  0.00  0.00    +0.000 N 
ENDROOT
BRANCH   1  18
ATOM     15  C   UNL     1       0.686   9.632  19.409  0.00  0.00    +0.000 A 
ATOM     16  C   UNL     1       0.449   9.010  20.642  0.00  0.00    +0.000 A 
ATOM     17  C   UNL     1       1.096   7.818  20.968  0.00  0.00    +0.000 A 
ATOM     18  C   UNL     1       1.970   7.213  20.055  0.00  0.00    +0.000 A 
ATOM     19  C   UNL     1       2.172   7.818  18.813  0.00  0.00    +0.000 A 
ATOM     20  C   UNL     1       1.560   9.031  18.501  0.00  0.00    +0.000 A 
BRANCH  15  21
ATOM     21  C   UNL     1       0.005  10.930  19.053  0.00  0.00    +0.000 C 
BRANCH  21  22
ATOM     22  C   UNL     1      -1.477  10.875  19.412  0.00  0.00    +0.000 C 
BRANCH  22  24
ATOM     23  C   UNL     1      -1.924  10.014  17.116  0.00  0.00    +0.000 C 
ATOM     24  C   UNL     1      -2.365  11.003  18.181  0.00  0.00    +0.000 C 
ENDBRANCH  22  24
ENDBRANCH  21  22
ENDBRANCH  15  21
ENDBRANCH   1  18
BRANCH  11  25
ATOM     25  C   UNL     1       5.188   4.055  16.300  0.00  0.00    +0.000 A 
ATOM     26  C   UNL     1       6.231   4.924  16.652  0.00  0.00    +0.000 A 
ATOM     27  C   UNL     1       7.179   5.363  15.720  0.00  0.00    +0.000 A 
ATOM     28  C   UNL     1       7.128   4.944  14.388  0.00  0.00    +0.000 A 
ATOM     29  C   UNL     1       6.097   4.078  13.990  0.00  0.00    +0.000 A 
ATOM     30  C   UNL     1       5.140   3.657  14.952  0.00  0.00    +0.000 A 
BRANCH  29  31
ATOM     31  C   UNL     1       5.961   3.540  12.584  0.00  0.00    +0.000 C 
ATOM     32  F   UNL     1       6.388   2.266  12.405  0.00  0.00    +0.000 F 
ATOM     33  F   UNL     1       4.664   3.553  12.164  0.00  0.00    +0.000 F 
ATOM     34  F   UNL     1       6.652   4.291  11.683  0.00  0.00    +0.000 F 
ENDBRANCH  29  31
BRANCH  28  35
ATOM     35  C   UNL     1       8.144   5.427  13.495  0.00  0.00    +0.000 C 
ATOM     36  N   UNL     1       8.981   5.831  12.803  0.00  0.00    +0.000 NA
ENDBRANCH  28  35
ENDBRANCH  11  25
TORSDOF 7
ENDMDL
MODEL 4
REMARK VINA RESULT:      -7.6      0.833      1.538
REMARK  Name = 
REMARK  8 active torsions:
REMARK  status: ('A' for Active; 'I' for Inactive)
REMARK    1  A    between atoms: C_1  and  C_2
REMARK    2  A    between atoms: C_2  and  C_3
REMARK    3  A    between atoms: C_3  and  C_4
REMARK    4  A    between atoms: C_4  and  C_5
REMARK    5  A    between atoms: C_8  and  C_9
REMARK    6  A    between atoms: N_19  and  C_20
REMARK    7  A    between atoms: C_23  and  C_24
REMARK    8  A    between atoms: C_26  and  C_27
REMARK                            x       y       z     vdW  Elec       q    Type
REMARK                         _______ _______ _______ _____ _____    ______ ____
ROOT
ATOM      1  C   UNL     1       2.470   5.739  20.467  0.00  0.00    +0.000 C 
ATOM      2  O   UNL     1       3.438   5.743  21.224  0.00  0.00    +0.000 OA
ATOM      3  N   UNL     1       1.957   4.554  19.983  0.00  0.00    +0.000 N 
ATOM      4  C   UNL     1       0.984   4.282  18.909  0.00  0.00    +0.000 C 
ATOM      5  C   UNL     1       1.146   2.746  18.745  0.00  0.00    +0.000 C 
ATOM      6  C   UNL     1       1.272   2.356  20.230  0.00  0.00    +0.000 C 
ATOM      7  C   UNL     1       2.509   3.260  20.429  0.00  0.00    +0.000 C 
ATOM      8  C   UNL     1       3.424   2.636  19.361  0.00  0.00    +0.000 C 
ATOM      9  C   UNL     1       4.527   3.430  18.706  0.00  0.00    +0.000 C 
ATOM     10  O   UNL     1       5.486   3.853  19.335  0.00  0.00    +0.000 OA
ATOM     11  N   UNL     1       4.284   3.468  17.337  0.00  0.00    +0.000 N 
ATOM     12  C   UNL     1       3.010   2.978  17.084  0.00  0.00    +0.000 C 
ATOM     13  O   UNL     1       2.331   3.089  16.075  0.00  0.00    +0.000 OA
ATOM     14  N   UNL     1       2.501   2.434  18.264  0.00  0.00    +0.000 N 
ENDROOT
BRANCH   1  18
ATOM     15  C   UNL     1       0.918   9.605  19.408  0.00  0.00    +0.000 A 
ATOM     16  C   UNL     1       1.703   8.866  18.513  0.00  0.00    +0.000 A 
ATOM     17  C   UNL     1       2.156   7.591  18.856  0.00  0.00    +0.000 A 
ATOM     18  C   UNL     1       1.854   7.045  20.111  0.00  0.00    +0.000 A 
ATOM     19  C   UNL     1       1.104   7.803  21.013  0.00  0.00    +0.000 A 
ATOM     20  C   UNL     1       0.615   9.059  20.657  0.00  0.00    +0.000 A 
BRANCH  15  21
ATOM     21  C   UNL     1       0.409  10.976  19.042  0.00  0.00    +0.000 C 
BRANCH  21  22
ATOM     22  C   UNL     1       1.571  11.911  18.718  0.00  0.00    +0.000 C 
BRANCH  22  24
ATOM     23  C   UNL     1       2.471  14.178  19.232  0.00  0.00    +0.000 C 
ATOM     24  C   UNL     1       1.784  12.952  19.809  0.00  0.00    +0.000 C 
ENDBRANCH  22  24
ENDBRANCH  21  22
ENDBRANCH  15  21
ENDBRANCH   1  18
BRANCH  11  25
ATOM     25  C   UNL     1       5.182   4.001  16.358  0.00  0.00    +0.000 A 
ATOM     26  C   UNL     1       6.217   4.879  16.708  0.00  0.00    +0.000 A 
ATOM     27  C   UNL     1       7.142   5.350  15.768  0.00  0.00    +0.000 A 
ATOM     28  C   UNL     1       7.074   4.955  14.430  0.00  0.00    +0.000 A 
ATOM     29  C   UNL     1       6.051   4.080  14.034  0.00  0.00    +0.000 A 
ATOM     30  C   UNL     1       5.117   3.627  15.004  0.00  0.00    +0.000 A 
BRANCH  29  31
ATOM     31  C   UNL     1       5.899   3.566  12.620  0.00  0.00    +0.000 C 
ATOM     32  F   UNL     1       6.616   4.229  11.680  0.00  0.00    +0.000 F 
ATOM     33  F   UNL     1       6.279   2.261  12.516  0.00  0.00    +0.000 F 
ATOM     34  F   UNL     1       4.606   3.612  12.198  0.00  0.00    +0.000 F 
ENDBRANCH  29  31
BRANCH  28  35
ATOM     35  C   UNL     1       8.068   5.470  13.529  0.00  0.00    +0.000 C 
ATOM     36  N   UNL     1       8.894   5.880  12.827  0.00  0.00    +0.000 NA
ENDBRANCH  28  35
ENDBRANCH  11  25
TORSDOF 7
ENDMDL
MODEL 5
REMARK VINA RESULT:      -7.5      6.574     10.364
REMARK  Name = 
REMARK  8 active torsions:
REMARK  status: ('A' for Active; 'I' for Inactive)
REMARK    1  A    between atoms: C_1  and  C_2
REMARK    2  A    between atoms: C_2  and  C_3
REMARK    3  A    between atoms: C_3  and  C_4
REMARK    4  A    between atoms: C_4  and  C_5
REMARK    5  A    between atoms: C_8  and  C_9
REMARK    6  A    between atoms: N_19  and  C_20
REMARK    7  A    between atoms: C_23  and  C_24
REMARK    8  A    between atoms: C_26  and  C_27
REMARK                            x       y       z     vdW  Elec       q    Type
REMARK                         _______ _______ _______ _____ _____    ______ ____
ROOT
ATOM      1  C   UNL     1      -0.544  10.898  19.137  0.00  0.00    +0.000 C 
ATOM      2  O   UNL     1      -0.905  11.232  18.011  0.00  0.00    +0.000 OA
ATOM      3  N   UNL     1      -1.084  11.493  20.257  0.00  0.00    +0.000 N 
ATOM      4  C   UNL     1      -0.675  11.452  21.673  0.00  0.00    +0.000 C 
ATOM      5  C   UNL     1      -1.554  12.586  22.269  0.00  0.00    +0.000 C 
ATOM      6  C   UNL     1      -2.860  12.307  21.500  0.00  0.00    +0.000 C 
ATOM      7  C   UNL     1      -2.168  12.486  20.131  0.00  0.00    +0.000 C 
ATOM      8  C   UNL     1      -1.646  13.921  20.322  0.00  0.00    +0.000 C 
ATOM      9  C   UNL     1      -0.439  14.428  19.573  0.00  0.00    +0.000 C 
ATOM     10  O   UNL     1      -0.430  14.547  18.357  0.00  0.00    +0.000 OA
ATOM     11  N   UNL     1       0.527  14.801  20.503  0.00  0.00    +0.000 N 
ATOM     12  C   UNL     1       0.143  14.360  21.763  0.00  0.00    +0.000 C 
ATOM     13  O   UNL     1       0.817  14.251  22.776  0.00  0.00    +0.000 OA
ATOM     14  N   UNL     1      -1.164  13.880  21.686  0.00  0.00    +0.000 N 
ENDROOT
BRANCH   1  18
ATOM     15  C   UNL     1       2.260   7.645  19.314  0.00  0.00    +0.000 A 
ATOM     16  C   UNL     1       2.006   8.322  18.114  0.00  0.00    +0.000 A 
ATOM     17  C   UNL     1       1.130   9.408  18.087  0.00  0.00    +0.000 A 
ATOM     18  C   UNL     1       0.472   9.818  19.254  0.00  0.00    +0.000 A 
ATOM     19  C   UNL     1       0.700   9.114  20.439  0.00  0.00    +0.000 A 
ATOM     20  C   UNL     1       1.607   8.056  20.478  0.00  0.00    +0.000 A 
BRANCH  15  21
ATOM     21  C   UNL     1       3.218   6.481  19.360  0.00  0.00    +0.000 C 
BRANCH  21  22
ATOM     22  C   UNL     1       2.627   5.332  20.172  0.00  0.00    +0.000 C 
BRANCH  22  24
ATOM     23  C   UNL     1       0.884   3.552  20.252  0.00  0.00    +0.000 C 
ATOM     24  C   UNL     1       1.665   4.489  19.347  0.00  0.00    +0.000 C 
ENDBRANCH  22  24
ENDBRANCH  21  22
ENDBRANCH  15  21
ENDBRANCH   1  18
BRANCH  11  25
ATOM     25  C   UNL     1       1.754  15.466  20.190  0.00  0.00    +0.000 A 
ATOM     26  C   UNL     1       2.070  16.722  20.725  0.00  0.00    +0.000 A 
ATOM     27  C   UNL     1       3.299  17.347  20.479  0.00  0.00    +0.000 A 
ATOM     28  C   UNL     1       4.274  16.734  19.687  0.00  0.00    +0.000 A 
ATOM     29  C   UNL     1       3.998  15.478  19.126  0.00  0.00    +0.000 A 
ATOM     30  C   UNL     1       2.739  14.870  19.380  0.00  0.00    +0.000 A 
BRANCH  29  31
ATOM     31  C   UNL     1       4.987  14.712  18.278  0.00  0.00    +0.000 C 
ATOM     32  F   UNL     1       6.186  14.465  18.862  0.00  0.00    +0.000 F 
ATOM     33  F   UNL     1       4.500  13.492  17.915  0.00  0.00    +0.000 F 
ATOM     34  F   UNL     1       5.271  15.361  17.115  0.00  0.00    +0.000 F 
ENDBRANCH  29  31
BRANCH  28  35
ATOM     35  C   UNL     1       5.514  17.432  19.492  0.00  0.00    +0.000 C 
ATOM     36  N   UNL     1       6.500  18.013  19.308  0.00  0.00    +0.000 NA
ENDBRANCH  28  35
ENDBRANCH  11  25
TORSDOF 7
ENDMDL
MODEL 6
REMARK VINA RESULT:      -7.4      0.917      1.545
REMARK  Name = 
REMARK  8 active torsions:
REMARK  status: ('A' for Active; 'I' for Inactive)
REMARK    1  A    between atoms: C_1  and  C_2
REMARK    2  A    between atoms: C_2  and  C_3
REMARK    3  A    between atoms: C_3  and  C_4
REMARK    4  A    between atoms: C_4  and  C_5
REMARK    5  A    between atoms: C_8  and  C_9
REMARK    6  A    between atoms: N_19  and  C_20
REMARK    7  A    between atoms: C_23  and  C_24
REMARK    8  A    between atoms: C_26  and  C_27
REMARK                            x       y       z     vdW  Elec       q    Type
REMARK                         _______ _______ _______ _____ _____    ______ ____
ROOT
ATOM      1  C   UNL     1       2.513   5.692  20.554  0.00  0.00    +0.000 C 
ATOM      2  O   UNL     1       3.482   5.627  21.306  0.00  0.00    +0.000 OA
ATOM      3  N   UNL     1       1.951   4.549  20.025  0.00  0.00    +0.000 N 
ATOM      4  C   UNL     1       0.965   4.360  18.945  0.00  0.00    +0.000 C 
ATOM      5  C   UNL     1       1.063   2.827  18.719  0.00  0.00    +0.000 C 
ATOM      6  C   UNL     1       1.177   2.374  20.188  0.00  0.00    +0.000 C 
ATOM      7  C   UNL     1       2.450   3.218  20.417  0.00  0.00    +0.000 C 
ATOM      8  C   UNL     1       3.336   2.600  19.322  0.00  0.00    +0.000 C 
ATOM      9  C   UNL     1       4.470   3.373  18.695  0.00  0.00    +0.000 C 
ATOM     10  O   UNL     1       5.447   3.731  19.336  0.00  0.00    +0.000 OA
ATOM     11  N   UNL     1       4.226   3.476  17.329  0.00  0.00    +0.000 N 
ATOM     12  C   UNL     1       2.931   3.049  17.062  0.00  0.00    +0.000 C 
ATOM     13  O   UNL     1       2.256   3.227  16.060  0.00  0.00    +0.000 OA
ATOM     14  N   UNL     1       2.404   2.479  18.221  0.00  0.00    +0.000 N 
ENDROOT
BRANCH   1  18
ATOM     15  C   UNL     1       0.663   9.477  19.700  0.00  0.00    +0.000 A 
ATOM     16  C   UNL     1       0.437   8.814  20.913  0.00  0.00    +0.000 A 
ATOM     17  C   UNL     1       1.086   7.611  21.193  0.00  0.00    +0.000 A 
ATOM     18  C   UNL     1       1.951   7.036  20.252  0.00  0.00    +0.000 A 
ATOM     19  C   UNL     1       2.142   7.682  19.029  0.00  0.00    +0.000 A 
ATOM     20  C   UNL     1       1.528   8.906  18.764  0.00  0.00    +0.000 A 
BRANCH  15  21
ATOM     21  C   UNL     1      -0.018  10.787  19.394  0.00  0.00    +0.000 C 
BRANCH  21  22
ATOM     22  C   UNL     1      -0.946  11.189  20.537  0.00  0.00    +0.000 C 
BRANCH  22  24
ATOM     23  C   UNL     1      -1.078  12.347  22.741  0.00  0.00    +0.000 C 
ATOM     24  C   UNL     1      -0.319  12.254  21.428  0.00  0.00    +0.000 C 
ENDBRANCH  22  24
ENDBRANCH  21  22
ENDBRANCH  15  21
ENDBRANCH   1  18
BRANCH  11  25
ATOM     25  C   UNL     1       5.142   4.010  16.369  0.00  0.00    +0.000 A 
ATOM     26  C   UNL     1       6.169   4.890  16.740  0.00  0.00    +0.000 A 
ATOM     27  C   UNL     1       7.112   5.361  15.819  0.00  0.00    +0.000 A 
ATOM     28  C   UNL     1       7.072   4.966  14.479  0.00  0.00    +0.000 A 
ATOM     29  C   UNL     1       6.057   4.090  14.062  0.00  0.00    +0.000 A 
ATOM     30  C   UNL     1       5.105   3.636  15.013  0.00  0.00    +0.000 A 
BRANCH  29  31
ATOM     31  C   UNL     1       5.935   3.577  12.646  0.00  0.00    +0.000 C 
ATOM     32  F   UNL     1       6.655   4.253  11.718  0.00  0.00    +0.000 F 
ATOM     33  F   UNL     1       6.338   2.278  12.545  0.00  0.00    +0.000 F 
ATOM     34  F   UNL     1       4.647   3.602  12.205  0.00  0.00    +0.000 F 
ENDBRANCH  29  31
BRANCH  28  35
ATOM     35  C   UNL     1       8.082   5.483  13.598  0.00  0.00    +0.000 C 
ATOM     36  N   UNL     1       8.914   5.913  12.916  0.00  0.00    +0.000 NA
ENDBRANCH  28  35
ENDBRANCH  11  25
TORSDOF 7
ENDMDL
MODEL 7
REMARK VINA RESULT:      -7.4      6.670     10.469
REMARK  Name = 
REMARK  8 active torsions:
REMARK  status: ('A' for Active; 'I' for Inactive)
REMARK    1  A    between atoms: C_1  and  C_2
REMARK    2  A    between atoms: C_2  and  C_3
REMARK    3  A    between atoms: C_3  and  C_4
REMARK    4  A    between atoms: C_4  and  C_5
REMARK    5  A    between atoms: C_8  and  C_9
REMARK    6  A    between atoms: N_19  and  C_20
REMARK    7  A    between atoms: C_23  and  C_24
REMARK    8  A    between atoms: C_26  and  C_27
REMARK                            x       y       z     vdW  Elec       q    Type
REMARK                         _______ _______ _______ _____ _____    ______ ____
ROOT
ATOM      1  C   UNL     1      -0.642  11.109  19.216  0.00  0.00    +0.000 C 
ATOM      2  O   UNL     1      -1.000  11.441  18.088  0.00  0.00    +0.000 OA
ATOM      3  N   UNL     1      -1.150  11.739  20.333  0.00  0.00    +0.000 N 
ATOM      4  C   UNL     1      -0.730  11.702  21.746  0.00  0.00    +0.000 C 
ATOM      5  C   UNL     1      -1.560  12.876  22.332  0.00  0.00    +0.000 C 
ATOM      6  C   UNL     1      -2.882  12.638  21.578  0.00  0.00    +0.000 C 
ATOM      7  C   UNL     1      -2.195  12.772  20.201  0.00  0.00    +0.000 C 
ATOM      8  C   UNL     1      -1.617  14.188  20.368  0.00  0.00    +0.000 C 
ATOM      9  C   UNL     1      -0.398  14.638  19.603  0.00  0.00    +0.000 C 
ATOM     10  O   UNL     1      -0.395  14.740  18.385  0.00  0.00    +0.000 OA
ATOM     11  N   UNL     1       0.589  14.986  20.520  0.00  0.00    +0.000 N 
ATOM     12  C   UNL     1       0.200  14.578  21.789  0.00  0.00    +0.000 C 
ATOM     13  O   UNL     1       0.877  14.456  22.797  0.00  0.00    +0.000 OA
ATOM     14  N   UNL     1      -1.126  14.147  21.729  0.00  0.00    +0.000 N 
ENDROOT
BRANCH   1  18
ATOM     15  C   UNL     1       2.050   7.763  19.399  0.00  0.00    +0.000 A 
ATOM     16  C   UNL     1       1.892   8.506  18.222  0.00  0.00    +0.000 A 
ATOM     17  C   UNL     1       1.051   9.620  18.197  0.00  0.00    +0.000 A 
ATOM     18  C   UNL     1       0.332   9.992  19.340  0.00  0.00    +0.000 A 
ATOM     19  C   UNL     1       0.465   9.224  20.499  0.00  0.00    +0.000 A 
ATOM     20  C   UNL     1       1.336   8.136  20.540  0.00  0.00    +0.000 A 
BRANCH  15  21
ATOM     21  C   UNL     1       2.969   6.568  19.444  0.00  0.00    +0.000 C 
BRANCH  21  22
ATOM     22  C   UNL     1       3.115   5.952  18.055  0.00  0.00    +0.000 C 
BRANCH  22  24
ATOM     23  C   UNL     1       4.934   6.658  16.505  0.00  0.00    +0.000 C 
ATOM     24  C   UNL     1       4.575   5.755  17.672  0.00  0.00    +0.000 C 
ENDBRANCH  22  24
ENDBRANCH  21  22
ENDBRANCH  15  21
ENDBRANCH   1  18
BRANCH  11  25
ATOM     25  C   UNL     1       1.839  15.599  20.187  0.00  0.00    +0.000 A 
ATOM     26  C   UNL     1       2.196  16.861  20.682  0.00  0.00    +0.000 A 
ATOM     27  C   UNL     1       3.445  17.436  20.418  0.00  0.00    +0.000 A 
ATOM     28  C   UNL     1       4.400  16.765  19.649  0.00  0.00    +0.000 A 
ATOM     29  C   UNL     1       4.082  15.501  19.129  0.00  0.00    +0.000 A 
ATOM     30  C   UNL     1       2.803  14.944  19.400  0.00  0.00    +0.000 A 
BRANCH  29  31
ATOM     31  C   UNL     1       5.047  14.675  18.308  0.00  0.00    +0.000 C 
ATOM     32  F   UNL     1       5.501  15.268  17.176  0.00  0.00    +0.000 F 
ATOM     33  F   UNL     1       6.161  14.347  19.021  0.00  0.00    +0.000 F 
ATOM     34  F   UNL     1       4.497  13.495  17.911  0.00  0.00    +0.000 F 
ENDBRANCH  29  31
BRANCH  28  35
ATOM     35  C   UNL     1       5.663  17.415  19.434  0.00  0.00    +0.000 C 
ATOM     36  N   UNL     1       6.690  17.913  19.238  0.00  0.00    +0.000 NA
ENDBRANCH  28  35
ENDBRANCH  11  25
TORSDOF 7
ENDMDL
MODEL 8
REMARK VINA RESULT:      -7.3      8.008     10.526
REMARK  Name = 
REMARK  8 active torsions:
REMARK  status: ('A' for Active; 'I' for Inactive)
REMARK    1  A    between atoms: C_1  and  C_2
REMARK    2  A    between atoms: C_2  and  C_3
REMARK    3  A    between atoms: C_3  and  C_4
REMARK    4  A    between atoms: C_4  and  C_5
REMARK    5  A    between atoms: C_8  and  C_9
REMARK    6  A    between atoms: N_19  and  C_20
REMARK    7  A    between atoms: C_23  and  C_24
REMARK    8  A    between atoms: C_26  and  C_27
REMARK                            x       y       z     vdW  Elec       q    Type
REMARK                         _______ _______ _______ _____ _____    ______ ____
ROOT
ATOM      1  C   UNL     1       2.932  15.258  19.573  0.00  0.00    +0.000 C 
ATOM      2  O   UNL     1       2.870  16.171  18.752  0.00  0.00    +0.000 OA
ATOM      3  N   UNL     1       3.469  15.470  20.825  0.00  0.00    +0.000 N 
ATOM      4  C   UNL     1       3.870  14.526  21.884  0.00  0.00    +0.000 C 
ATOM      5  C   UNL     1       4.652  15.467  22.840  0.00  0.00    +0.000 C 
ATOM      6  C   UNL     1       3.733  16.703  22.767  0.00  0.00    +0.000 C 
ATOM      7  C   UNL     1       3.904  16.819  21.237  0.00  0.00    +0.000 C 
ATOM      8  C   UNL     1       5.435  16.961  21.185  0.00  0.00    +0.000 C 
ATOM      9  C   UNL     1       6.224  16.551  19.967  0.00  0.00    +0.000 C 
ATOM     10  O   UNL     1       6.098  17.115  18.890  0.00  0.00    +0.000 OA
ATOM     11  N   UNL     1       7.124  15.558  20.343  0.00  0.00    +0.000 N 
ATOM     12  C   UNL     1       6.820  15.129  21.629  0.00  0.00    +0.000 C 
ATOM     13  O   UNL     1       7.187  14.117  22.206  0.00  0.00    +0.000 OA
ATOM     14  N   UNL     1       5.854  15.980  22.165  0.00  0.00    +0.000 N 
ENDROOT
BRANCH   1  18
ATOM     15  C   UNL     1       1.415  11.338  18.675  0.00  0.00    +0.000 A 
ATOM     16  C   UNL     1       0.835  12.132  19.673  0.00  0.00    +0.000 A 
ATOM     17  C   UNL     1       1.310  13.422  19.916  0.00  0.00    +0.000 A 
ATOM     18  C   UNL     1       2.391  13.929  19.183  0.00  0.00    +0.000 A 
ATOM     19  C   UNL     1       2.990  13.118  18.216  0.00  0.00    +0.000 A 
ATOM     20  C   UNL     1       2.490  11.845  17.943  0.00  0.00    +0.000 A 
BRANCH  15  21
ATOM     21  C   UNL     1       0.900   9.949  18.392  0.00  0.00    +0.000 C 
BRANCH  21  22
ATOM     22  C   UNL     1       2.001   9.083  17.786  0.00  0.00    +0.000 C 
BRANCH  22  24
ATOM     23  C   UNL     1       3.221   6.912  17.904  0.00  0.00    +0.000 C 
ATOM     24  C   UNL     1       2.311   7.870  18.654  0.00  0.00    +0.000 C 
ENDBRANCH  22  24
ENDBRANCH  21  22
ENDBRANCH  15  21
ENDBRANCH   1  18
BRANCH  11  25
ATOM     25  C   UNL     1       8.147  15.017  19.502  0.00  0.00    +0.000 A 
ATOM     26  C   UNL     1       8.932  15.834  18.677  0.00  0.00    +0.000 A 
ATOM     27  C   UNL     1       9.982  15.320  17.905  0.00  0.00    +0.000 A 
ATOM     28  C   UNL     1      10.297  13.959  17.931  0.00  0.00    +0.000 A 
ATOM     29  C   UNL     1       9.534  13.103  18.740  0.00  0.00    +0.000 A 
ATOM     30  C   UNL     1       8.466  13.646  19.504  0.00  0.00    +0.000 A 
BRANCH  29  31
ATOM     31  C   UNL     1       9.803  11.621  18.866  0.00  0.00    +0.000 C 
ATOM     32  F   UNL     1       9.679  10.908  17.720  0.00  0.00    +0.000 F 
ATOM     33  F   UNL     1      11.067  11.376  19.313  0.00  0.00    +0.000 F 
ATOM     34  F   UNL     1       8.969  11.026  19.763  0.00  0.00    +0.000 F 
ENDBRANCH  29  31
BRANCH  28  35
ATOM     35  C   UNL     1      11.396  13.511  17.122  0.00  0.00    +0.000 C 
ATOM     36  N   UNL     1      12.288  13.123  16.492  0.00  0.00    +0.000 NA
ENDBRANCH  28  35
ENDBRANCH  11  25
TORSDOF 7
ENDMDL
MODEL 9
REMARK VINA RESULT:      -7.2      8.088     10.692
REMARK  Name = 
REMARK  8 active torsions:
REMARK  status: ('A' for Active; 'I' for Inactive)
REMARK    1  A    between atoms: C_1  and  C_2
REMARK    2  A    between atoms: C_2  and  C_3
REMARK    3  A    between atoms: C_3  and  C_4
REMARK    4  A    between atoms: C_4  and  C_5
REMARK    5  A    between atoms: C_8  and  C_9
REMARK    6  A    between atoms: N_19  and  C_20
REMARK    7  A    between atoms: C_23  and  C_24
REMARK    8  A    between atoms: C_26  and  C_27
REMARK                            x       y       z     vdW  Elec       q    Type
REMARK                         _______ _______ _______ _____ _____    ______ ____
ROOT
ATOM      1  C   UNL     1       2.558  15.113  19.459  0.00  0.00    +0.000 C 
ATOM      2  O   UNL     1       2.406  15.885  18.515  0.00  0.00    +0.000 OA
ATOM      3  N   UNL     1       3.048  15.563  20.667  0.00  0.00    +0.000 N 
ATOM      4  C   UNL     1       3.537  14.832  21.851  0.00  0.00    +0.000 C 
ATOM      5  C   UNL     1       4.193  15.984  22.659  0.00  0.00    +0.000 C 
ATOM      6  C   UNL     1       3.143  17.084  22.410  0.00  0.00    +0.000 C 
ATOM      7  C   UNL     1       3.323  16.997  20.878  0.00  0.00    +0.000 C 
ATOM      8  C   UNL     1       4.829  17.303  20.805  0.00  0.00    +0.000 C 
ATOM      9  C   UNL     1       5.678  16.814  19.658  0.00  0.00    +0.000 C 
ATOM     10  O   UNL     1       5.506  17.199  18.510  0.00  0.00    +0.000 OA
ATOM     11  N   UNL     1       6.677  15.994  20.172  0.00  0.00    +0.000 N 
ATOM     12  C   UNL     1       6.404  15.723  21.507  0.00  0.00    +0.000 C 
ATOM     13  O   UNL     1       6.873  14.853  22.225  0.00  0.00    +0.000 OA
ATOM     14  N   UNL     1       5.341  16.528  21.915  0.00  0.00    +0.000 N 
ENDROOT
BRANCH   1  18
ATOM     15  C   UNL     1       1.392  11.052  18.672  0.00  0.00    +0.000 A 
ATOM     16  C   UNL     1       2.423  11.665  17.949  0.00  0.00    +0.000 A 
ATOM     17  C   UNL     1       2.822  12.968  18.253  0.00  0.00    +0.000 A 
ATOM     18  C   UNL     1       2.176  13.689  19.267  0.00  0.00    +0.000 A 
ATOM     19  C   UNL     1       1.122  13.085  19.957  0.00  0.00    +0.000 A 
ATOM     20  C   UNL     1       0.751  11.769  19.684  0.00  0.00    +0.000 A 
BRANCH  15  21
ATOM     21  C   UNL     1       0.964   9.639  18.364  0.00  0.00    +0.000 C 
BRANCH  21  22
ATOM     22  C   UNL     1       2.121   8.849  17.758  0.00  0.00    +0.000 C 
BRANCH  22  24
ATOM     23  C   UNL     1       2.041   7.652  19.943  0.00  0.00    +0.000 C 
ATOM     24  C   UNL     1       2.322   7.510  18.457  0.00  0.00    +0.000 C 
ENDBRANCH  22  24
ENDBRANCH  21  22
ENDBRANCH  15  21
ENDBRANCH   1  18
BRANCH  11  25
ATOM     25  C   UNL     1       7.768  15.457  19.418  0.00  0.00    +0.000 A 
ATOM     26  C   UNL     1       8.587  16.272  18.624  0.00  0.00    +0.000 A 
ATOM     27  C   UNL     1       9.699  15.765  17.939  0.00  0.00    +0.000 A 
ATOM     28  C   UNL     1      10.043  14.413  18.025  0.00  0.00    +0.000 A 
ATOM     29  C   UNL     1       9.247  13.560  18.804  0.00  0.00    +0.000 A 
ATOM     30  C   UNL     1       8.118  14.096  19.480  0.00  0.00    +0.000 A 
BRANCH  29  31
ATOM     31  C   UNL     1       9.542  12.089  18.990  0.00  0.00    +0.000 C 
ATOM     32  F   UNL     1       8.735  11.440  19.864  0.00  0.00    +0.000 F 
ATOM     33  F   UNL     1       9.435  11.403  17.817  0.00  0.00    +0.000 F 
ATOM     34  F   UNL     1      10.812  11.876  19.432  0.00  0.00    +0.000 F 
ENDBRANCH  29  31
BRANCH  28  35
ATOM     35  C   UNL     1      11.205  13.972  17.304  0.00  0.00    +0.000 C 
ATOM     36  N   UNL     1      12.134  13.639  16.696  0.00  0.00    +0.000 NA
ENDBRANCH  28  35
ENDBRANCH  11  25
TORSDOF 7
ENDMDL
