MODEL 1
REMARK VINA RESULT:      -8.0      0.000      0.000
REMARK  Name = 
REMARK  5 active torsions:
REMARK  status: ('A' for Active; 'I' for Inactive)
REMARK    1  A    between atoms: N_2  and  C_4
REMARK    2  A    between atoms: C_4  and  C_5
REMARK    3  A    between atoms: C_5  and  C_6
REMARK    4  A    between atoms: C_5  and  C_12
REMARK    5  A    between atoms: C_13  and  C_14
REMARK                            x       y       z     vdW  Elec       q    Type
REMARK                         _______ _______ _______ _____ _____    ______ ____
ROOT
ATOM      1  C   UNL     1       3.076   6.410  19.033  0.00  0.00    +0.000 A 
ATOM      2  C   UNL     1       3.874   6.644  17.896  0.00  0.00    +0.000 A 
ATOM      3  N   UNL     1       3.461   7.843  17.354  0.00  0.00    +0.000 N 
ATOM      4  C   UNL     1       2.533   8.464  18.141  0.00  0.00    +0.000 A 
ATOM      5  C   UNL     1       1.945   9.732  18.001  0.00  0.00    +0.000 A 
ATOM      6  C   UNL     1       0.990  10.127  18.945  0.00  0.00    +0.000 A 
ATOM      7  C   UNL     1       0.640   9.279  19.982  0.00  0.00    +0.000 A 
ATOM      8  C   UNL     1       1.253   8.031  20.105  0.00  0.00    +0.000 A 
ATOM      9  C   UNL     1       2.233   7.591  19.183  0.00  0.00    +0.000 A 
ATOM     10  H   UNL     1       3.846   8.247  16.512  0.00  0.00    +0.000 HD
ENDROOT
BRANCH   2  11
ATOM     11  C   UNL     1       5.028   5.926  17.316  0.00  0.00    +0.000 A 
ATOM     12  C   UNL     1       4.936   5.218  16.116  0.00  0.00    +0.000 A 
ATOM     13  C   UNL     1       5.986   4.407  15.667  0.00  0.00    +0.000 A 
ATOM     14  C   UNL     1       7.175   4.341  16.384  0.00  0.00    +0.000 A 
ATOM     15  C   UNL     1       7.327   5.112  17.532  0.00  0.00    +0.000 A 
ATOM     16  C   UNL     1       6.261   5.892  17.997  0.00  0.00    +0.000 A 
ENDBRANCH   2  11
BRANCH   1  17
ATOM     17  C   UNL     1       3.204   5.204  19.987  0.00  0.00    +0.000 C 
BRANCH  17  18
ATOM     18  C   UNL     1       3.320   3.945  19.139  0.00  0.00    +0.000 A 
ATOM     19  C   UNL     1       4.319   2.980  19.339  0.00  0.00    +0.000 A 
ATOM     20  C   UNL     1       4.283   1.805  18.601  0.00  0.00    +0.000 A 
ATOM     21  N   UNL     1       3.368   1.547  17.648  0.00  0.00    +0.000 NA
ATOM     22  C   UNL     1       2.452   2.509  17.414  0.00  0.00    +0.000 A 
ATOM     23  C   UNL     1       2.387   3.703  18.119  0.00  0.00    +0.000 A 
ENDBRANCH  17  18
BRANCH  17  24
ATOM     24  C   UNL     1       2.105   5.241  21.050  0.00  0.00    +0.000 C 
BRANCH  24  26
ATOM     25  O   UNL     1       0.766   3.334  20.924  0.00  0.00    +0.000 OA
ATOM     26  N   UNL     1       1.751   3.847  21.473  0.00  0.00    +0.000 N 
ATOM     27  O   UNL     1       2.439   3.318  22.355  0.00  0.00    +0.000 OA
ENDBRANCH  24  26
ENDBRANCH  17  24
ENDBRANCH   1  17
TORSDOF 5
ENDMDL
MODEL 2
REMARK VINA RESULT:      -7.8      0.258      1.472
REMARK  Name = 
REMARK  5 active torsions:
REMARK  status: ('A' for Active; 'I' for Inactive)
REMARK    1  A    between atoms: N_2  and  C_4
REMARK    2  A    between atoms: C_4  and  C_5
REMARK    3  A    between atoms: C_5  and  C_6
REMARK    4  A    between atoms: C_5  and  C_12
REMARK    5  A    between atoms: C_13  and  C_14
REMARK                            x       y       z     vdW  Elec       q    Type
REMARK                         _______ _______ _______ _____ _____    ______ ____
ROOT
ATOM      1  C   UNL     1       3.129   6.181  19.051  0.00  0.00    +0.000 A 
ATOM      2  C   UNL     1       3.920   6.351  17.897  0.00  0.00    +0.000 A 
ATOM      3  N   UNL     1       3.545   7.550  17.326  0.00  0.00    +0.000 N 
ATOM      4  C   UNL     1       2.652   8.228  18.106  0.00  0.00    +0.000 A 
ATOM      5  C   UNL     1       2.110   9.513  17.936  0.00  0.00    +0.000 A 
ATOM      6  C   UNL     1       1.185   9.970  18.880  0.00  0.00    +0.000 A 
ATOM      7  C   UNL     1       0.817   9.167  19.947  0.00  0.00    +0.000 A 
ATOM      8  C   UNL     1       1.384   7.900  20.098  0.00  0.00    +0.000 A 
ATOM      9  C   UNL     1       2.334   7.397  19.176  0.00  0.00    +0.000 A 
ATOM     10  H   UNL     1       3.933   7.914  16.467  0.00  0.00    +0.000 HD
ENDROOT
BRANCH   2  11
ATOM     11  C   UNL     1       5.038   5.574  17.324  0.00  0.00    +0.000 A 
ATOM     12  C   UNL     1       6.272   5.461  17.967  0.00  0.00    +0.000 A 
ATOM     13  C   UNL     1       7.371   4.865  17.336  0.00  0.00    +0.000 A 
ATOM     14  C   UNL     1       7.234   4.314  16.067  0.00  0.00    +0.000 A 
ATOM     15  C   UNL     1       5.990   4.328  15.443  0.00  0.00    +0.000 A 
ATOM     16  C   UNL     1       4.904   4.958  16.063  0.00  0.00    +0.000 A 
ENDBRANCH   2  11
BRANCH   1  17
ATOM     17  C   UNL     1       3.225   4.999  20.038  0.00  0.00    +0.000 C 
BRANCH  17  18
ATOM     18  C   UNL     1       3.269   3.711  19.226  0.00  0.00    +0.000 A 
ATOM     19  C   UNL     1       2.386   3.445  18.169  0.00  0.00    +0.000 A 
ATOM     20  C   UNL     1       2.570   2.302  17.404  0.00  0.00    +0.000 A 
ATOM     21  N   UNL     1       3.525   1.384  17.646  0.00  0.00    +0.000 NA
ATOM     22  C   UNL     1       4.327   1.614  18.706  0.00  0.00    +0.000 A 
ATOM     23  C   UNL     1       4.242   2.741  19.512  0.00  0.00    +0.000 A 
ENDBRANCH  17  18
BRANCH  17  24
ATOM     24  C   UNL     1       2.150   5.115  21.120  0.00  0.00    +0.000 C 
BRANCH  24  26
ATOM     25  O   UNL     1       2.372   3.202  22.438  0.00  0.00    +0.000 OA
ATOM     26  N   UNL     1       1.704   3.750  21.551  0.00  0.00    +0.000 N 
ATOM     27  O   UNL     1       0.727   3.253  20.975  0.00  0.00    +0.000 OA
ENDBRANCH  24  26
ENDBRANCH  17  24
ENDBRANCH   1  17
TORSDOF 5
ENDMDL
MODEL 3
REMARK VINA RESULT:      -7.8      1.676      5.138
REMARK  Name = 
REMARK  5 active torsions:
REMARK  status: ('A' for Active; 'I' for Inactive)
REMARK    1  A    between atoms: N_2  and  C_4
REMARK    2  A    between atoms: C_4  and  C_5
REMARK    3  A    between atoms: C_5  and  C_6
REMARK    4  A    between atoms: C_5  and  C_12
REMARK    5  A    between atoms: C_13  and  C_14
REMARK                            x       y       z     vdW  Elec       q    Type
REMARK                         _______ _______ _______ _____ _____    ______ ____
ROOT
ATOM      1  C   UNL     1       3.021   5.601  18.020  0.00  0.00    +0.000 A 
ATOM      2  C   UNL     1       3.144   6.996  18.170  0.00  0.00    +0.000 A 
ATOM      3  N   UNL     1       4.316   7.367  17.542  0.00  0.00    +0.000 N 
ATOM      4  C   UNL     1       4.894   6.318  16.884  0.00  0.00    +0.000 A 
ATOM      5  C   UNL     1       6.024   6.298  16.050  0.00  0.00    +0.000 A 
ATOM      6  C   UNL     1       6.427   5.072  15.511  0.00  0.00    +0.000 A 
ATOM      7  C   UNL     1       5.726   3.914  15.804  0.00  0.00    +0.000 A 
ATOM      8  C   UNL     1       4.598   3.967  16.624  0.00  0.00    +0.000 A 
ATOM      9  C   UNL     1       4.142   5.186  17.183  0.00  0.00    +0.000 A 
ATOM     10  H   UNL     1       4.670   8.312  17.515  0.00  0.00    +0.000 HD
ENDROOT
BRANCH   2  11
ATOM     11  C   UNL     1       2.256   8.025  18.749  0.00  0.00    +0.000 A 
ATOM     12  C   UNL     1       1.880   8.012  20.094  0.00  0.00    +0.000 A 
ATOM     13  C   UNL     1       0.908   8.890  20.587  0.00  0.00    +0.000 A 
ATOM     14  C   UNL     1       0.338   9.843  19.751  0.00  0.00    +0.000 A 
ATOM     15  C   UNL     1       0.764   9.940  18.430  0.00  0.00    +0.000 A 
ATOM     16  C   UNL     1       1.710   9.035  17.932  0.00  0.00    +0.000 A 
ENDBRANCH   2  11
BRANCH   1  17
ATOM     17  C   UNL     1       1.843   4.744  18.527  0.00  0.00    +0.000 C 
BRANCH  17  18
ATOM     18  C   UNL     1       2.309   3.989  19.764  0.00  0.00    +0.000 A 
ATOM     19  C   UNL     1       1.559   3.928  20.948  0.00  0.00    +0.000 A 
ATOM     20  C   UNL     1       1.999   3.121  21.988  0.00  0.00    +0.000 A 
ATOM     21  N   UNL     1       3.149   2.421  21.958  0.00  0.00    +0.000 NA
ATOM     22  C   UNL     1       3.899   2.540  20.843  0.00  0.00    +0.000 A 
ATOM     23  C   UNL     1       3.530   3.296  19.739  0.00  0.00    +0.000 A 
ENDBRANCH  17  18
BRANCH  17  24
ATOM     24  C   UNL     1       1.243   3.924  17.383  0.00  0.00    +0.000 C 
BRANCH  24  26
ATOM     25  O   UNL     1       2.110   1.758  17.355  0.00  0.00    +0.000 OA
ATOM     26  N   UNL     1       1.187   2.475  17.763  0.00  0.00    +0.000 N 
ATOM     27  O   UNL     1       0.216   2.089  18.427  0.00  0.00    +0.000 OA
ENDBRANCH  24  26
ENDBRANCH  17  24
ENDBRANCH   1  17
TORSDOF 5
ENDMDL
MODEL 4
REMARK VINA RESULT:      -7.8      4.426      7.396
REMARK  Name = 
REMARK  5 active torsions:
REMARK  status: ('A' for Active; 'I' for Inactive)
REMARK    1  A    between atoms: N_2  and  C_4
REMARK    2  A    between atoms: C_4  and  C_5
REMARK    3  A    between atoms: C_5  and  C_6
REMARK    4  A    between atoms: C_5  and  C_12
REMARK    5  A    between atoms: C_13  and  C_14
REMARK                            x       y       z     vdW  Elec       q    Type
REMARK                         _______ _______ _______ _____ _____    ______ ____
ROOT
ATOM      1  C   UNL     1       0.158  11.512  18.926  0.00  0.00    +0.000 A 
ATOM      2  C   UNL     1       1.321  10.767  18.642  0.00  0.00    +0.000 A 
ATOM      3  N   UNL     1       2.288  11.668  18.245  0.00  0.00    +0.000 N 
ATOM      4  C   UNL     1       1.864  12.960  18.377  0.00  0.00    +0.000 A 
ATOM      5  C   UNL     1       2.571  14.158  18.180  0.00  0.00    +0.000 A 
ATOM      6  C   UNL     1       1.890  15.366  18.361  0.00  0.00    +0.000 A 
ATOM      7  C   UNL     1       0.551  15.368  18.719  0.00  0.00    +0.000 A 
ATOM      8  C   UNL     1      -0.121  14.162  18.922  0.00  0.00    +0.000 A 
ATOM      9  C   UNL     1       0.529  12.913  18.764  0.00  0.00    +0.000 A 
ATOM     10  H   UNL     1       3.219  11.407  17.955  0.00  0.00    +0.000 HD
ENDROOT
BRANCH   2  11
ATOM     11  C   UNL     1       1.655   9.336  18.786  0.00  0.00    +0.000 A 
ATOM     12  C   UNL     1       1.463   8.644  19.984  0.00  0.00    +0.000 A 
ATOM     13  C   UNL     1       1.939   7.338  20.155  0.00  0.00    +0.000 A 
ATOM     14  C   UNL     1       2.563   6.677  19.102  0.00  0.00    +0.000 A 
ATOM     15  C   UNL     1       2.680   7.310  17.869  0.00  0.00    +0.000 A 
ATOM     16  C   UNL     1       2.236   8.629  17.714  0.00  0.00    +0.000 A 
ENDBRANCH   2  11
BRANCH   1  17
ATOM     17  C   UNL     1      -1.174  10.932  19.446  0.00  0.00    +0.000 C 
BRANCH  17  18
ATOM     18  C   UNL     1      -2.133  10.830  18.268  0.00  0.00    +0.000 A 
ATOM     19  C   UNL     1      -3.327  11.563  18.192  0.00  0.00    +0.000 A 
ATOM     20  C   UNL     1      -4.085  11.502  17.031  0.00  0.00    +0.000 A 
ATOM     21  N   UNL     1      -3.775  10.729  15.972  0.00  0.00    +0.000 NA
ATOM     22  C   UNL     1      -2.661   9.976  16.082  0.00  0.00    +0.000 A 
ATOM     23  C   UNL     1      -1.823   9.990  17.187  0.00  0.00    +0.000 A 
ENDBRANCH  17  18
BRANCH  17  24
ATOM     24  C   UNL     1      -1.649  11.701  20.680  0.00  0.00    +0.000 C 
BRANCH  24  26
ATOM     25  O   UNL     1      -0.064  12.412  22.239  0.00  0.00    +0.000 OA
ATOM     26  N   UNL     1      -0.723  11.446  21.832  0.00  0.00    +0.000 N 
ATOM     27  O   UNL     1      -0.657  10.292  22.275  0.00  0.00    +0.000 OA
ENDBRANCH  24  26
ENDBRANCH  17  24
ENDBRANCH   1  17
TORSDOF 5
ENDMDL
MODEL 5
REMARK VINA RESULT:      -7.7      2.844      6.296
REMARK  Name = 
REMARK  5 active torsions:
REMARK  status: ('A' for Active; 'I' for Inactive)
REMARK    1  A    between atoms: N_2  and  C_4
REMARK    2  A    between atoms: C_4  and  C_5
REMARK    3  A    between atoms: C_5  and  C_6
REMARK    4  A    between atoms: C_5  and  C_12
REMARK    5  A    between atoms: C_13  and  C_14
REMARK                            x       y       z     vdW  Elec       q    Type
REMARK                         _______ _______ _______ _____ _____    ______ ____
ROOT
ATOM      1  C   UNL     1       5.520   4.782  16.286  0.00  0.00    +0.000 A 
ATOM      2  C   UNL     1       4.445   3.884  16.134  0.00  0.00    +0.000 A 
ATOM      3  N   UNL     1       4.462   3.454  14.823  0.00  0.00    +0.000 N 
ATOM      4  C   UNL     1       5.557   3.918  14.150  0.00  0.00    +0.000 A 
ATOM      5  C   UNL     1       5.993   3.632  12.846  0.00  0.00    +0.000 A 
ATOM      6  C   UNL     1       7.151   4.266  12.382  0.00  0.00    +0.000 A 
ATOM      7  C   UNL     1       7.836   5.154  13.194  0.00  0.00    +0.000 A 
ATOM      8  C   UNL     1       7.386   5.408  14.491  0.00  0.00    +0.000 A 
ATOM      9  C   UNL     1       6.228   4.781  15.011  0.00  0.00    +0.000 A 
ATOM     10  H   UNL     1       3.784   2.819  14.426  0.00  0.00    +0.000 HD
ENDROOT
BRANCH   2  11
ATOM     11  C   UNL     1       3.469   3.317  17.088  0.00  0.00    +0.000 A 
ATOM     12  C   UNL     1       2.174   3.824  17.215  0.00  0.00    +0.000 A 
ATOM     13  C   UNL     1       1.319   3.390  18.235  0.00  0.00    +0.000 A 
ATOM     14  C   UNL     1       1.727   2.391  19.112  0.00  0.00    +0.000 A 
ATOM     15  C   UNL     1       2.977   1.802  18.947  0.00  0.00    +0.000 A 
ATOM     16  C   UNL     1       3.842   2.266  17.948  0.00  0.00    +0.000 A 
ENDBRANCH   2  11
BRANCH   1  17
ATOM     17  C   UNL     1       5.921   5.488  17.598  0.00  0.00    +0.000 C 
BRANCH  17  18
ATOM     18  C   UNL     1       4.673   6.134  18.184  0.00  0.00    +0.000 A 
ATOM     19  C   UNL     1       3.957   7.146  17.525  0.00  0.00    +0.000 A 
ATOM     20  C   UNL     1       2.764   7.598  18.073  0.00  0.00    +0.000 A 
ATOM     21  N   UNL     1       2.265   7.161  19.245  0.00  0.00    +0.000 NA
ATOM     22  C   UNL     1       2.994   6.238  19.905  0.00  0.00    +0.000 A 
ATOM     23  C   UNL     1       4.182   5.703  19.426  0.00  0.00    +0.000 A 
ENDBRANCH  17  18
BRANCH  17  24
ATOM     24  C   UNL     1       7.142   6.382  17.375  0.00  0.00    +0.000 C 
BRANCH  24  26
ATOM     25  O   UNL     1       8.515   7.583  18.831  0.00  0.00    +0.000 OA
ATOM     26  N   UNL     1       7.924   6.510  18.648  0.00  0.00    +0.000 N 
ATOM     27  O   UNL     1       7.953   5.535  19.410  0.00  0.00    +0.000 OA
ENDBRANCH  24  26
ENDBRANCH  17  24
ENDBRANCH   1  17
TORSDOF 5
ENDMDL
MODEL 6
REMARK VINA RESULT:      -7.7      2.672      5.749
REMARK  Name = 
REMARK  5 active torsions:
REMARK  status: ('A' for Active; 'I' for Inactive)
REMARK    1  A    between atoms: N_2  and  C_4
REMARK    2  A    between atoms: C_4  and  C_5
REMARK    3  A    between atoms: C_5  and  C_6
REMARK    4  A    between atoms: C_5  and  C_12
REMARK    5  A    between atoms: C_13  and  C_14
REMARK                            x       y       z     vdW  Elec       q    Type
REMARK                         _______ _______ _______ _____ _____    ______ ____
ROOT
ATOM      1  C   UNL     1       3.676   5.236  18.338  0.00  0.00    +0.000 A 
ATOM      2  C   UNL     1       2.502   5.978  18.575  0.00  0.00    +0.000 A 
ATOM      3  N   UNL     1       1.477   5.069  18.739  0.00  0.00    +0.000 N 
ATOM      4  C   UNL     1       1.937   3.782  18.750  0.00  0.00    +0.000 A 
ATOM      5  C   UNL     1       1.241   2.585  18.992  0.00  0.00    +0.000 A 
ATOM      6  C   UNL     1       1.951   1.382  18.920  0.00  0.00    +0.000 A 
ATOM      7  C   UNL     1       3.302   1.383  18.613  0.00  0.00    +0.000 A 
ATOM      8  C   UNL     1       3.969   2.589  18.393  0.00  0.00    +0.000 A 
ATOM      9  C   UNL     1       3.298   3.833  18.467  0.00  0.00    +0.000 A 
ATOM     10  H   UNL     1       0.513   5.324  18.899  0.00  0.00    +0.000 HD
ENDROOT
BRANCH   2  11
ATOM     11  C   UNL     1       2.247   7.422  18.755  0.00  0.00    +0.000 A 
ATOM     12  C   UNL     1       1.762   7.948  19.955  0.00  0.00    +0.000 A 
ATOM     13  C   UNL     1       1.367   9.288  20.056  0.00  0.00    +0.000 A 
ATOM     14  C   UNL     1       1.511  10.143  18.970  0.00  0.00    +0.000 A 
ATOM     15  C   UNL     1       2.081   9.667  17.793  0.00  0.00    +0.000 A 
ATOM     16  C   UNL     1       2.440   8.318  17.685  0.00  0.00    +0.000 A 
ENDBRANCH   2  11
BRANCH   1  17
ATOM     17  C   UNL     1       5.086   5.829  18.135  0.00  0.00    +0.000 C 
BRANCH  17  18
ATOM     18  C   UNL     1       5.585   5.396  16.763  0.00  0.00    +0.000 A 
ATOM     19  C   UNL     1       6.402   4.273  16.568  0.00  0.00    +0.000 A 
ATOM     20  C   UNL     1       6.714   3.879  15.274  0.00  0.00    +0.000 A 
ATOM     21  N   UNL     1       6.323   4.547  14.173  0.00  0.00    +0.000 NA
ATOM     22  C   UNL     1       5.594   5.665  14.372  0.00  0.00    +0.000 A 
ATOM     23  C   UNL     1       5.206   6.123  15.623  0.00  0.00    +0.000 A 
ENDBRANCH  17  18
BRANCH  17  24
ATOM     24  C   UNL     1       5.976   5.520  19.340  0.00  0.00    +0.000 C 
BRANCH  24  26
ATOM     25  O   UNL     1       8.278   5.156  19.458  0.00  0.00    +0.000 OA
ATOM     26  N   UNL     1       7.392   5.917  19.048  0.00  0.00    +0.000 N 
ATOM     27  O   UNL     1       7.582   6.985  18.451  0.00  0.00    +0.000 OA
ENDBRANCH  24  26
ENDBRANCH  17  24
ENDBRANCH   1  17
TORSDOF 5
ENDMDL
MODEL 7
REMARK VINA RESULT:      -7.6      2.741      5.673
REMARK  Name = 
REMARK  5 active torsions:
REMARK  status: ('A' for Active; 'I' for Inactive)
REMARK    1  A    between atoms: N_2  and  C_4
REMARK    2  A    between atoms: C_4  and  C_5
REMARK    3  A    between atoms: C_5  and  C_6
REMARK    4  A    between atoms: C_5  and  C_12
REMARK    5  A    between atoms: C_13  and  C_14
REMARK                            x       y       z     vdW  Elec       q    Type
REMARK                         _______ _______ _______ _____ _____    ______ ____
ROOT
ATOM      1  C   UNL     1       3.746   5.397  19.327  0.00  0.00    +0.000 A 
ATOM      2  C   UNL     1       2.574   6.162  19.484  0.00  0.00    +0.000 A 
ATOM      3  N   UNL     1       1.654   5.362  20.129  0.00  0.00    +0.000 N 
ATOM      4  C   UNL     1       2.199   4.169  20.514  0.00  0.00    +0.000 A 
ATOM      5  C   UNL     1       1.635   3.131  21.275  0.00  0.00    +0.000 A 
ATOM      6  C   UNL     1       2.408   1.989  21.511  0.00  0.00    +0.000 A 
ATOM      7  C   UNL     1       3.691   1.894  20.999  0.00  0.00    +0.000 A 
ATOM      8  C   UNL     1       4.230   2.948  20.259  0.00  0.00    +0.000 A 
ATOM      9  C   UNL     1       3.493   4.129  20.003  0.00  0.00    +0.000 A 
ATOM     10  H   UNL     1       0.710   5.647  20.350  0.00  0.00    +0.000 HD
ENDROOT
BRANCH   2  11
ATOM     11  C   UNL     1       2.249   7.572  19.186  0.00  0.00    +0.000 A 
ATOM     12  C   UNL     1       1.589   8.393  20.102  0.00  0.00    +0.000 A 
ATOM     13  C   UNL     1       1.140   9.671  19.744  0.00  0.00    +0.000 A 
ATOM     14  C   UNL     1       1.399  10.173  18.475  0.00  0.00    +0.000 A 
ATOM     15  C   UNL     1       2.138   9.412  17.574  0.00  0.00    +0.000 A 
ATOM     16  C   UNL     1       2.553   8.121  17.924  0.00  0.00    +0.000 A 
ENDBRANCH   2  11
BRANCH   1  17
ATOM     17  C   UNL     1       5.062   5.892  18.692  0.00  0.00    +0.000 C 
BRANCH  17  18
ATOM     18  C   UNL     1       5.080   5.444  17.237  0.00  0.00    +0.000 A 
ATOM     19  C   UNL     1       5.208   6.340  16.165  0.00  0.00    +0.000 A 
ATOM     20  C   UNL     1       5.334   5.841  14.877  0.00  0.00    +0.000 A 
ATOM     21  N   UNL     1       5.286   4.530  14.573  0.00  0.00    +0.000 NA
ATOM     22  C   UNL     1       5.094   3.679  15.602  0.00  0.00    +0.000 A 
ATOM     23  C   UNL     1       4.987   4.078  16.927  0.00  0.00    +0.000 A 
ENDBRANCH  17  18
BRANCH  17  24
ATOM     24  C   UNL     1       6.258   5.505  19.565  0.00  0.00    +0.000 C 
BRANCH  24  26
ATOM     25  O   UNL     1       8.090   4.589  18.446  0.00  0.00    +0.000 OA
ATOM     26  N   UNL     1       7.530   5.641  18.784  0.00  0.00    +0.000 N 
ATOM     27  O   UNL     1       7.949   6.784  18.557  0.00  0.00    +0.000 OA
ENDBRANCH  24  26
ENDBRANCH  17  24
ENDBRANCH   1  17
TORSDOF 5
ENDMDL
MODEL 8
REMARK VINA RESULT:      -7.6      4.441      7.409
REMARK  Name = 
REMARK  5 active torsions:
REMARK  status: ('A' for Active; 'I' for Inactive)
REMARK    1  A    between atoms: N_2  and  C_4
REMARK    2  A    between atoms: C_4  and  C_5
REMARK    3  A    between atoms: C_5  and  C_6
REMARK    4  A    between atoms: C_5  and  C_12
REMARK    5  A    between atoms: C_13  and  C_14
REMARK                            x       y       z     vdW  Elec       q    Type
REMARK                         _______ _______ _______ _____ _____    ______ ____
ROOT
ATOM      1  C   UNL     1       0.195  11.599  18.992  0.00  0.00    +0.000 A 
ATOM      2  C   UNL     1       1.340  10.839  18.679  0.00  0.00    +0.000 A 
ATOM      3  N   UNL     1       2.312  11.727  18.267  0.00  0.00    +0.000 N 
ATOM      4  C   UNL     1       1.910  13.025  18.414  0.00  0.00    +0.000 A 
ATOM      5  C   UNL     1       2.631  14.213  18.210  0.00  0.00    +0.000 A 
ATOM      6  C   UNL     1       1.971  15.430  18.412  0.00  0.00    +0.000 A 
ATOM      7  C   UNL     1       0.641  15.449  18.798  0.00  0.00    +0.000 A 
ATOM      8  C   UNL     1      -0.044  14.252  19.008  0.00  0.00    +0.000 A 
ATOM      9  C   UNL     1       0.583  12.996  18.830  0.00  0.00    +0.000 A 
ATOM     10  H   UNL     1       3.233  11.454  17.955  0.00  0.00    +0.000 HD
ENDROOT
BRANCH   2  11
ATOM     11  C   UNL     1       1.656   9.401  18.808  0.00  0.00    +0.000 A 
ATOM     12  C   UNL     1       1.467   8.703  20.002  0.00  0.00    +0.000 A 
ATOM     13  C   UNL     1       1.926   7.389  20.157  0.00  0.00    +0.000 A 
ATOM     14  C   UNL     1       2.530   6.728  19.094  0.00  0.00    +0.000 A 
ATOM     15  C   UNL     1       2.643   7.370  17.864  0.00  0.00    +0.000 A 
ATOM     16  C   UNL     1       2.216   8.696  17.724  0.00  0.00    +0.000 A 
ENDBRANCH   2  11
BRANCH   1  17
ATOM     17  C   UNL     1      -1.134  11.036  19.537  0.00  0.00    +0.000 C 
BRANCH  17  18
ATOM     18  C   UNL     1      -2.114  10.938  18.375  0.00  0.00    +0.000 A 
ATOM     19  C   UNL     1      -1.879  10.140  17.245  0.00  0.00    +0.000 A 
ATOM     20  C   UNL     1      -2.875  10.013  16.287  0.00  0.00    +0.000 A 
ATOM     21  N   UNL     1      -4.055  10.661  16.342  0.00  0.00    +0.000 NA
ATOM     22  C   UNL     1      -4.244  11.479  17.398  0.00  0.00    +0.000 A 
ATOM     23  C   UNL     1      -3.323  11.649  18.421  0.00  0.00    +0.000 A 
ENDBRANCH  17  18
BRANCH  17  24
ATOM     24  C   UNL     1      -1.580  11.816  20.774  0.00  0.00    +0.000 C 
BRANCH  24  26
ATOM     25  O   UNL     1      -0.732  10.158  22.180  0.00  0.00    +0.000 OA
ATOM     26  N   UNL     1      -0.792  11.377  21.971  0.00  0.00    +0.000 N 
ATOM     27  O   UNL     1      -0.283  12.254  22.682  0.00  0.00    +0.000 OA
ENDBRANCH  24  26
ENDBRANCH  17  24
ENDBRANCH   1  17
TORSDOF 5
ENDMDL
MODEL 9
REMARK VINA RESULT:      -7.6      2.579      6.097
REMARK  Name = 
REMARK  5 active torsions:
REMARK  status: ('A' for Active; 'I' for Inactive)
REMARK    1  A    between atoms: N_2  and  C_4
REMARK    2  A    between atoms: C_4  and  C_5
REMARK    3  A    between atoms: C_5  and  C_6
REMARK    4  A    between atoms: C_5  and  C_12
REMARK    5  A    between atoms: C_13  and  C_14
REMARK                            x       y       z     vdW  Elec       q    Type
REMARK                         _______ _______ _______ _____ _____    ______ ____
ROOT
ATOM      1  C   UNL     1       4.986   4.840  16.870  0.00  0.00    +0.000 A 
ATOM      2  C   UNL     1       3.987   3.879  16.614  0.00  0.00    +0.000 A 
ATOM      3  N   UNL     1       4.167   3.450  15.315  0.00  0.00    +0.000 N 
ATOM      4  C   UNL     1       5.297   3.978  14.756  0.00  0.00    +0.000 A 
ATOM      5  C   UNL     1       5.883   3.717  13.507  0.00  0.00    +0.000 A 
ATOM      6  C   UNL     1       7.042   4.418  13.160  0.00  0.00    +0.000 A 
ATOM      7  C   UNL     1       7.585   5.347  14.033  0.00  0.00    +0.000 A 
ATOM      8  C   UNL     1       6.989   5.575  15.274  0.00  0.00    +0.000 A 
ATOM      9  C   UNL     1       5.822   4.880  15.676  0.00  0.00    +0.000 A 
ATOM     10  H   UNL     1       3.573   2.776  14.854  0.00  0.00    +0.000 HD
ENDROOT
BRANCH   2  11
ATOM     11  C   UNL     1       2.953   3.257  17.464  0.00  0.00    +0.000 A 
ATOM     12  C   UNL     1       1.673   3.800  17.596  0.00  0.00    +0.000 A 
ATOM     13  C   UNL     1       0.761   3.297  18.532  0.00  0.00    +0.000 A 
ATOM     14  C   UNL     1       1.095   2.196  19.313  0.00  0.00    +0.000 A 
ATOM     15  C   UNL     1       2.328   1.577  19.133  0.00  0.00    +0.000 A 
ATOM     16  C   UNL     1       3.251   2.106  18.222  0.00  0.00    +0.000 A 
ENDBRANCH   2  11
BRANCH   1  17
ATOM     17  C   UNL     1       5.205   5.571  18.212  0.00  0.00    +0.000 C 
BRANCH  17  18
ATOM     18  C   UNL     1       4.005   6.475  18.456  0.00  0.00    +0.000 A 
ATOM     19  C   UNL     1       3.177   6.356  19.583  0.00  0.00    +0.000 A 
ATOM     20  C   UNL     1       2.176   7.295  19.790  0.00  0.00    +0.000 A 
ATOM     21  N   UNL     1       1.905   8.301  18.937  0.00  0.00    +0.000 NA
ATOM     22  C   UNL     1       2.661   8.367  17.821  0.00  0.00    +0.000 A 
ATOM     23  C   UNL     1       3.703   7.495  17.540  0.00  0.00    +0.000 A 
ENDBRANCH  17  18
BRANCH  17  24
ATOM     24  C   UNL     1       6.593   6.211  18.253  0.00  0.00    +0.000 C 
BRANCH  24  26
ATOM     25  O   UNL     1       7.660   5.505  20.205  0.00  0.00    +0.000 OA
ATOM     26  N   UNL     1       7.549   5.319  18.986  0.00  0.00    +0.000 N 
ATOM     27  O   UNL     1       8.182   4.484  18.326  0.00  0.00    +0.000 OA
ENDBRANCH  24  26
ENDBRANCH  17  24
ENDBRANCH   1  17
TORSDOF 5
ENDMDL
