MODEL 1
REMARK VINA RESULT:      -8.3      0.000      0.000
REMARK  Name = 
REMARK  7 active torsions:
REMARK  status: ('A' for Active; 'I' for Inactive)
REMARK    1  A    between atoms: N_1  and  C_2
REMARK    2  A    between atoms: C_2  and  C_3
REMARK    3  A    between atoms: C_6  and  C_7
REMARK    4  A    between atoms: C_10  and  C_11
REMARK    5  A    between atoms: C_15  and  C_16
REMARK    6  A    between atoms: C_23  and  C_24
REMARK    7  A    between atoms: C_25  and  O_26
REMARK                            x       y       z     vdW  Elec       q    Type
REMARK                         _______ _______ _______ _____ _____    ______ ____
ROOT
ATOM      1  C   UNL     1      -0.261  10.436  19.117  0.00  0.00    +0.000 C 
ATOM      2  O   UNL     1      -1.463  10.243  18.907  0.00  0.00    +0.000 OA
ATOM      3  N   UNL     1       0.203  11.742  19.316  0.00  0.00    +0.000 N 
ATOM      4  N   UNL     1       1.520  12.078  19.171  0.00  0.00    +0.000 NA
ATOM      5  C   UNL     1       1.623  13.354  19.361  0.00  0.00    +0.000 C 
ATOM      6  C   UNL     1       0.328  14.074  19.609  0.00  0.00    +0.000 C 
ATOM      7  C   UNL     1      -0.661  12.910  19.476  0.00  0.00    +0.000 C 
ENDROOT
BRANCH   7   8
ATOM      8  C   UNL     1      -1.596  12.815  20.661  0.00  0.00    +0.000 A 
ATOM      9  C   UNL     1      -2.985  12.770  20.510  0.00  0.00    +0.000 A 
ATOM     10  C   UNL     1      -3.841  12.756  21.613  0.00  0.00    +0.000 A 
ATOM     11  C   UNL     1      -3.314  12.752  22.903  0.00  0.00    +0.000 A 
ATOM     12  C   UNL     1      -1.935  12.768  23.082  0.00  0.00    +0.000 A 
ATOM     13  C   UNL     1      -1.095  12.803  21.970  0.00  0.00    +0.000 A 
ATOM     14  F   UNL     1       0.229  12.851  22.181  0.00  0.00    +0.000 F 
BRANCH   9  15
ATOM     15  O   UNL     1      -3.570  12.741  19.276  0.00  0.00    +0.000 OA
ATOM     16  H   UNL     1      -4.510  12.977  19.406  0.00  0.00    +0.000 HD
ENDBRANCH   9  15
ENDBRANCH   7   8
BRANCH   5  17
ATOM     17  C   UNL     1       2.928  14.033  19.352  0.00  0.00    +0.000 A 
ATOM     18  C   UNL     1       3.554  14.435  18.177  0.00  0.00    +0.000 A 
ATOM     19  C   UNL     1       4.784  15.083  18.253  0.00  0.00    +0.000 A 
ATOM     20  C   UNL     1       5.341  15.308  19.504  0.00  0.00    +0.000 A 
ATOM     21  N   UNL     1       4.757  14.938  20.661  0.00  0.00    +0.000 NA
ATOM     22  C   UNL     1       3.561  14.310  20.562  0.00  0.00    +0.000 A 
ENDBRANCH   5  17
BRANCH   1  26
ATOM     23  C   UNL     1       2.452   7.630  18.651  0.00  0.00    +0.000 A 
ATOM     24  C   UNL     1       2.102   7.617  19.986  0.00  0.00    +0.000 A 
ATOM     25  C   UNL     1       1.085   8.559  20.288  0.00  0.00    +0.000 A 
ATOM     26  C   UNL     1       0.735   9.358  19.214  0.00  0.00    +0.000 A 
ATOM     27  S   UNL     1       1.614   8.881  17.819  0.00  0.00    +0.000 S 
BRANCH  23  31
ATOM     28  C   UNL     1       5.181   4.961  16.660  0.00  0.00    +0.000 A 
ATOM     29  C   UNL     1       5.340   6.349  16.579  0.00  0.00    +0.000 A 
ATOM     30  C   UNL     1       4.434   7.205  17.212  0.00  0.00    +0.000 A 
ATOM     31  C   UNL     1       3.347   6.699  17.944  0.00  0.00    +0.000 A 
ATOM     32  C   UNL     1       3.175   5.310  17.994  0.00  0.00    +0.000 A 
ATOM     33  C   UNL     1       4.083   4.451  17.365  0.00  0.00    +0.000 A 
BRANCH  28  34
ATOM     34  C   UNL     1       6.172   4.038  16.002  0.00  0.00    +0.000 C 
BRANCH  34  35
ATOM     35  N   UNL     1       7.524   4.259  16.500  0.00  0.00    +0.000 NA
ATOM     36  H   UNL     1       7.502   4.956  17.237  0.00  0.00    +0.000 HD
ATOM     37  H   UNL     1       8.090   4.652  15.746  0.00  0.00    +0.000 HD
ENDBRANCH  34  35
ENDBRANCH  28  34
ENDBRANCH  23  31
ENDBRANCH   1  26
TORSDOF 7
ENDMDL
MODEL 2
REMARK VINA RESULT:      -8.2      0.552      1.202
REMARK  Name = 
REMARK  7 active torsions:
REMARK  status: ('A' for Active; 'I' for Inactive)
REMARK    1  A    between atoms: N_1  and  C_2
REMARK    2  A    between atoms: C_2  and  C_3
REMARK    3  A    between atoms: C_6  and  C_7
REMARK    4  A    between atoms: C_10  and  C_11
REMARK    5  A    between atoms: C_15  and  C_16
REMARK    6  A    between atoms: C_23  and  C_24
REMARK    7  A    between atoms: C_25  and  O_26
REMARK                            x       y       z     vdW  Elec       q    Type
REMARK                         _______ _______ _______ _____ _____    ______ ____
ROOT
ATOM      1  C   UNL     1      -0.259  10.374  19.145  0.00  0.00    +0.000 C 
ATOM      2  O   UNL     1      -1.454  10.167  18.908  0.00  0.00    +0.000 OA
ATOM      3  N   UNL     1       0.176  11.679  19.404  0.00  0.00    +0.000 N 
ATOM      4  N   UNL     1       1.488  12.046  19.295  0.00  0.00    +0.000 NA
ATOM      5  C   UNL     1       1.563  13.314  19.539  0.00  0.00    +0.000 C 
ATOM      6  C   UNL     1       0.250  13.999  19.793  0.00  0.00    +0.000 C 
ATOM      7  C   UNL     1      -0.713  12.823  19.597  0.00  0.00    +0.000 C 
ENDROOT
BRANCH   7   8
ATOM      8  C   UNL     1      -1.665  12.662  20.761  0.00  0.00    +0.000 A 
ATOM      9  C   UNL     1      -3.045  12.838  20.624  0.00  0.00    +0.000 A 
ATOM     10  C   UNL     1      -3.906  12.758  21.720  0.00  0.00    +0.000 A 
ATOM     11  C   UNL     1      -3.399  12.464  22.984  0.00  0.00    +0.000 A 
ATOM     12  C   UNL     1      -2.033  12.257  23.144  0.00  0.00    +0.000 A 
ATOM     13  C   UNL     1      -1.184  12.361  22.043  0.00  0.00    +0.000 A 
ATOM     14  F   UNL     1       0.131  12.187  22.242  0.00  0.00    +0.000 F 
BRANCH   9  15
ATOM     15  O   UNL     1      -3.616  13.098  19.410  0.00  0.00    +0.000 OA
ATOM     16  H   UNL     1      -2.891  13.096  18.754  0.00  0.00    +0.000 HD
ENDBRANCH   9  15
ENDBRANCH   7   8
BRANCH   5  17
ATOM     17  C   UNL     1       2.855  14.018  19.578  0.00  0.00    +0.000 A 
ATOM     18  C   UNL     1       3.484  14.359  20.771  0.00  0.00    +0.000 A 
ATOM     19  C   UNL     1       4.711  15.015  20.723  0.00  0.00    +0.000 A 
ATOM     20  C   UNL     1       5.266  15.301  19.484  0.00  0.00    +0.000 A 
ATOM     21  N   UNL     1       4.685  14.977  18.312  0.00  0.00    +0.000 NA
ATOM     22  C   UNL     1       3.493  14.339  18.383  0.00  0.00    +0.000 A 
ENDBRANCH   5  17
BRANCH   1  26
ATOM     23  C   UNL     1       2.510   7.636  18.611  0.00  0.00    +0.000 A 
ATOM     24  C   UNL     1       2.150   7.572  19.942  0.00  0.00    +0.000 A 
ATOM     25  C   UNL     1       1.113   8.485  20.266  0.00  0.00    +0.000 A 
ATOM     26  C   UNL     1       0.756   9.312  19.216  0.00  0.00    +0.000 A 
ATOM     27  S   UNL     1       1.655   8.897  17.813  0.00  0.00    +0.000 S 
BRANCH  23  31
ATOM     28  C   UNL     1       5.080   4.974  16.409  0.00  0.00    +0.000 A 
ATOM     29  C   UNL     1       4.055   4.479  17.223  0.00  0.00    +0.000 A 
ATOM     30  C   UNL     1       3.241   5.354  17.949  0.00  0.00    +0.000 A 
ATOM     31  C   UNL     1       3.428   6.745  17.882  0.00  0.00    +0.000 A 
ATOM     32  C   UNL     1       4.476   7.231  17.091  0.00  0.00    +0.000 A 
ATOM     33  C   UNL     1       5.289   6.358  16.359  0.00  0.00    +0.000 A 
BRANCH  28  34
ATOM     34  C   UNL     1       5.938   4.034  15.604  0.00  0.00    +0.000 C 
BRANCH  34  35
ATOM     35  N   UNL     1       7.325   4.480  15.557  0.00  0.00    +0.000 NA
ATOM     36  H   UNL     1       7.916   3.711  15.258  0.00  0.00    +0.000 HD
ATOM     37  H   UNL     1       7.622   4.725  16.502  0.00  0.00    +0.000 HD
ENDBRANCH  34  35
ENDBRANCH  28  34
ENDBRANCH  23  31
ENDBRANCH   1  26
TORSDOF 7
ENDMDL
MODEL 3
REMARK VINA RESULT:      -8.0      1.132      1.671
REMARK  Name = 
REMARK  7 active torsions:
REMARK  status: ('A' for Active; 'I' for Inactive)
REMARK    1  A    between atoms: N_1  and  C_2
REMARK    2  A    between atoms: C_2  and  C_3
REMARK    3  A    between atoms: C_6  and  C_7
REMARK    4  A    between atoms: C_10  and  C_11
REMARK    5  A    between atoms: C_15  and  C_16
REMARK    6  A    between atoms: C_23  and  C_24
REMARK    7  A    between atoms: C_25  and  O_26
REMARK                            x       y       z     vdW  Elec       q    Type
REMARK                         _______ _______ _______ _____ _____    ______ ____
ROOT
ATOM      1  C   UNL     1      -0.293  10.311  19.203  0.00  0.00    +0.000 C 
ATOM      2  O   UNL     1      -1.497  10.065  19.073  0.00  0.00    +0.000 OA
ATOM      3  N   UNL     1       0.128  11.638  19.346  0.00  0.00    +0.000 N 
ATOM      4  N   UNL     1       1.418  12.024  19.111  0.00  0.00    +0.000 NA
ATOM      5  C   UNL     1       1.479  13.307  19.269  0.00  0.00    +0.000 C 
ATOM      6  C   UNL     1       0.173  13.980  19.582  0.00  0.00    +0.000 C 
ATOM      7  C   UNL     1      -0.773  12.775  19.535  0.00  0.00    +0.000 C 
ENDROOT
BRANCH   7   8
ATOM      8  C   UNL     1      -1.628  12.670  20.778  0.00  0.00    +0.000 A 
ATOM      9  C   UNL     1      -1.088  12.358  22.029  0.00  0.00    +0.000 A 
ATOM     10  C   UNL     1      -1.897  12.192  23.155  0.00  0.00    +0.000 A 
ATOM     11  C   UNL     1      -3.275  12.369  23.054  0.00  0.00    +0.000 A 
ATOM     12  C   UNL     1      -3.837  12.706  21.827  0.00  0.00    +0.000 A 
ATOM     13  C   UNL     1      -3.017  12.848  20.708  0.00  0.00    +0.000 A 
ATOM     14  F   UNL     1      -3.597  13.141  19.534  0.00  0.00    +0.000 F 
BRANCH   9  15
ATOM     15  O   UNL     1       0.257  12.201  22.208  0.00  0.00    +0.000 OA
ATOM     16  H   UNL     1       0.369  11.586  22.960  0.00  0.00    +0.000 HD
ENDBRANCH   9  15
ENDBRANCH   7   8
BRANCH   5  17
ATOM     17  C   UNL     1       2.752  14.038  19.163  0.00  0.00    +0.000 A 
ATOM     18  C   UNL     1       3.228  14.541  17.957  0.00  0.00    +0.000 A 
ATOM     19  C   UNL     1       4.437  15.232  17.944  0.00  0.00    +0.000 A 
ATOM     20  C   UNL     1       5.123  15.397  19.138  0.00  0.00    +0.000 A 
ATOM     21  N   UNL     1       4.685  14.928  20.324  0.00  0.00    +0.000 NA
ATOM     22  C   UNL     1       3.507  14.261  20.313  0.00  0.00    +0.000 A 
ENDBRANCH   5  17
BRANCH   1  26
ATOM     23  C   UNL     1       2.525   7.632  18.630  0.00  0.00    +0.000 A 
ATOM     24  C   UNL     1       2.212   7.588  19.974  0.00  0.00    +0.000 A 
ATOM     25  C   UNL     1       1.164   8.481  20.315  0.00  0.00    +0.000 A 
ATOM     26  C   UNL     1       0.750   9.276  19.261  0.00  0.00    +0.000 A 
ATOM     27  S   UNL     1       1.611   8.854  17.837  0.00  0.00    +0.000 S 
BRANCH  23  31
ATOM     28  C   UNL     1       5.087   4.994  16.390  0.00  0.00    +0.000 A 
ATOM     29  C   UNL     1       4.053   4.492  17.189  0.00  0.00    +0.000 A 
ATOM     30  C   UNL     1       3.243   5.358  17.928  0.00  0.00    +0.000 A 
ATOM     31  C   UNL     1       3.440   6.748  17.889  0.00  0.00    +0.000 A 
ATOM     32  C   UNL     1       4.496   7.242  17.113  0.00  0.00    +0.000 A 
ATOM     33  C   UNL     1       5.306   6.378  16.369  0.00  0.00    +0.000 A 
BRANCH  28  34
ATOM     34  C   UNL     1       5.942   4.064  15.571  0.00  0.00    +0.000 C 
BRANCH  34  35
ATOM     35  N   UNL     1       7.240   4.654  15.268  0.00  0.00    +0.000 NA
ATOM     36  H   UNL     1       7.441   5.389  15.939  0.00  0.00    +0.000 HD
ATOM     37  H   UNL     1       7.189   5.103  14.352  0.00  0.00    +0.000 HD
ENDBRANCH  34  35
ENDBRANCH  28  34
ENDBRANCH  23  31
ENDBRANCH   1  26
TORSDOF 7
ENDMDL
MODEL 4
REMARK VINA RESULT:      -8.0      2.469      4.688
REMARK  Name = 
REMARK  7 active torsions:
REMARK  status: ('A' for Active; 'I' for Inactive)
REMARK    1  A    between atoms: N_1  and  C_2
REMARK    2  A    between atoms: C_2  and  C_3
REMARK    3  A    between atoms: C_6  and  C_7
REMARK    4  A    between atoms: C_10  and  C_11
REMARK    5  A    between atoms: C_15  and  C_16
REMARK    6  A    between atoms: C_23  and  C_24
REMARK    7  A    between atoms: C_25  and  O_26
REMARK                            x       y       z     vdW  Elec       q    Type
REMARK                         _______ _______ _______ _____ _____    ______ ____
ROOT
ATOM      1  C   UNL     1       0.490  10.018  21.296  0.00  0.00    +0.000 C 
ATOM      2  O   UNL     1       0.711  10.464  22.426  0.00  0.00    +0.000 OA
ATOM      3  N   UNL     1      -0.347  10.727  20.426  0.00  0.00    +0.000 N 
ATOM      4  N   UNL     1      -0.939  10.141  19.343  0.00  0.00    +0.000 NA
ATOM      5  C   UNL     1      -1.689  11.030  18.776  0.00  0.00    +0.000 C 
ATOM      6  C   UNL     1      -1.745  12.361  19.469  0.00  0.00    +0.000 C 
ATOM      7  C   UNL     1      -0.853  12.075  20.683  0.00  0.00    +0.000 C 
ENDROOT
BRANCH   7   8
ATOM      8  C   UNL     1       0.236  13.110  20.852  0.00  0.00    +0.000 A 
ATOM      9  C   UNL     1       0.261  13.994  21.934  0.00  0.00    +0.000 A 
ATOM     10  C   UNL     1       1.229  14.993  22.042  0.00  0.00    +0.000 A 
ATOM     11  C   UNL     1       2.224  15.107  21.072  0.00  0.00    +0.000 A 
ATOM     12  C   UNL     1       2.239  14.223  19.998  0.00  0.00    +0.000 A 
ATOM     13  C   UNL     1       1.251  13.243  19.895  0.00  0.00    +0.000 A 
ATOM     14  F   UNL     1       1.278  12.430  18.828  0.00  0.00    +0.000 F 
BRANCH   9  15
ATOM     15  O   UNL     1      -0.663  13.921  22.938  0.00  0.00    +0.000 OA
ATOM     16  H   UNL     1      -0.675  14.798  23.372  0.00  0.00    +0.000 HD
ENDBRANCH   9  15
ENDBRANCH   7   8
BRANCH   5  17
ATOM     17  C   UNL     1      -2.416  10.745  17.528  0.00  0.00    +0.000 A 
ATOM     18  C   UNL     1      -1.956   9.830  16.587  0.00  0.00    +0.000 A 
ATOM     19  C   UNL     1      -2.708   9.608  15.437  0.00  0.00    +0.000 A 
ATOM     20  C   UNL     1      -3.895  10.307  15.272  0.00  0.00    +0.000 A 
ATOM     21  N   UNL     1      -4.371  11.194  16.169  0.00  0.00    +0.000 NA
ATOM     22  C   UNL     1      -3.623  11.393  17.280  0.00  0.00    +0.000 A 
ENDBRANCH   5  17
BRANCH   1  26
ATOM     23  C   UNL     1       2.382   7.150  19.386  0.00  0.00    +0.000 A 
ATOM     24  C   UNL     1       1.660   6.540  20.392  0.00  0.00    +0.000 A 
ATOM     25  C   UNL     1       0.884   7.463  21.139  0.00  0.00    +0.000 A 
ATOM     26  C   UNL     1       1.091   8.782  20.774  0.00  0.00    +0.000 A 
ATOM     27  S   UNL     1       2.189   8.858  19.455  0.00  0.00    +0.000 S 
BRANCH  23  31
ATOM     28  C   UNL     1       4.803   5.320  16.333  0.00  0.00    +0.000 A 
ATOM     29  C   UNL     1       4.799   6.707  16.516  0.00  0.00    +0.000 A 
ATOM     30  C   UNL     1       3.992   7.290  17.497  0.00  0.00    +0.000 A 
ATOM     31  C   UNL     1       3.169   6.505  18.322  0.00  0.00    +0.000 A 
ATOM     32  C   UNL     1       3.153   5.121  18.111  0.00  0.00    +0.000 A 
ATOM     33  C   UNL     1       3.964   4.534  17.134  0.00  0.00    +0.000 A 
BRANCH  28  34
ATOM     34  C   UNL     1       5.694   4.688  15.296  0.00  0.00    +0.000 C 
BRANCH  34  35
ATOM     35  N   UNL     1       7.004   5.324  15.255  0.00  0.00    +0.000 NA
ATOM     36  H   UNL     1       7.625   4.780  14.665  0.00  0.00    +0.000 HD
ATOM     37  H   UNL     1       7.407   5.307  16.193  0.00  0.00    +0.000 HD
ENDBRANCH  34  35
ENDBRANCH  28  34
ENDBRANCH  23  31
ENDBRANCH   1  26
TORSDOF 7
ENDMDL
MODEL 5
REMARK VINA RESULT:      -8.0      2.941      5.062
REMARK  Name = 
REMARK  7 active torsions:
REMARK  status: ('A' for Active; 'I' for Inactive)
REMARK    1  A    between atoms: N_1  and  C_2
REMARK    2  A    between atoms: C_2  and  C_3
REMARK    3  A    between atoms: C_6  and  C_7
REMARK    4  A    between atoms: C_10  and  C_11
REMARK    5  A    between atoms: C_15  and  C_16
REMARK    6  A    between atoms: C_23  and  C_24
REMARK    7  A    between atoms: C_25  and  O_26
REMARK                            x       y       z     vdW  Elec       q    Type
REMARK                         _______ _______ _______ _____ _____    ______ ____
ROOT
ATOM      1  C   UNL     1       0.758  10.266  20.838  0.00  0.00    +0.000 C 
ATOM      2  O   UNL     1       1.103  10.614  21.972  0.00  0.00    +0.000 OA
ATOM      3  N   UNL     1      -0.228  10.996  20.163  0.00  0.00    +0.000 N 
ATOM      4  N   UNL     1      -0.926  10.477  19.109  0.00  0.00    +0.000 NA
ATOM      5  C   UNL     1      -1.795  11.362  18.740  0.00  0.00    +0.000 C 
ATOM      6  C   UNL     1      -1.833  12.612  19.572  0.00  0.00    +0.000 C 
ATOM      7  C   UNL     1      -0.772  12.272  20.624  0.00  0.00    +0.000 C 
ENDROOT
BRANCH   7   8
ATOM      8  C   UNL     1       0.269  13.361  20.761  0.00  0.00    +0.000 A 
ATOM      9  C   UNL     1       0.397  14.125  21.925  0.00  0.00    +0.000 A 
ATOM     10  C   UNL     1       1.313  15.175  22.013  0.00  0.00    +0.000 A 
ATOM     11  C   UNL     1       2.150  15.463  20.937  0.00  0.00    +0.000 A 
ATOM     12  C   UNL     1       2.062  14.701  19.776  0.00  0.00    +0.000 A 
ATOM     13  C   UNL     1       1.128  13.668  19.697  0.00  0.00    +0.000 A 
ATOM     14  F   UNL     1       1.049  12.977  18.550  0.00  0.00    +0.000 F 
BRANCH   9  15
ATOM     15  O   UNL     1      -0.368  13.879  23.030  0.00  0.00    +0.000 OA
ATOM     16  H   UNL     1       0.241  13.563  23.727  0.00  0.00    +0.000 HD
ENDBRANCH   9  15
ENDBRANCH   7   8
BRANCH   5  17
ATOM     17  C   UNL     1      -2.665  11.150  17.572  0.00  0.00    +0.000 A 
ATOM     18  C   UNL     1      -2.239  10.472  16.435  0.00  0.00    +0.000 A 
ATOM     19  C   UNL     1      -3.127  10.303  15.376  0.00  0.00    +0.000 A 
ATOM     20  C   UNL     1      -4.412  10.814  15.496  0.00  0.00    +0.000 A 
ATOM     21  N   UNL     1      -4.858  11.468  16.588  0.00  0.00    +0.000 NA
ATOM     22  C   UNL     1      -3.976  11.620  17.605  0.00  0.00    +0.000 A 
ENDBRANCH   5  17
BRANCH   1  26
ATOM     23  C   UNL     1       2.299   6.888  19.547  0.00  0.00    +0.000 A 
ATOM     24  C   UNL     1       2.378   7.781  18.496  0.00  0.00    +0.000 A 
ATOM     25  C   UNL     1       1.894   9.069  18.843  0.00  0.00    +0.000 A 
ATOM     26  C   UNL     1       1.354   9.133  20.115  0.00  0.00    +0.000 A 
ATOM     27  S   UNL     1       1.521   7.614  20.898  0.00  0.00    +0.000 S 
BRANCH  23  31
ATOM     28  C   UNL     1       4.009   2.945  19.788  0.00  0.00    +0.000 A 
ATOM     29  C   UNL     1       4.613   3.948  19.022  0.00  0.00    +0.000 A 
ATOM     30  C   UNL     1       4.035   5.218  18.935  0.00  0.00    +0.000 A 
ATOM     31  C   UNL     1       2.842   5.521  19.611  0.00  0.00    +0.000 A 
ATOM     32  C   UNL     1       2.226   4.503  20.349  0.00  0.00    +0.000 A 
ATOM     33  C   UNL     1       2.804   3.232  20.442  0.00  0.00    +0.000 A 
BRANCH  28  34
ATOM     34  C   UNL     1       4.646   1.585  19.906  0.00  0.00    +0.000 C 
BRANCH  34  35
ATOM     35  N   UNL     1       4.340   0.747  18.753  0.00  0.00    +0.000 NA
ATOM     36  H   UNL     1       5.102   0.803  18.085  0.00  0.00    +0.000 HD
ATOM     37  H   UNL     1       3.515   1.124  18.285  0.00  0.00    +0.000 HD
ENDBRANCH  34  35
ENDBRANCH  28  34
ENDBRANCH  23  31
ENDBRANCH   1  26
TORSDOF 7
ENDMDL
MODEL 6
REMARK VINA RESULT:      -8.0      2.962      5.149
REMARK  Name = 
REMARK  7 active torsions:
REMARK  status: ('A' for Active; 'I' for Inactive)
REMARK    1  A    between atoms: N_1  and  C_2
REMARK    2  A    between atoms: C_2  and  C_3
REMARK    3  A    between atoms: C_6  and  C_7
REMARK    4  A    between atoms: C_10  and  C_11
REMARK    5  A    between atoms: C_15  and  C_16
REMARK    6  A    between atoms: C_23  and  C_24
REMARK    7  A    between atoms: C_25  and  O_26
REMARK                            x       y       z     vdW  Elec       q    Type
REMARK                         _______ _______ _______ _____ _____    ______ ____
ROOT
ATOM      1  C   UNL     1       0.665  10.223  20.753  0.00  0.00    +0.000 C 
ATOM      2  O   UNL     1       0.962  10.589  21.895  0.00  0.00    +0.000 OA
ATOM      3  N   UNL     1      -0.329  10.910  20.046  0.00  0.00    +0.000 N 
ATOM      4  N   UNL     1      -0.974  10.360  18.974  0.00  0.00    +0.000 NA
ATOM      5  C   UNL     1      -1.868  11.207  18.576  0.00  0.00    +0.000 C 
ATOM      6  C   UNL     1      -1.982  12.457  19.401  0.00  0.00    +0.000 C 
ATOM      7  C   UNL     1      -0.939  12.164  20.486  0.00  0.00    +0.000 C 
ENDROOT
BRANCH   7   8
ATOM      8  C   UNL     1       0.051  13.295  20.649  0.00  0.00    +0.000 A 
ATOM      9  C   UNL     1       0.331  13.864  21.895  0.00  0.00    +0.000 A 
ATOM     10  C   UNL     1       1.192  14.956  22.024  0.00  0.00    +0.000 A 
ATOM     11  C   UNL     1       1.822  15.483  20.898  0.00  0.00    +0.000 A 
ATOM     12  C   UNL     1       1.582  14.919  19.650  0.00  0.00    +0.000 A 
ATOM     13  C   UNL     1       0.703  13.842  19.536  0.00  0.00    +0.000 A 
ATOM     14  F   UNL     1       0.471  13.345  18.312  0.00  0.00    +0.000 F 
BRANCH   9  15
ATOM     15  O   UNL     1      -0.225  13.379  23.045  0.00  0.00    +0.000 OA
ATOM     16  H   UNL     1      -0.810  14.082  23.391  0.00  0.00    +0.000 HD
ENDBRANCH   9  15
ENDBRANCH   7   8
BRANCH   5  17
ATOM     17  C   UNL     1      -2.694  10.956  17.384  0.00  0.00    +0.000 A 
ATOM     18  C   UNL     1      -3.928  11.566  17.187  0.00  0.00    +0.000 A 
ATOM     19  C   UNL     1      -4.644  11.283  16.027  0.00  0.00    +0.000 A 
ATOM     20  C   UNL     1      -4.096  10.405  15.103  0.00  0.00    +0.000 A 
ATOM     21  N   UNL     1      -2.899   9.804  15.261  0.00  0.00    +0.000 NA
ATOM     22  C   UNL     1      -2.221  10.094  16.397  0.00  0.00    +0.000 A 
ENDBRANCH   5  17
BRANCH   1  26
ATOM     23  C   UNL     1       2.380   6.908  19.520  0.00  0.00    +0.000 A 
ATOM     24  C   UNL     1       2.456   7.801  18.470  0.00  0.00    +0.000 A 
ATOM     25  C   UNL     1       1.911   9.070  18.797  0.00  0.00    +0.000 A 
ATOM     26  C   UNL     1       1.328   9.114  20.052  0.00  0.00    +0.000 A 
ATOM     27  S   UNL     1       1.531   7.604  20.844  0.00  0.00    +0.000 S 
BRANCH  23  31
ATOM     28  C   UNL     1       3.996   2.923  19.718  0.00  0.00    +0.000 A 
ATOM     29  C   UNL     1       2.843   3.271  20.431  0.00  0.00    +0.000 A 
ATOM     30  C   UNL     1       2.342   4.574  20.375  0.00  0.00    +0.000 A 
ATOM     31  C   UNL     1       2.975   5.564  19.605  0.00  0.00    +0.000 A 
ATOM     32  C   UNL     1       4.146   5.217  18.920  0.00  0.00    +0.000 A 
ATOM     33  C   UNL     1       4.648   3.912  18.970  0.00  0.00    +0.000 A 
BRANCH  28  34
ATOM     34  C   UNL     1       4.521   1.511  19.754  0.00  0.00    +0.000 C 
BRANCH  34  35
ATOM     35  N   UNL     1       4.119   0.759  18.573  0.00  0.00    +0.000 NA
ATOM     36  H   UNL     1       4.694   1.037  17.784  0.00  0.00    +0.000 HD
ATOM     37  H   UNL     1       3.158   1.010  18.336  0.00  0.00    +0.000 HD
ENDBRANCH  34  35
ENDBRANCH  28  34
ENDBRANCH  23  31
ENDBRANCH   1  26
TORSDOF 7
ENDMDL
MODEL 7
REMARK VINA RESULT:      -7.9      1.226      1.673
REMARK  Name = 
REMARK  7 active torsions:
REMARK  status: ('A' for Active; 'I' for Inactive)
REMARK    1  A    between atoms: N_1  and  C_2
REMARK    2  A    between atoms: C_2  and  C_3
REMARK    3  A    between atoms: C_6  and  C_7
REMARK    4  A    between atoms: C_10  and  C_11
REMARK    5  A    between atoms: C_15  and  C_16
REMARK    6  A    between atoms: C_23  and  C_24
REMARK    7  A    between atoms: C_25  and  O_26
REMARK                            x       y       z     vdW  Elec       q    Type
REMARK                         _______ _______ _______ _____ _____    ______ ____
ROOT
ATOM      1  C   UNL     1      -0.209  10.343  19.231  0.00  0.00    +0.000 C 
ATOM      2  O   UNL     1      -1.415  10.127  19.073  0.00  0.00    +0.000 OA
ATOM      3  N   UNL     1       0.235  11.653  19.443  0.00  0.00    +0.000 N 
ATOM      4  N   UNL     1       1.536  12.024  19.246  0.00  0.00    +0.000 NA
ATOM      5  C   UNL     1       1.619  13.296  19.465  0.00  0.00    +0.000 C 
ATOM      6  C   UNL     1       0.322  13.979  19.793  0.00  0.00    +0.000 C 
ATOM      7  C   UNL     1      -0.646  12.797  19.675  0.00  0.00    +0.000 C 
ENDROOT
BRANCH   7   8
ATOM      8  C   UNL     1      -1.521  12.649  20.899  0.00  0.00    +0.000 A 
ATOM      9  C   UNL     1      -1.021  12.190  22.121  0.00  0.00    +0.000 A 
ATOM     10  C   UNL     1      -1.852  11.989  23.224  0.00  0.00    +0.000 A 
ATOM     11  C   UNL     1      -3.213  12.277  23.133  0.00  0.00    +0.000 A 
ATOM     12  C   UNL     1      -3.733  12.761  21.936  0.00  0.00    +0.000 A 
ATOM     13  C   UNL     1      -2.892  12.937  20.838  0.00  0.00    +0.000 A 
ATOM     14  F   UNL     1      -3.434  13.373  19.692  0.00  0.00    +0.000 F 
BRANCH   9  15
ATOM     15  O   UNL     1       0.307  11.917  22.293  0.00  0.00    +0.000 OA
ATOM     16  H   UNL     1       0.429  10.972  22.076  0.00  0.00    +0.000 HD
ENDBRANCH   9  15
ENDBRANCH   7   8
BRANCH   5  17
ATOM     17  C   UNL     1       2.908  14.006  19.413  0.00  0.00    +0.000 A 
ATOM     18  C   UNL     1       3.615  14.358  20.558  0.00  0.00    +0.000 A 
ATOM     19  C   UNL     1       4.833  15.018  20.423  0.00  0.00    +0.000 A 
ATOM     20  C   UNL     1       5.301  15.299  19.148  0.00  0.00    +0.000 A 
ATOM     21  N   UNL     1       4.643  14.965  18.019  0.00  0.00    +0.000 NA
ATOM     22  C   UNL     1       3.461  14.323  18.175  0.00  0.00    +0.000 A 
ENDBRANCH   5  17
BRANCH   1  26
ATOM     23  C   UNL     1       2.556   7.630  18.566  0.00  0.00    +0.000 A 
ATOM     24  C   UNL     1       2.241   7.545  19.907  0.00  0.00    +0.000 A 
ATOM     25  C   UNL     1       1.211   8.447  20.279  0.00  0.00    +0.000 A 
ATOM     26  C   UNL     1       0.814   9.286  19.253  0.00  0.00    +0.000 A 
ATOM     27  S   UNL     1       1.668   8.897  17.815  0.00  0.00    +0.000 S 
BRANCH  23  31
ATOM     28  C   UNL     1       5.294   5.122  16.386  0.00  0.00    +0.000 A 
ATOM     29  C   UNL     1       5.429   6.515  16.380  0.00  0.00    +0.000 A 
ATOM     30  C   UNL     1       4.521   7.318  17.075  0.00  0.00    +0.000 A 
ATOM     31  C   UNL     1       3.454   6.754  17.795  0.00  0.00    +0.000 A 
ATOM     32  C   UNL     1       3.306   5.362  17.769  0.00  0.00    +0.000 A 
ATOM     33  C   UNL     1       4.217   4.555  17.079  0.00  0.00    +0.000 A 
BRANCH  28  34
ATOM     34  C   UNL     1       6.289   4.254  15.662  0.00  0.00    +0.000 C 
BRANCH  34  35
ATOM     35  N   UNL     1       7.322   5.050  15.010  0.00  0.00    +0.000 NA
ATOM     36  H   UNL     1       7.064   6.031  15.046  0.00  0.00    +0.000 HD
ATOM     37  H   UNL     1       7.357   4.795  14.022  0.00  0.00    +0.000 HD
ENDBRANCH  34  35
ENDBRANCH  28  34
ENDBRANCH  23  31
ENDBRANCH   1  26
TORSDOF 7
ENDMDL
MODEL 8
REMARK VINA RESULT:      -7.9      7.155     10.379
REMARK  Name = 
REMARK  7 active torsions:
REMARK  status: ('A' for Active; 'I' for Inactive)
REMARK    1  A    between atoms: N_1  and  C_2
REMARK    2  A    between atoms: C_2  and  C_3
REMARK    3  A    between atoms: C_6  and  C_7
REMARK    4  A    between atoms: C_10  and  C_11
REMARK    5  A    between atoms: C_15  and  C_16
REMARK    6  A    between atoms: C_23  and  C_24
REMARK    7  A    between atoms: C_25  and  O_26
REMARK                            x       y       z     vdW  Elec       q    Type
REMARK                         _______ _______ _______ _____ _____    ______ ____
ROOT
ATOM      1  C   UNL     1       6.867   5.787  18.706  0.00  0.00    +0.000 C 
ATOM      2  O   UNL     1       6.759   5.366  19.863  0.00  0.00    +0.000 OA
ATOM      3  N   UNL     1       6.456   4.982  17.638  0.00  0.00    +0.000 N 
ATOM      4  N   UNL     1       6.881   5.195  16.357  0.00  0.00    +0.000 NA
ATOM      5  C   UNL     1       6.379   4.261  15.615  0.00  0.00    +0.000 C 
ATOM      6  C   UNL     1       5.570   3.226  16.344  0.00  0.00    +0.000 C 
ATOM      7  C   UNL     1       5.727   3.723  17.785  0.00  0.00    +0.000 C 
ENDROOT
BRANCH   7   8
ATOM      8  C   UNL     1       4.396   3.871  18.488  0.00  0.00    +0.000 A 
ATOM      9  C   UNL     1       4.019   3.043  19.550  0.00  0.00    +0.000 A 
ATOM     10  C   UNL     1       2.760   3.141  20.143  0.00  0.00    +0.000 A 
ATOM     11  C   UNL     1       1.855   4.105  19.702  0.00  0.00    +0.000 A 
ATOM     12  C   UNL     1       2.214   4.960  18.665  0.00  0.00    +0.000 A 
ATOM     13  C   UNL     1       3.469   4.835  18.070  0.00  0.00    +0.000 A 
ATOM     14  F   UNL     1       3.768   5.655  17.051  0.00  0.00    +0.000 F 
BRANCH   9  15
ATOM     15  O   UNL     1       4.866   2.097  20.055  0.00  0.00    +0.000 OA
ATOM     16  H   UNL     1       5.774   2.436  19.924  0.00  0.00    +0.000 HD
ENDBRANCH   9  15
ENDBRANCH   7   8
BRANCH   5  17
ATOM     17  C   UNL     1       6.582   4.240  14.158  0.00  0.00    +0.000 A 
ATOM     18  C   UNL     1       5.836   3.426  13.311  0.00  0.00    +0.000 A 
ATOM     19  C   UNL     1       6.081   3.473  11.941  0.00  0.00    +0.000 A 
ATOM     20  C   UNL     1       7.059   4.336  11.468  0.00  0.00    +0.000 A 
ATOM     21  N   UNL     1       7.792   5.142  12.262  0.00  0.00    +0.000 NA
ATOM     22  C   UNL     1       7.537   5.080  13.590  0.00  0.00    +0.000 A 
ENDBRANCH   5  17
BRANCH   1  26
ATOM     23  C   UNL     1       8.600   9.304  18.428  0.00  0.00    +0.000 A 
ATOM     24  C   UNL     1       7.722   9.216  17.366  0.00  0.00    +0.000 A 
ATOM     25  C   UNL     1       6.986   8.002  17.371  0.00  0.00    +0.000 A 
ATOM     26  C   UNL     1       7.374   7.126  18.369  0.00  0.00    +0.000 A 
ATOM     27  S   UNL     1       8.593   7.846  19.340  0.00  0.00    +0.000 S 
BRANCH  23  31
ATOM     28  C   UNL     1      10.866  12.788  19.552  0.00  0.00    +0.000 A 
ATOM     29  C   UNL     1      10.633  12.481  18.207  0.00  0.00    +0.000 A 
ATOM     30  C   UNL     1       9.914  11.335  17.855  0.00  0.00    +0.000 A 
ATOM     31  C   UNL     1       9.407  10.466  18.835  0.00  0.00    +0.000 A 
ATOM     32  C   UNL     1       9.671  10.762  20.178  0.00  0.00    +0.000 A 
ATOM     33  C   UNL     1      10.387  11.911  20.533  0.00  0.00    +0.000 A 
BRANCH  28  34
ATOM     34  C   UNL     1      11.615  14.037  19.933  0.00  0.00    +0.000 C 
BRANCH  34  35
ATOM     35  N   UNL     1      12.333  14.600  18.796  0.00  0.00    +0.000 NA
ATOM     36  H   UNL     1      13.272  14.857  19.084  0.00  0.00    +0.000 HD
ATOM     37  H   UNL     1      11.870  15.464  18.511  0.00  0.00    +0.000 HD
ENDBRANCH  34  35
ENDBRANCH  28  34
ENDBRANCH  23  31
ENDBRANCH   1  26
TORSDOF 7
ENDMDL
MODEL 9
REMARK VINA RESULT:      -7.9      2.832      5.085
REMARK  Name = 
REMARK  7 active torsions:
REMARK  status: ('A' for Active; 'I' for Inactive)
REMARK    1  A    between atoms: N_1  and  C_2
REMARK    2  A    between atoms: C_2  and  C_3
REMARK    3  A    between atoms: C_6  and  C_7
REMARK    4  A    between atoms: C_10  and  C_11
REMARK    5  A    between atoms: C_15  and  C_16
REMARK    6  A    between atoms: C_23  and  C_24
REMARK    7  A    between atoms: C_25  and  O_26
REMARK                            x       y       z     vdW  Elec       q    Type
REMARK                         _______ _______ _______ _____ _____    ______ ____
ROOT
ATOM      1  C   UNL     1       0.779  10.196  20.715  0.00  0.00    +0.000 C 
ATOM      2  O   UNL     1       1.111  10.573  21.844  0.00  0.00    +0.000 OA
ATOM      3  N   UNL     1      -0.205  10.903  20.013  0.00  0.00    +0.000 N 
ATOM      4  N   UNL     1      -0.889  10.355  18.965  0.00  0.00    +0.000 NA
ATOM      5  C   UNL     1      -1.762  11.224  18.567  0.00  0.00    +0.000 C 
ATOM      6  C   UNL     1      -1.818  12.492  19.370  0.00  0.00    +0.000 C 
ATOM      7  C   UNL     1      -0.764  12.185  20.440  0.00  0.00    +0.000 C 
ENDROOT
BRANCH   7   8
ATOM      8  C   UNL     1       0.267  13.285  20.563  0.00  0.00    +0.000 A 
ATOM      9  C   UNL     1       1.139  13.606  19.519  0.00  0.00    +0.000 A 
ATOM     10  C   UNL     1       2.135  14.573  19.669  0.00  0.00    +0.000 A 
ATOM     11  C   UNL     1       2.255  15.269  20.870  0.00  0.00    +0.000 A 
ATOM     12  C   UNL     1       1.382  14.989  21.916  0.00  0.00    +0.000 A 
ATOM     13  C   UNL     1       0.406  14.005  21.757  0.00  0.00    +0.000 A 
ATOM     14  F   UNL     1      -0.396  13.739  22.798  0.00  0.00    +0.000 F 
BRANCH   9  15
ATOM     15  O   UNL     1       1.060  12.987  18.304  0.00  0.00    +0.000 OA
ATOM     16  H   UNL     1       0.681  12.100  18.465  0.00  0.00    +0.000 HD
ENDBRANCH   9  15
ENDBRANCH   7   8
BRANCH   5  17
ATOM     17  C   UNL     1      -2.619  10.978  17.397  0.00  0.00    +0.000 A 
ATOM     18  C   UNL     1      -2.230  10.157  16.344  0.00  0.00    +0.000 A 
ATOM     19  C   UNL     1      -3.103   9.966  15.277  0.00  0.00    +0.000 A 
ATOM     20  C   UNL     1      -4.337  10.601  15.304  0.00  0.00    +0.000 A 
ATOM     21  N   UNL     1      -4.746  11.397  16.313  0.00  0.00    +0.000 NA
ATOM     22  C   UNL     1      -3.880  11.567  17.340  0.00  0.00    +0.000 A 
ENDBRANCH   5  17
BRANCH   1  26
ATOM     23  C   UNL     1       2.412   6.824  19.527  0.00  0.00    +0.000 A 
ATOM     24  C   UNL     1       2.396   7.658  18.428  0.00  0.00    +0.000 A 
ATOM     25  C   UNL     1       1.870   8.941  18.729  0.00  0.00    +0.000 A 
ATOM     26  C   UNL     1       1.391   9.052  20.023  0.00  0.00    +0.000 A 
ATOM     27  S   UNL     1       1.669   7.589  20.877  0.00  0.00    +0.000 S 
BRANCH  23  31
ATOM     28  C   UNL     1       4.087   2.865  19.763  0.00  0.00    +0.000 A 
ATOM     29  C   UNL     1       2.789   3.128  20.214  0.00  0.00    +0.000 A 
ATOM     30  C   UNL     1       2.265   4.422  20.152  0.00  0.00    +0.000 A 
ATOM     31  C   UNL     1       3.021   5.488  19.636  0.00  0.00    +0.000 A 
ATOM     32  C   UNL     1       4.331   5.224  19.217  0.00  0.00    +0.000 A 
ATOM     33  C   UNL     1       4.856   3.928  19.274  0.00  0.00    +0.000 A 
BRANCH  28  34
ATOM     34  C   UNL     1       4.642   1.465  19.803  0.00  0.00    +0.000 C 
BRANCH  34  35
ATOM     35  N   UNL     1       4.296   0.716  18.602  0.00  0.00    +0.000 NA
ATOM     36  H   UNL     1       3.964  -0.207  18.864  0.00  0.00    +0.000 HD
ATOM     37  H   UNL     1       5.142   0.574  18.049  0.00  0.00    +0.000 HD
ENDBRANCH  34  35
ENDBRANCH  28  34
ENDBRANCH  23  31
ENDBRANCH   1  26
TORSDOF 7
ENDMDL
