MODEL 1
REMARK VINA RESULT:      -7.3      0.000      0.000
REMARK  Name = 
REMARK  6 active torsions:
REMARK  status: ('A' for Active; 'I' for Inactive)
REMARK    1  A    between atoms: C_2  and  C_3
REMARK    2  A    between atoms: C_3  and  N_4
REMARK    3  A    between atoms: N_7  and  C_8
REMARK    4  A    between atoms: C_8  and  C_9
REMARK    5  A    between atoms: N_17  and  C_18
REMARK    6  A    between atoms: C_18  and  C_19
REMARK                            x       y       z     vdW  Elec       q    Type
REMARK                         _______ _______ _______ _____ _____    ______ ____
ROOT
ATOM      1  N   UNL     1       5.810   6.639  16.816  0.00  0.00    +0.000 NA
ATOM      2  C   UNL     1       5.200   5.872  15.701  0.00  0.00    +0.000 C 
ATOM      3  C   UNL     1       5.158   4.330  15.882  0.00  0.00    +0.000 C 
ATOM      4  N   UNL     1       4.585   3.878  17.172  0.00  0.00    +0.000 NA
ATOM      5  C   UNL     1       5.309   4.581  18.250  0.00  0.00    +0.000 C 
ATOM      6  C   UNL     1       5.311   6.122  18.112  0.00  0.00    +0.000 C 
ENDROOT
BRANCH   1   7
ATOM      7  C   UNL     1       7.289   6.574  16.776  0.00  0.00    +0.000 C 
BRANCH   7   9
ATOM      8  O   UNL     1       8.126   6.637  19.047  0.00  0.00    +0.000 OA
ATOM      9  C   UNL     1       7.908   7.249  18.002  0.00  0.00    +0.000 C 
ATOM     10  N   UNL     1       8.177   8.589  17.835  0.00  0.00    +0.000 N 
ATOM     11  H   UNL     1       8.100   8.968  16.899  0.00  0.00    +0.000 HD
BRANCH  10  12
ATOM     12  C   UNL     1       8.799   9.390  18.861  0.00  0.00    +0.000 C 
BRANCH  12  13
ATOM     13  C   UNL     1       9.112  10.727  18.302  0.00  0.00    +0.000 A 
ATOM     14  C   UNL     1      10.281  11.442  18.148  0.00  0.00    +0.000 A 
ATOM     15  C   UNL     1       9.919  12.683  17.571  0.00  0.00    +0.000 A 
ATOM     16  C   UNL     1       8.556  12.643  17.401  0.00  0.00    +0.000 A 
ATOM     17  O   UNL     1       8.055  11.458  17.836  0.00  0.00    +0.000 OA
ENDBRANCH  12  13
ENDBRANCH  10  12
ENDBRANCH   7   9
ENDBRANCH   1   7
BRANCH   4  18
ATOM     18  C   UNL     1       3.129   4.126  17.189  0.00  0.00    +0.000 C 
BRANCH  18  19
ATOM     19  C   UNL     1       2.432   3.841  18.503  0.00  0.00    +0.000 A 
ATOM     20  C   UNL     1       2.283   2.515  18.942  0.00  0.00    +0.000 A 
ATOM     21  C   UNL     1       1.672   2.233  20.164  0.00  0.00    +0.000 A 
ATOM     22  C   UNL     1       1.208   3.274  20.964  0.00  0.00    +0.000 A 
ATOM     23  C   UNL     1       1.354   4.596  20.541  0.00  0.00    +0.000 A 
ATOM     24  C   UNL     1       1.962   4.880  19.316  0.00  0.00    +0.000 A 
ENDBRANCH  18  19
ENDBRANCH   4  18
TORSDOF 6
ENDMDL
MODEL 2
REMARK VINA RESULT:      -7.3      1.626      2.342
REMARK  Name = 
REMARK  6 active torsions:
REMARK  status: ('A' for Active; 'I' for Inactive)
REMARK    1  A    between atoms: C_2  and  C_3
REMARK    2  A    between atoms: C_3  and  N_4
REMARK    3  A    between atoms: N_7  and  C_8
REMARK    4  A    between atoms: C_8  and  C_9
REMARK    5  A    between atoms: N_17  and  C_18
REMARK    6  A    between atoms: C_18  and  C_19
REMARK                            x       y       z     vdW  Elec       q    Type
REMARK                         _______ _______ _______ _____ _____    ______ ____
ROOT
ATOM      1  N   UNL     1       6.974   7.114  17.034  0.00  0.00    +0.000 NA
ATOM      2  C   UNL     1       7.228   5.935  16.170  0.00  0.00    +0.000 C 
ATOM      3  C   UNL     1       7.187   4.553  16.879  0.00  0.00    +0.000 C 
ATOM      4  N   UNL     1       5.975   4.319  17.701  0.00  0.00    +0.000 NA
ATOM      5  C   UNL     1       5.837   5.463  18.624  0.00  0.00    +0.000 C 
ATOM      6  C   UNL     1       5.821   6.844  17.925  0.00  0.00    +0.000 C 
ENDROOT
BRANCH   1   7
ATOM      7  C   UNL     1       8.167   7.468  17.837  0.00  0.00    +0.000 C 
BRANCH   7   9
ATOM      8  O   UNL     1       7.496   9.780  17.577  0.00  0.00    +0.000 OA
ATOM      9  C   UNL     1       8.177   8.958  18.189  0.00  0.00    +0.000 C 
ATOM     10  N   UNL     1       9.020   9.289  19.226  0.00  0.00    +0.000 N 
ATOM     11  H   UNL     1       9.426   8.530  19.759  0.00  0.00    +0.000 HD
BRANCH  10  12
ATOM     12  C   UNL     1       9.139  10.635  19.731  0.00  0.00    +0.000 C 
BRANCH  12  13
ATOM     13  C   UNL     1      10.326  11.275  19.116  0.00  0.00    +0.000 A 
ATOM     14  C   UNL     1      10.656  11.620  17.822  0.00  0.00    +0.000 A 
ATOM     15  C   UNL     1      11.956  12.176  17.875  0.00  0.00    +0.000 A 
ATOM     16  C   UNL     1      12.333  12.145  19.196  0.00  0.00    +0.000 A 
ATOM     17  O   UNL     1      11.349  11.605  19.960  0.00  0.00    +0.000 OA
ENDBRANCH  12  13
ENDBRANCH  10  12
ENDBRANCH   7   9
ENDBRANCH   1   7
BRANCH   4  18
ATOM     18  C   UNL     1       4.802   4.134  16.822  0.00  0.00    +0.000 C 
BRANCH  18  19
ATOM     19  C   UNL     1       3.556   3.603  17.499  0.00  0.00    +0.000 A 
ATOM     20  C   UNL     1       2.421   4.422  17.617  0.00  0.00    +0.000 A 
ATOM     21  C   UNL     1       1.253   3.941  18.210  0.00  0.00    +0.000 A 
ATOM     22  C   UNL     1       1.204   2.634  18.687  0.00  0.00    +0.000 A 
ATOM     23  C   UNL     1       2.324   1.808  18.572  0.00  0.00    +0.000 A 
ATOM     24  C   UNL     1       3.495   2.289  17.982  0.00  0.00    +0.000 A 
ENDBRANCH  18  19
ENDBRANCH   4  18
TORSDOF 6
ENDMDL
MODEL 3
REMARK VINA RESULT:      -7.3      1.067      1.606
REMARK  Name = 
REMARK  6 active torsions:
REMARK  status: ('A' for Active; 'I' for Inactive)
REMARK    1  A    between atoms: C_2  and  C_3
REMARK    2  A    between atoms: C_3  and  N_4
REMARK    3  A    between atoms: N_7  and  C_8
REMARK    4  A    between atoms: C_8  and  C_9
REMARK    5  A    between atoms: N_17  and  C_18
REMARK    6  A    between atoms: C_18  and  C_19
REMARK                            x       y       z     vdW  Elec       q    Type
REMARK                         _______ _______ _______ _____ _____    ______ ____
ROOT
ATOM      1  N   UNL     1       7.091   5.795  17.432  0.00  0.00    +0.000 NA
ATOM      2  C   UNL     1       6.096   5.691  18.528  0.00  0.00    +0.000 C 
ATOM      3  C   UNL     1       4.615   5.935  18.126  0.00  0.00    +0.000 C 
ATOM      4  N   UNL     1       4.158   5.144  16.958  0.00  0.00    +0.000 NA
ATOM      5  C   UNL     1       5.116   5.379  15.860  0.00  0.00    +0.000 C 
ATOM      6  C   UNL     1       6.590   5.086  16.231  0.00  0.00    +0.000 C 
ENDROOT
BRANCH   1   7
ATOM      7  C   UNL     1       7.392   7.207  17.102  0.00  0.00    +0.000 C 
BRANCH   7   9
ATOM      8  O   UNL     1       8.641   7.254  19.176  0.00  0.00    +0.000 OA
ATOM      9  C   UNL     1       8.173   7.887  18.230  0.00  0.00    +0.000 C 
ATOM     10  N   UNL     1       8.284   9.252  18.098  0.00  0.00    +0.000 N 
ATOM     11  H   UNL     1       7.994   9.663  17.218  0.00  0.00    +0.000 HD
BRANCH  10  12
ATOM     12  C   UNL     1       9.017  10.066  19.037  0.00  0.00    +0.000 C 
BRANCH  12  13
ATOM     13  C   UNL     1       9.552  11.253  18.328  0.00  0.00    +0.000 A 
ATOM     14  C   UNL     1      10.715  11.497  17.627  0.00  0.00    +0.000 A 
ATOM     15  C   UNL     1      10.656  12.849  17.211  0.00  0.00    +0.000 A 
ATOM     16  C   UNL     1       9.460  13.340  17.675  0.00  0.00    +0.000 A 
ATOM     17  O   UNL     1       8.778  12.379  18.350  0.00  0.00    +0.000 OA
ENDBRANCH  12  13
ENDBRANCH  10  12
ENDBRANCH   7   9
ENDBRANCH   1   7
BRANCH   4  18
ATOM     18  C   UNL     1       4.036   3.720  17.334  0.00  0.00    +0.000 C 
BRANCH  18  19
ATOM     19  C   UNL     1       3.086   3.424  18.474  0.00  0.00    +0.000 A 
ATOM     20  C   UNL     1       1.700   3.543  18.279  0.00  0.00    +0.000 A 
ATOM     21  C   UNL     1       0.807   3.244  19.308  0.00  0.00    +0.000 A 
ATOM     22  C   UNL     1       1.287   2.819  20.543  0.00  0.00    +0.000 A 
ATOM     23  C   UNL     1       2.663   2.693  20.750  0.00  0.00    +0.000 A 
ATOM     24  C   UNL     1       3.558   2.995  19.722  0.00  0.00    +0.000 A 
ENDBRANCH  18  19
ENDBRANCH   4  18
TORSDOF 6
ENDMDL
MODEL 4
REMARK VINA RESULT:      -7.2      0.638      1.311
REMARK  Name = 
REMARK  6 active torsions:
REMARK  status: ('A' for Active; 'I' for Inactive)
REMARK    1  A    between atoms: C_2  and  C_3
REMARK    2  A    between atoms: C_3  and  N_4
REMARK    3  A    between atoms: N_7  and  C_8
REMARK    4  A    between atoms: C_8  and  C_9
REMARK    5  A    between atoms: N_17  and  C_18
REMARK    6  A    between atoms: C_18  and  C_19
REMARK                            x       y       z     vdW  Elec       q    Type
REMARK                         _______ _______ _______ _____ _____    ______ ____
ROOT
ATOM      1  N   UNL     1       5.850   6.820  16.795  0.00  0.00    +0.000 NA
ATOM      2  C   UNL     1       5.235   6.051  15.685  0.00  0.00    +0.000 C 
ATOM      3  C   UNL     1       5.215   4.507  15.859  0.00  0.00    +0.000 C 
ATOM      4  N   UNL     1       4.664   4.043  17.155  0.00  0.00    +0.000 NA
ATOM      5  C   UNL     1       5.393   4.750  18.226  0.00  0.00    +0.000 C 
ATOM      6  C   UNL     1       5.374   6.292  18.095  0.00  0.00    +0.000 C 
ENDROOT
BRANCH   1   7
ATOM      7  C   UNL     1       7.329   6.774  16.736  0.00  0.00    +0.000 C 
BRANCH   7   9
ATOM      8  O   UNL     1       8.236   6.749  18.981  0.00  0.00    +0.000 OA
ATOM      9  C   UNL     1       7.955   7.408  17.981  0.00  0.00    +0.000 C 
ATOM     10  N   UNL     1       8.153   8.767  17.885  0.00  0.00    +0.000 N 
ATOM     11  H   UNL     1       8.027   9.195  16.976  0.00  0.00    +0.000 HD
BRANCH  10  12
ATOM     12  C   UNL     1       8.768   9.538  18.937  0.00  0.00    +0.000 C 
BRANCH  12  13
ATOM     13  C   UNL     1       9.258  10.818  18.371  0.00  0.00    +0.000 A 
ATOM     14  C   UNL     1       8.633  11.894  17.775  0.00  0.00    +0.000 A 
ATOM     15  C   UNL     1       9.657  12.801  17.414  0.00  0.00    +0.000 A 
ATOM     16  C   UNL     1      10.838  12.228  17.819  0.00  0.00    +0.000 A 
ATOM     17  O   UNL     1      10.608  11.026  18.407  0.00  0.00    +0.000 OA
ENDBRANCH  12  13
ENDBRANCH  10  12
ENDBRANCH   7   9
ENDBRANCH   1   7
BRANCH   4  18
ATOM     18  C   UNL     1       3.205   4.273  17.190  0.00  0.00    +0.000 C 
BRANCH  18  19
ATOM     19  C   UNL     1       2.521   3.926  18.496  0.00  0.00    +0.000 A 
ATOM     20  C   UNL     1       2.037   4.951  19.326  0.00  0.00    +0.000 A 
ATOM     21  C   UNL     1       1.376   4.651  20.517  0.00  0.00    +0.000 A 
ATOM     22  C   UNL     1       1.187   3.323  20.891  0.00  0.00    +0.000 A 
ATOM     23  C   UNL     1       1.660   2.295  20.074  0.00  0.00    +0.000 A 
ATOM     24  C   UNL     1       2.324   2.594  18.882  0.00  0.00    +0.000 A 
ENDBRANCH  18  19
ENDBRANCH   4  18
TORSDOF 6
ENDMDL
MODEL 5
REMARK VINA RESULT:      -7.2      1.241      1.765
REMARK  Name = 
REMARK  6 active torsions:
REMARK  status: ('A' for Active; 'I' for Inactive)
REMARK    1  A    between atoms: C_2  and  C_3
REMARK    2  A    between atoms: C_3  and  N_4
REMARK    3  A    between atoms: N_7  and  C_8
REMARK    4  A    between atoms: C_8  and  C_9
REMARK    5  A    between atoms: N_17  and  C_18
REMARK    6  A    between atoms: C_18  and  C_19
REMARK                            x       y       z     vdW  Elec       q    Type
REMARK                         _______ _______ _______ _____ _____    ______ ____
ROOT
ATOM      1  N   UNL     1       7.146   5.872  17.378  0.00  0.00    +0.000 NA
ATOM      2  C   UNL     1       6.115   5.695  18.430  0.00  0.00    +0.000 C 
ATOM      3  C   UNL     1       4.641   5.888  17.975  0.00  0.00    +0.000 C 
ATOM      4  N   UNL     1       4.264   5.112  16.770  0.00  0.00    +0.000 NA
ATOM      5  C   UNL     1       5.254   5.417  15.717  0.00  0.00    +0.000 C 
ATOM      6  C   UNL     1       6.723   5.176  16.140  0.00  0.00    +0.000 C 
ENDROOT
BRANCH   1   7
ATOM      7  C   UNL     1       7.398   7.304  17.097  0.00  0.00    +0.000 C 
BRANCH   7   9
ATOM      8  O   UNL     1       8.679   7.304  19.152  0.00  0.00    +0.000 OA
ATOM      9  C   UNL     1       8.204   7.957  18.223  0.00  0.00    +0.000 C 
ATOM     10  N   UNL     1       8.330   9.323  18.111  0.00  0.00    +0.000 N 
ATOM     11  H   UNL     1       8.031   9.750  17.242  0.00  0.00    +0.000 HD
BRANCH  10  12
ATOM     12  C   UNL     1       9.086  10.113  19.051  0.00  0.00    +0.000 C 
BRANCH  12  13
ATOM     13  C   UNL     1       9.585  11.328  18.364  0.00  0.00    +0.000 A 
ATOM     14  C   UNL     1       8.983  12.494  17.940  0.00  0.00    +0.000 A 
ATOM     15  C   UNL     1       9.995  13.263  17.316  0.00  0.00    +0.000 A 
ATOM     16  C   UNL     1      11.149  12.524  17.407  0.00  0.00    +0.000 A 
ATOM     17  O   UNL     1      10.914  11.349  18.046  0.00  0.00    +0.000 OA
ENDBRANCH  12  13
ENDBRANCH  10  12
ENDBRANCH   7   9
ENDBRANCH   1   7
BRANCH   4  18
ATOM     18  C   UNL     1       4.190   3.674  17.102  0.00  0.00    +0.000 C 
BRANCH  18  19
ATOM     19  C   UNL     1       3.180   3.301  18.167  0.00  0.00    +0.000 A 
ATOM     20  C   UNL     1       3.621   2.870  19.430  0.00  0.00    +0.000 A 
ATOM     21  C   UNL     1       2.706   2.552  20.434  0.00  0.00    +0.000 A 
ATOM     22  C   UNL     1       1.340   2.666  20.190  0.00  0.00    +0.000 A 
ATOM     23  C   UNL     1       0.889   3.097  18.941  0.00  0.00    +0.000 A 
ATOM     24  C   UNL     1       1.803   3.412  17.934  0.00  0.00    +0.000 A 
ENDBRANCH  18  19
ENDBRANCH   4  18
TORSDOF 6
ENDMDL
MODEL 6
REMARK VINA RESULT:      -6.9      3.782      6.509
REMARK  Name = 
REMARK  6 active torsions:
REMARK  status: ('A' for Active; 'I' for Inactive)
REMARK    1  A    between atoms: C_2  and  C_3
REMARK    2  A    between atoms: C_3  and  N_4
REMARK    3  A    between atoms: N_7  and  C_8
REMARK    4  A    between atoms: C_8  and  C_9
REMARK    5  A    between atoms: N_17  and  C_18
REMARK    6  A    between atoms: C_18  and  C_19
REMARK                            x       y       z     vdW  Elec       q    Type
REMARK                         _______ _______ _______ _____ _____    ______ ____
ROOT
ATOM      1  N   UNL     1       5.304   4.815  16.367  0.00  0.00    +0.000 NA
ATOM      2  C   UNL     1       4.746   3.897  17.391  0.00  0.00    +0.000 C 
ATOM      3  C   UNL     1       5.034   4.275  18.871  0.00  0.00    +0.000 C 
ATOM      4  N   UNL     1       4.703   5.677  19.222  0.00  0.00    +0.000 NA
ATOM      5  C   UNL     1       5.380   6.551  18.244  0.00  0.00    +0.000 C 
ATOM      6  C   UNL     1       5.058   6.221  16.767  0.00  0.00    +0.000 C 
ENDROOT
BRANCH   1   7
ATOM      7  C   UNL     1       6.754   4.589  16.164  0.00  0.00    +0.000 C 
BRANCH   7   9
ATOM      8  O   UNL     1       8.059   5.651  14.424  0.00  0.00    +0.000 OA
ATOM      9  C   UNL     1       7.161   4.862  14.714  0.00  0.00    +0.000 C 
ATOM     10  N   UNL     1       6.427   4.167  13.780  0.00  0.00    +0.000 N 
ATOM     11  H   UNL     1       5.812   3.436  14.117  0.00  0.00    +0.000 HD
BRANCH  10  12
ATOM     12  C   UNL     1       6.687   4.258  12.364  0.00  0.00    +0.000 C 
BRANCH  12  13
ATOM     13  C   UNL     1       6.574   2.906  11.767  0.00  0.00    +0.000 A 
ATOM     14  C   UNL     1       7.491   2.023  11.234  0.00  0.00    +0.000 A 
ATOM     15  C   UNL     1       6.754   0.898  10.793  0.00  0.00    +0.000 A 
ATOM     16  C   UNL     1       5.439   1.160  11.093  0.00  0.00    +0.000 A 
ATOM     17  O   UNL     1       5.318   2.374  11.689  0.00  0.00    +0.000 OA
ENDBRANCH  12  13
ENDBRANCH  10  12
ENDBRANCH   7   9
ENDBRANCH   1   7
BRANCH   4  18
ATOM     18  C   UNL     1       3.236   5.854  19.246  0.00  0.00    +0.000 C 
BRANCH  18  19
ATOM     19  C   UNL     1       2.448   4.698  19.825  0.00  0.00    +0.000 A 
ATOM     20  C   UNL     1       2.642   4.319  21.163  0.00  0.00    +0.000 A 
ATOM     21  C   UNL     1       1.903   3.277  21.724  0.00  0.00    +0.000 A 
ATOM     22  C   UNL     1       0.957   2.605  20.954  0.00  0.00    +0.000 A 
ATOM     23  C   UNL     1       0.752   2.974  19.624  0.00  0.00    +0.000 A 
ATOM     24  C   UNL     1       1.493   4.015  19.060  0.00  0.00    +0.000 A 
ENDBRANCH  18  19
ENDBRANCH   4  18
TORSDOF 6
ENDMDL
MODEL 7
REMARK VINA RESULT:      -6.9      4.578      6.890
REMARK  Name = 
REMARK  6 active torsions:
REMARK  status: ('A' for Active; 'I' for Inactive)
REMARK    1  A    between atoms: C_2  and  C_3
REMARK    2  A    between atoms: C_3  and  N_4
REMARK    3  A    between atoms: N_7  and  C_8
REMARK    4  A    between atoms: C_8  and  C_9
REMARK    5  A    between atoms: N_17  and  C_18
REMARK    6  A    between atoms: C_18  and  C_19
REMARK                            x       y       z     vdW  Elec       q    Type
REMARK                         _______ _______ _______ _____ _____    ______ ____
ROOT
ATOM      1  N   UNL     1       3.338   4.405  18.937  0.00  0.00    +0.000 NA
ATOM      2  C   UNL     1       3.105   5.147  17.673  0.00  0.00    +0.000 C 
ATOM      3  C   UNL     1       4.356   5.814  17.037  0.00  0.00    +0.000 C 
ATOM      4  N   UNL     1       5.520   4.909  16.879  0.00  0.00    +0.000 NA
ATOM      5  C   UNL     1       5.783   4.290  18.193  0.00  0.00    +0.000 C 
ATOM      6  C   UNL     1       4.558   3.574  18.813  0.00  0.00    +0.000 C 
ENDROOT
BRANCH   1   7
ATOM      7  C   UNL     1       3.462   5.323  20.093  0.00  0.00    +0.000 C 
BRANCH   7   9
ATOM      8  O   UNL     1       1.095   5.198  20.587  0.00  0.00    +0.000 OA
ATOM      9  C   UNL     1       2.101   5.900  20.493  0.00  0.00    +0.000 C 
ATOM     10  N   UNL     1       2.105   7.258  20.715  0.00  0.00    +0.000 N 
ATOM     11  H   UNL     1       3.004   7.723  20.755  0.00  0.00    +0.000 HD
BRANCH  10  12
ATOM     12  C   UNL     1       0.930   7.979  21.140  0.00  0.00    +0.000 C 
BRANCH  12  13
ATOM     13  C   UNL     1       0.865   9.266  20.407  0.00  0.00    +0.000 A 
ATOM     14  C   UNL     1       0.470  10.540  20.757  0.00  0.00    +0.000 A 
ATOM     15  C   UNL     1       0.612  11.337  19.596  0.00  0.00    +0.000 A 
ATOM     16  C   UNL     1       1.092  10.503  18.615  0.00  0.00    +0.000 A 
ATOM     17  O   UNL     1       1.255   9.244  19.097  0.00  0.00    +0.000 OA
ENDBRANCH  12  13
ENDBRANCH  10  12
ENDBRANCH   7   9
ENDBRANCH   1   7
BRANCH   4  18
ATOM     18  C   UNL     1       5.248   3.924  15.812  0.00  0.00    +0.000 C 
BRANCH  18  19
ATOM     19  C   UNL     1       6.015   4.128  14.523  0.00  0.00    +0.000 A 
ATOM     20  C   UNL     1       5.605   3.469  13.352  0.00  0.00    +0.000 A 
ATOM     21  C   UNL     1       6.280   3.668  12.148  0.00  0.00    +0.000 A 
ATOM     22  C   UNL     1       7.371   4.532  12.098  0.00  0.00    +0.000 A 
ATOM     23  C   UNL     1       7.787   5.196  13.254  0.00  0.00    +0.000 A 
ATOM     24  C   UNL     1       7.114   4.995  14.461  0.00  0.00    +0.000 A 
ENDBRANCH  18  19
ENDBRANCH   4  18
TORSDOF 6
ENDMDL
MODEL 8
REMARK VINA RESULT:      -6.9      1.232      1.805
REMARK  Name = 
REMARK  6 active torsions:
REMARK  status: ('A' for Active; 'I' for Inactive)
REMARK    1  A    between atoms: C_2  and  C_3
REMARK    2  A    between atoms: C_3  and  N_4
REMARK    3  A    between atoms: N_7  and  C_8
REMARK    4  A    between atoms: C_8  and  C_9
REMARK    5  A    between atoms: N_17  and  C_18
REMARK    6  A    between atoms: C_18  and  C_19
REMARK                            x       y       z     vdW  Elec       q    Type
REMARK                         _______ _______ _______ _____ _____    ______ ____
ROOT
ATOM      1  N   UNL     1       6.912   5.947  17.668  0.00  0.00    +0.000 NA
ATOM      2  C   UNL     1       5.850   5.850  18.701  0.00  0.00    +0.000 C 
ATOM      3  C   UNL     1       4.388   5.873  18.175  0.00  0.00    +0.000 C 
ATOM      4  N   UNL     1       4.114   4.909  17.083  0.00  0.00    +0.000 NA
ATOM      5  C   UNL     1       5.125   5.130  16.030  0.00  0.00    +0.000 C 
ATOM      6  C   UNL     1       6.588   5.055  16.531  0.00  0.00    +0.000 C 
ENDROOT
BRANCH   1   7
ATOM      7  C   UNL     1       7.084   7.339  17.192  0.00  0.00    +0.000 C 
BRANCH   7   9
ATOM      8  O   UNL     1       8.690   7.570  18.989  0.00  0.00    +0.000 OA
ATOM      9  C   UNL     1       8.074   8.108  18.070  0.00  0.00    +0.000 C 
ATOM     10  N   UNL     1       8.195   9.442  17.751  0.00  0.00    +0.000 N 
ATOM     11  H   UNL     1       7.761   9.759  16.893  0.00  0.00    +0.000 HD
BRANCH  10  12
ATOM     12  C   UNL     1       9.108  10.324  18.436  0.00  0.00    +0.000 C 
BRANCH  12  13
ATOM     13  C   UNL     1       8.684  11.726  18.206  0.00  0.00    +0.000 A 
ATOM     14  C   UNL     1       7.837  12.325  17.297  0.00  0.00    +0.000 A 
ATOM     15  C   UNL     1       7.873  13.713  17.570  0.00  0.00    +0.000 A 
ATOM     16  C   UNL     1       8.730  13.872  18.633  0.00  0.00    +0.000 A 
ATOM     17  O   UNL     1       9.224  12.672  19.031  0.00  0.00    +0.000 OA
ENDBRANCH  12  13
ENDBRANCH  10  12
ENDBRANCH   7   9
ENDBRANCH   1   7
BRANCH   4  18
ATOM     18  C   UNL     1       4.118   3.532  17.617  0.00  0.00    +0.000 C 
BRANCH  18  19
ATOM     19  C   UNL     1       3.128   3.260  18.730  0.00  0.00    +0.000 A 
ATOM     20  C   UNL     1       1.755   3.186  18.443  0.00  0.00    +0.000 A 
ATOM     21  C   UNL     1       0.830   2.906  19.448  0.00  0.00    +0.000 A 
ATOM     22  C   UNL     1       1.266   2.691  20.753  0.00  0.00    +0.000 A 
ATOM     23  C   UNL     1       2.629   2.757  21.051  0.00  0.00    +0.000 A 
ATOM     24  C   UNL     1       3.556   3.040  20.046  0.00  0.00    +0.000 A 
ENDBRANCH  18  19
ENDBRANCH   4  18
TORSDOF 6
ENDMDL
MODEL 9
REMARK VINA RESULT:      -6.8      3.877      6.586
REMARK  Name = 
REMARK  6 active torsions:
REMARK  status: ('A' for Active; 'I' for Inactive)
REMARK    1  A    between atoms: C_2  and  C_3
REMARK    2  A    between atoms: C_3  and  N_4
REMARK    3  A    between atoms: N_7  and  C_8
REMARK    4  A    between atoms: C_8  and  C_9
REMARK    5  A    between atoms: N_17  and  C_18
REMARK    6  A    between atoms: C_18  and  C_19
REMARK                            x       y       z     vdW  Elec       q    Type
REMARK                         _______ _______ _______ _____ _____    ______ ____
ROOT
ATOM      1  N   UNL     1       5.236   5.241  15.753  0.00  0.00    +0.000 NA
ATOM      2  C   UNL     1       4.658   4.186  16.622  0.00  0.00    +0.000 C 
ATOM      3  C   UNL     1       4.967   4.313  18.140  0.00  0.00    +0.000 C 
ATOM      4  N   UNL     1       4.679   5.649  18.715  0.00  0.00    +0.000 NA
ATOM      5  C   UNL     1       5.376   6.650  17.883  0.00  0.00    +0.000 C 
ATOM      6  C   UNL     1       5.034   6.570  16.375  0.00  0.00    +0.000 C 
ENDROOT
BRANCH   1   7
ATOM      7  C   UNL     1       6.676   5.009  15.499  0.00  0.00    +0.000 C 
BRANCH   7   9
ATOM      8  O   UNL     1       7.626   5.420  13.310  0.00  0.00    +0.000 OA
ATOM      9  C   UNL     1       6.937   4.693  14.024  0.00  0.00    +0.000 C 
ATOM     10  N   UNL     1       6.324   3.546  13.575  0.00  0.00    +0.000 N 
ATOM     11  H   UNL     1       5.900   2.939  14.267  0.00  0.00    +0.000 HD
BRANCH  10  12
ATOM     12  C   UNL     1       6.482   3.057  12.227  0.00  0.00    +0.000 C 
BRANCH  12  13
ATOM     13  C   UNL     1       5.185   3.174  11.519  0.00  0.00    +0.000 A 
ATOM     14  C   UNL     1       4.366   4.238  11.206  0.00  0.00    +0.000 A 
ATOM     15  C   UNL     1       3.239   3.696  10.543  0.00  0.00    +0.000 A 
ATOM     16  C   UNL     1       3.446   2.339  10.484  0.00  0.00    +0.000 A 
ATOM     17  O   UNL     1       4.627   2.010  11.068  0.00  0.00    +0.000 OA
ENDBRANCH  12  13
ENDBRANCH  10  12
ENDBRANCH   7   9
ENDBRANCH   1   7
BRANCH   4  18
ATOM     18  C   UNL     1       3.219   5.861  18.784  0.00  0.00    +0.000 C 
BRANCH  18  19
ATOM     19  C   UNL     1       2.437   4.788  19.512  0.00  0.00    +0.000 A 
ATOM     20  C   UNL     1       1.536   3.976  18.803  0.00  0.00    +0.000 A 
ATOM     21  C   UNL     1       0.829   2.962  19.449  0.00  0.00    +0.000 A 
ATOM     22  C   UNL     1       1.018   2.743  20.811  0.00  0.00    +0.000 A 
ATOM     23  C   UNL     1       1.914   3.540  21.527  0.00  0.00    +0.000 A 
ATOM     24  C   UNL     1       2.620   4.558  20.882  0.00  0.00    +0.000 A 
ENDBRANCH  18  19
ENDBRANCH   4  18
TORSDOF 6
ENDMDL
