MODEL 1
REMARK VINA RESULT:      -8.1      0.000      0.000
REMARK  Name = 
REMARK  8 active torsions:
REMARK  status: ('A' for Active; 'I' for Inactive)
REMARK    1  A    between atoms: C_1  and  C_2
REMARK    2  A    between atoms: C_5  and  N_6
REMARK    3  A    between atoms: N_6  and  C_7
REMARK    4  A    between atoms: C_7  and  C_8
REMARK    5  A    between atoms: C_8  and  O_9
REMARK    6  A    between atoms: C_8  and  C_10
REMARK    7  A    between atoms: C_10  and  O_11
REMARK    8  A    between atoms: O_11  and  C_12
REMARK                            x       y       z     vdW  Elec       q    Type
REMARK                         _______ _______ _______ _____ _____    ______ ____
ROOT
ATOM      1  C   UNL     1       6.544   6.852  17.394  0.00  0.00    +0.000 C 
ENDROOT
BRANCH   1   2
ATOM      2  O   UNL     1       7.406   7.900  16.917  0.00  0.00    +0.000 OA
ATOM      3  H   UNL     1       7.124   8.142  16.018  0.00  0.00    +0.000 HD
ENDBRANCH   1   2
BRANCH   1   4
ATOM      4  C   UNL     1       7.027   5.479  16.883  0.00  0.00    +0.000 C 
BRANCH   4   5
ATOM      5  N   UNL     1       7.574   5.618  15.532  0.00  0.00    +0.000 N 
ATOM      6  H   UNL     1       7.718   6.593  15.274  0.00  0.00    +0.000 HD
BRANCH   5  11
ATOM      7  C   UNL     1       4.976   2.769  11.294  0.00  0.00    +0.000 C 
ATOM      8  C   UNL     1       5.690   3.456  12.419  0.00  0.00    +0.000 A 
ATOM      9  C   UNL     1       5.174   3.455  13.716  0.00  0.00    +0.000 A 
ATOM     10  C   UNL     1       5.825   4.154  14.740  0.00  0.00    +0.000 A 
ATOM     11  C   UNL     1       7.020   4.846  14.506  0.00  0.00    +0.000 A 
ATOM     12  C   UNL     1       7.529   4.836  13.202  0.00  0.00    +0.000 A 
ATOM     13  C   UNL     1       6.877   4.148  12.172  0.00  0.00    +0.000 A 
ENDBRANCH   5  11
ENDBRANCH   4   5
ENDBRANCH   1   4
BRANCH   1  14
ATOM     14  C   UNL     1       5.104   7.129  16.944  0.00  0.00    +0.000 C 
BRANCH  14  15
ATOM     15  O   UNL     1       4.313   5.948  17.089  0.00  0.00    +0.000 OA
BRANCH  15  16
ATOM     16  C   UNL     1       3.399   5.909  18.119  0.00  0.00    +0.000 A 
ATOM     17  C   UNL     1       3.054   6.928  18.915  0.00  0.00    +0.000 A 
ATOM     18  C   UNL     1       2.072   6.799  19.998  0.00  0.00    +0.000 A 
ATOM     19  O   UNL     1       1.759   7.777  20.668  0.00  0.00    +0.000 OA
ATOM     20  O   UNL     1       1.536   5.545  20.226  0.00  0.00    +0.000 OA
ATOM     21  C   UNL     1       1.867   4.459  19.395  0.00  0.00    +0.000 A 
ATOM     22  C   UNL     1       1.240   3.246  19.681  0.00  0.00    +0.000 A 
ATOM     23  C   UNL     1       1.500   2.140  18.879  0.00  0.00    +0.000 A 
ATOM     24  C   UNL     1       2.380   2.256  17.803  0.00  0.00    +0.000 A 
ATOM     25  C   UNL     1       3.011   3.478  17.534  0.00  0.00    +0.000 A 
ATOM     26  C   UNL     1       2.764   4.600  18.336  0.00  0.00    +0.000 A 
ENDBRANCH  15  16
ENDBRANCH  14  15
ENDBRANCH   1  14
TORSDOF 7
ENDMDL
MODEL 2
REMARK VINA RESULT:      -7.9      1.538      1.968
REMARK  Name = 
REMARK  8 active torsions:
REMARK  status: ('A' for Active; 'I' for Inactive)
REMARK    1  A    between atoms: C_1  and  C_2
REMARK    2  A    between atoms: C_5  and  N_6
REMARK    3  A    between atoms: N_6  and  C_7
REMARK    4  A    between atoms: C_7  and  C_8
REMARK    5  A    between atoms: C_8  and  O_9
REMARK    6  A    between atoms: C_8  and  C_10
REMARK    7  A    between atoms: C_10  and  O_11
REMARK    8  A    between atoms: O_11  and  C_12
REMARK                            x       y       z     vdW  Elec       q    Type
REMARK                         _______ _______ _______ _____ _____    ______ ____
ROOT
ATOM      1  C   UNL     1       7.081   4.822  17.571  0.00  0.00    +0.000 C 
ENDROOT
BRANCH   1   2
ATOM      2  O   UNL     1       8.333   4.128  17.426  0.00  0.00    +0.000 OA
ATOM      3  H   UNL     1       8.967   4.508  18.059  0.00  0.00    +0.000 HD
ENDBRANCH   1   2
BRANCH   1   4
ATOM      4  C   UNL     1       6.977   5.971  16.547  0.00  0.00    +0.000 C 
BRANCH   4   5
ATOM      5  N   UNL     1       7.675   5.600  15.314  0.00  0.00    +0.000 N 
ATOM      6  H   UNL     1       8.267   6.354  14.967  0.00  0.00    +0.000 HD
BRANCH   5  11
ATOM      7  C   UNL     1       4.965   2.566  11.280  0.00  0.00    +0.000 C 
ATOM      8  C   UNL     1       5.650   3.418  12.306  0.00  0.00    +0.000 A 
ATOM      9  C   UNL     1       6.938   3.913  12.097  0.00  0.00    +0.000 A 
ATOM     10  C   UNL     1       7.584   4.656  13.093  0.00  0.00    +0.000 A 
ATOM     11  C   UNL     1       6.952   4.950  14.309  0.00  0.00    +0.000 A 
ATOM     12  C   UNL     1       5.659   4.451  14.504  0.00  0.00    +0.000 A 
ATOM     13  C   UNL     1       5.013   3.698  13.517  0.00  0.00    +0.000 A 
ENDBRANCH   5  11
ENDBRANCH   4   5
ENDBRANCH   1   4
BRANCH   1  14
ATOM     14  C   UNL     1       6.952   5.350  19.005  0.00  0.00    +0.000 C 
BRANCH  14  15
ATOM     15  O   UNL     1       5.772   4.823  19.613  0.00  0.00    +0.000 OA
BRANCH  15  16
ATOM     16  C   UNL     1       4.554   5.243  19.126  0.00  0.00    +0.000 A 
ATOM     17  C   UNL     1       4.193   6.506  18.871  0.00  0.00    +0.000 A 
ATOM     18  C   UNL     1       2.867   6.869  18.356  0.00  0.00    +0.000 A 
ATOM     19  O   UNL     1       2.604   8.038  18.096  0.00  0.00    +0.000 OA
ATOM     20  O   UNL     1       1.946   5.851  18.193  0.00  0.00    +0.000 OA
ATOM     21  C   UNL     1       2.303   4.512  18.436  0.00  0.00    +0.000 A 
ATOM     22  C   UNL     1       1.316   3.555  18.199  0.00  0.00    +0.000 A 
ATOM     23  C   UNL     1       1.613   2.209  18.392  0.00  0.00    +0.000 A 
ATOM     24  C   UNL     1       2.888   1.836  18.818  0.00  0.00    +0.000 A 
ATOM     25  C   UNL     1       3.866   2.809  19.062  0.00  0.00    +0.000 A 
ATOM     26  C   UNL     1       3.581   4.168  18.878  0.00  0.00    +0.000 A 
ENDBRANCH  15  16
ENDBRANCH  14  15
ENDBRANCH   1  14
TORSDOF 7
ENDMDL
MODEL 3
REMARK VINA RESULT:      -7.8      0.790      1.266
REMARK  Name = 
REMARK  8 active torsions:
REMARK  status: ('A' for Active; 'I' for Inactive)
REMARK    1  A    between atoms: C_1  and  C_2
REMARK    2  A    between atoms: C_5  and  N_6
REMARK    3  A    between atoms: N_6  and  C_7
REMARK    4  A    between atoms: C_7  and  C_8
REMARK    5  A    between atoms: C_8  and  O_9
REMARK    6  A    between atoms: C_8  and  C_10
REMARK    7  A    between atoms: C_10  and  O_11
REMARK    8  A    between atoms: O_11  and  C_12
REMARK                            x       y       z     vdW  Elec       q    Type
REMARK                         _______ _______ _______ _____ _____    ______ ____
ROOT
ATOM      1  C   UNL     1       6.317   5.368  18.071  0.00  0.00    +0.000 C 
ENDROOT
BRANCH   1   2
ATOM      2  O   UNL     1       6.969   5.750  19.293  0.00  0.00    +0.000 OA
ATOM      3  H   UNL     1       6.949   4.990  19.901  0.00  0.00    +0.000 HD
ENDBRANCH   1   2
BRANCH   1   4
ATOM      4  C   UNL     1       7.344   4.825  17.056  0.00  0.00    +0.000 C 
BRANCH   4   5
ATOM      5  N   UNL     1       7.237   5.567  15.798  0.00  0.00    +0.000 N 
ATOM      6  H   UNL     1       6.857   6.503  15.935  0.00  0.00    +0.000 HD
BRANCH   5  11
ATOM      7  C   UNL     1       5.411   2.555  11.279  0.00  0.00    +0.000 C 
ATOM      8  C   UNL     1       5.855   3.398  12.436  0.00  0.00    +0.000 A 
ATOM      9  C   UNL     1       7.024   4.159  12.376  0.00  0.00    +0.000 A 
ATOM     10  C   UNL     1       7.453   4.892  13.490  0.00  0.00    +0.000 A 
ATOM     11  C   UNL     1       6.714   4.911  14.680  0.00  0.00    +0.000 A 
ATOM     12  C   UNL     1       5.541   4.147  14.726  0.00  0.00    +0.000 A 
ATOM     13  C   UNL     1       5.113   3.404  13.620  0.00  0.00    +0.000 A 
ENDBRANCH   5  11
ENDBRANCH   4   5
ENDBRANCH   1   4
BRANCH   1  14
ATOM     14  C   UNL     1       5.560   6.572  17.495  0.00  0.00    +0.000 C 
BRANCH  14  15
ATOM     15  O   UNL     1       4.223   6.194  17.164  0.00  0.00    +0.000 OA
BRANCH  15  16
ATOM     16  C   UNL     1       3.317   6.066  18.193  0.00  0.00    +0.000 A 
ATOM     17  C   UNL     1       2.945   7.025  19.048  0.00  0.00    +0.000 A 
ATOM     18  C   UNL     1       1.974   6.802  20.127  0.00  0.00    +0.000 A 
ATOM     19  O   UNL     1       1.634   7.728  20.853  0.00  0.00    +0.000 OA
ATOM     20  O   UNL     1       1.480   5.519  20.283  0.00  0.00    +0.000 OA
ATOM     21  C   UNL     1       1.840   4.495  19.389  0.00  0.00    +0.000 A 
ATOM     22  C   UNL     1       1.254   3.248  19.606  0.00  0.00    +0.000 A 
ATOM     23  C   UNL     1       1.544   2.199  18.740  0.00  0.00    +0.000 A 
ATOM     24  C   UNL     1       2.414   2.406  17.669  0.00  0.00    +0.000 A 
ATOM     25  C   UNL     1       3.004   3.661  17.469  0.00  0.00    +0.000 A 
ATOM     26  C   UNL     1       2.726   4.726  18.336  0.00  0.00    +0.000 A 
ENDBRANCH  15  16
ENDBRANCH  14  15
ENDBRANCH   1  14
TORSDOF 7
ENDMDL
MODEL 4
REMARK VINA RESULT:      -7.8      2.675      7.023
REMARK  Name = 
REMARK  8 active torsions:
REMARK  status: ('A' for Active; 'I' for Inactive)
REMARK    1  A    between atoms: C_1  and  C_2
REMARK    2  A    between atoms: C_5  and  N_6
REMARK    3  A    between atoms: N_6  and  C_7
REMARK    4  A    between atoms: C_7  and  C_8
REMARK    5  A    between atoms: C_8  and  O_9
REMARK    6  A    between atoms: C_8  and  C_10
REMARK    7  A    between atoms: C_10  and  O_11
REMARK    8  A    between atoms: O_11  and  C_12
REMARK                            x       y       z     vdW  Elec       q    Type
REMARK                         _______ _______ _______ _____ _____    ______ ____
ROOT
ATOM      1  C   UNL     1       2.543   3.640  20.232  0.00  0.00    +0.000 C 
ENDROOT
BRANCH   1   2
ATOM      2  O   UNL     1       1.890   2.475  20.766  0.00  0.00    +0.000 OA
ATOM      3  H   UNL     1       2.357   2.208  21.577  0.00  0.00    +0.000 HD
ENDBRANCH   1   2
BRANCH   1   4
ATOM      4  C   UNL     1       1.598   4.858  20.275  0.00  0.00    +0.000 C 
BRANCH   4   5
ATOM      5  N   UNL     1       2.365   6.071  20.564  0.00  0.00    +0.000 N 
ATOM      6  H   UNL     1       2.644   6.125  21.543  0.00  0.00    +0.000 HD
BRANCH   5  11
ATOM      7  C   UNL     1       0.828  11.258  18.678  0.00  0.00    +0.000 C 
ATOM      8  C   UNL     1       1.168   9.877  19.152  0.00  0.00    +0.000 A 
ATOM      9  C   UNL     1       0.869   9.460  20.450  0.00  0.00    +0.000 A 
ATOM     10  C   UNL     1       1.250   8.187  20.893  0.00  0.00    +0.000 A 
ATOM     11  C   UNL     1       1.909   7.287  20.046  0.00  0.00    +0.000 A 
ATOM     12  C   UNL     1       2.199   7.716  18.745  0.00  0.00    +0.000 A 
ATOM     13  C   UNL     1       1.831   8.991  18.300  0.00  0.00    +0.000 A 
ENDBRANCH   5  11
ENDBRANCH   4   5
ENDBRANCH   1   4
BRANCH   1  14
ATOM     14  C   UNL     1       3.007   3.355  18.798  0.00  0.00    +0.000 C 
BRANCH  14  15
ATOM     15  O   UNL     1       3.481   4.558  18.192  0.00  0.00    +0.000 OA
BRANCH  15  16
ATOM     16  C   UNL     1       4.839   4.788  18.196  0.00  0.00    +0.000 A 
ATOM     17  C   UNL     1       5.595   5.064  19.264  0.00  0.00    +0.000 A 
ATOM     18  C   UNL     1       7.041   5.304  19.179  0.00  0.00    +0.000 A 
ATOM     19  O   UNL     1       7.695   5.507  20.197  0.00  0.00    +0.000 OA
ATOM     20  O   UNL     1       7.615   5.299  17.921  0.00  0.00    +0.000 OA
ATOM     21  C   UNL     1       6.848   4.995  16.782  0.00  0.00    +0.000 A 
ATOM     22  C   UNL     1       7.529   4.972  15.564  0.00  0.00    +0.000 A 
ATOM     23  C   UNL     1       6.835   4.649  14.403  0.00  0.00    +0.000 A 
ATOM     24  C   UNL     1       5.474   4.353  14.469  0.00  0.00    +0.000 A 
ATOM     25  C   UNL     1       4.800   4.390  15.697  0.00  0.00    +0.000 A 
ATOM     26  C   UNL     1       5.484   4.719  16.875  0.00  0.00    +0.000 A 
ENDBRANCH  15  16
ENDBRANCH  14  15
ENDBRANCH   1  14
TORSDOF 7
ENDMDL
MODEL 5
REMARK VINA RESULT:      -7.7      1.684      1.931
REMARK  Name = 
REMARK  8 active torsions:
REMARK  status: ('A' for Active; 'I' for Inactive)
REMARK    1  A    between atoms: C_1  and  C_2
REMARK    2  A    between atoms: C_5  and  N_6
REMARK    3  A    between atoms: N_6  and  C_7
REMARK    4  A    between atoms: C_7  and  C_8
REMARK    5  A    between atoms: C_8  and  O_9
REMARK    6  A    between atoms: C_8  and  C_10
REMARK    7  A    between atoms: C_10  and  O_11
REMARK    8  A    between atoms: O_11  and  C_12
REMARK                            x       y       z     vdW  Elec       q    Type
REMARK                         _______ _______ _______ _____ _____    ______ ____
ROOT
ATOM      1  C   UNL     1       7.029   4.713  17.439  0.00  0.00    +0.000 C 
ENDROOT
BRANCH   1   2
ATOM      2  O   UNL     1       8.326   4.096  17.383  0.00  0.00    +0.000 OA
ATOM      3  H   UNL     1       8.239   3.243  16.923  0.00  0.00    +0.000 HD
ENDBRANCH   1   2
BRANCH   1   4
ATOM      4  C   UNL     1       6.924   5.849  16.401  0.00  0.00    +0.000 C 
BRANCH   4   5
ATOM      5  N   UNL     1       7.631   5.468  15.177  0.00  0.00    +0.000 N 
ATOM      6  H   UNL     1       8.172   6.240  14.790  0.00  0.00    +0.000 HD
BRANCH   5  11
ATOM      7  C   UNL     1       4.546   2.828  11.134  0.00  0.00    +0.000 C 
ATOM      8  C   UNL     1       5.374   3.457  12.215  0.00  0.00    +0.000 A 
ATOM      9  C   UNL     1       4.846   3.702  13.485  0.00  0.00    +0.000 A 
ATOM     10  C   UNL     1       5.617   4.345  14.461  0.00  0.00    +0.000 A 
ATOM     11  C   UNL     1       6.939   4.733  14.209  0.00  0.00    +0.000 A 
ATOM     12  C   UNL     1       7.457   4.477  12.934  0.00  0.00    +0.000 A 
ATOM     13  C   UNL     1       6.688   3.844  11.950  0.00  0.00    +0.000 A 
ENDBRANCH   5  11
ENDBRANCH   4   5
ENDBRANCH   1   4
BRANCH   1  14
ATOM     14  C   UNL     1       6.772   5.239  18.857  0.00  0.00    +0.000 C 
BRANCH  14  15
ATOM     15  O   UNL     1       5.674   4.540  19.444  0.00  0.00    +0.000 OA
BRANCH  15  16
ATOM     16  C   UNL     1       4.415   5.080  19.296  0.00  0.00    +0.000 A 
ATOM     17  C   UNL     1       4.108   6.216  18.660  0.00  0.00    +0.000 A 
ATOM     18  C   UNL     1       2.735   6.727  18.554  0.00  0.00    +0.000 A 
ATOM     19  O   UNL     1       2.504   7.749  17.919  0.00  0.00    +0.000 OA
ATOM     20  O   UNL     1       1.740   6.016  19.200  0.00  0.00    +0.000 OA
ATOM     21  C   UNL     1       2.031   4.811  19.863  0.00  0.00    +0.000 A 
ATOM     22  C   UNL     1       0.951   4.147  20.446  0.00  0.00    +0.000 A 
ATOM     23  C   UNL     1       1.165   2.934  21.091  0.00  0.00    +0.000 A 
ATOM     24  C   UNL     1       2.451   2.397  21.147  0.00  0.00    +0.000 A 
ATOM     25  C   UNL     1       3.529   3.079  20.566  0.00  0.00    +0.000 A 
ATOM     26  C   UNL     1       3.330   4.305  19.917  0.00  0.00    +0.000 A 
ENDBRANCH  15  16
ENDBRANCH  14  15
ENDBRANCH   1  14
TORSDOF 7
ENDMDL
MODEL 6
REMARK VINA RESULT:      -7.5      2.199      7.225
REMARK  Name = 
REMARK  8 active torsions:
REMARK  status: ('A' for Active; 'I' for Inactive)
REMARK    1  A    between atoms: C_1  and  C_2
REMARK    2  A    between atoms: C_5  and  N_6
REMARK    3  A    between atoms: N_6  and  C_7
REMARK    4  A    between atoms: C_7  and  C_8
REMARK    5  A    between atoms: C_8  and  O_9
REMARK    6  A    between atoms: C_8  and  C_10
REMARK    7  A    between atoms: C_10  and  O_11
REMARK    8  A    between atoms: O_11  and  C_12
REMARK                            x       y       z     vdW  Elec       q    Type
REMARK                         _______ _______ _______ _____ _____    ______ ____
ROOT
ATOM      1  C   UNL     1       2.532   3.839  18.375  0.00  0.00    +0.000 C 
ENDROOT
BRANCH   1   2
ATOM      2  O   UNL     1       1.609   4.120  17.308  0.00  0.00    +0.000 OA
ATOM      3  H   UNL     1       1.042   3.339  17.181  0.00  0.00    +0.000 HD
ENDBRANCH   1   2
BRANCH   1   4
ATOM      4  C   UNL     1       2.768   5.099  19.232  0.00  0.00    +0.000 C 
BRANCH   4   5
ATOM      5  N   UNL     1       2.897   6.271  18.364  0.00  0.00    +0.000 N 
ATOM      6  H   UNL     1       3.842   6.376  17.997  0.00  0.00    +0.000 HD
BRANCH   5  11
ATOM      7  C   UNL     1       0.179  11.089  19.857  0.00  0.00    +0.000 C 
ATOM      8  C   UNL     1       0.950   9.859  19.483  0.00  0.00    +0.000 A 
ATOM      9  C   UNL     1       1.451   9.680  18.192  0.00  0.00    +0.000 A 
ATOM     10  C   UNL     1       2.116   8.497  17.846  0.00  0.00    +0.000 A 
ATOM     11  C   UNL     1       2.326   7.477  18.783  0.00  0.00    +0.000 A 
ATOM     12  C   UNL     1       1.823   7.671  20.075  0.00  0.00    +0.000 A 
ATOM     13  C   UNL     1       1.147   8.846  20.424  0.00  0.00    +0.000 A 
ENDBRANCH   5  11
ENDBRANCH   4   5
ENDBRANCH   1   4
BRANCH   1  14
ATOM     14  C   UNL     1       3.850   3.319  17.788  0.00  0.00    +0.000 C 
BRANCH  14  15
ATOM     15  O   UNL     1       4.065   3.885  16.495  0.00  0.00    +0.000 OA
BRANCH  15  16
ATOM     16  C   UNL     1       5.244   4.564  16.278  0.00  0.00    +0.000 A 
ATOM     17  C   UNL     1       5.890   5.335  17.159  0.00  0.00    +0.000 A 
ATOM     18  C   UNL     1       7.144   6.032  16.844  0.00  0.00    +0.000 A 
ATOM     19  O   UNL     1       7.719   6.690  17.704  0.00  0.00    +0.000 OA
ATOM     20  O   UNL     1       7.627   5.919  15.553  0.00  0.00    +0.000 OA
ATOM     21  C   UNL     1       6.979   5.101  14.611  0.00  0.00    +0.000 A 
ATOM     22  C   UNL     1       7.570   5.019  13.350  0.00  0.00    +0.000 A 
ATOM     23  C   UNL     1       6.996   4.204  12.380  0.00  0.00    +0.000 A 
ATOM     24  C   UNL     1       5.841   3.482  12.679  0.00  0.00    +0.000 A 
ATOM     25  C   UNL     1       5.251   3.581  13.946  0.00  0.00    +0.000 A 
ATOM     26  C   UNL     1       5.815   4.402  14.932  0.00  0.00    +0.000 A 
ENDBRANCH  15  16
ENDBRANCH  14  15
ENDBRANCH   1  14
TORSDOF 7
ENDMDL
MODEL 7
REMARK VINA RESULT:      -7.4      1.423      1.936
REMARK  Name = 
REMARK  8 active torsions:
REMARK  status: ('A' for Active; 'I' for Inactive)
REMARK    1  A    between atoms: C_1  and  C_2
REMARK    2  A    between atoms: C_5  and  N_6
REMARK    3  A    between atoms: N_6  and  C_7
REMARK    4  A    between atoms: C_7  and  C_8
REMARK    5  A    between atoms: C_8  and  O_9
REMARK    6  A    between atoms: C_8  and  C_10
REMARK    7  A    between atoms: C_10  and  O_11
REMARK    8  A    between atoms: O_11  and  C_12
REMARK                            x       y       z     vdW  Elec       q    Type
REMARK                         _______ _______ _______ _____ _____    ______ ____
ROOT
ATOM      1  C   UNL     1       7.596   5.837  18.191  0.00  0.00    +0.000 C 
ENDROOT
BRANCH   1   2
ATOM      2  O   UNL     1       8.336   6.908  18.800  0.00  0.00    +0.000 OA
ATOM      3  H   UNL     1       8.651   6.606  19.670  0.00  0.00    +0.000 HD
ENDBRANCH   1   2
BRANCH   1   4
ATOM      4  C   UNL     1       6.905   6.323  16.901  0.00  0.00    +0.000 C 
BRANCH   4   5
ATOM      5  N   UNL     1       7.675   5.891  15.733  0.00  0.00    +0.000 N 
ATOM      6  H   UNL     1       8.290   6.625  15.385  0.00  0.00    +0.000 HD
BRANCH   5  11
ATOM      7  C   UNL     1       5.252   2.686  11.647  0.00  0.00    +0.000 C 
ATOM      8  C   UNL     1       5.854   3.581  12.689  0.00  0.00    +0.000 A 
ATOM      9  C   UNL     1       7.074   4.227  12.476  0.00  0.00    +0.000 A 
ATOM     10  C   UNL     1       7.649   5.009  13.485  0.00  0.00    +0.000 A 
ATOM     11  C   UNL     1       7.012   5.192  14.719  0.00  0.00    +0.000 A 
ATOM     12  C   UNL     1       5.788   4.542  14.918  0.00  0.00    +0.000 A 
ATOM     13  C   UNL     1       5.213   3.750  13.917  0.00  0.00    +0.000 A 
ENDBRANCH   5  11
ENDBRANCH   4   5
ENDBRANCH   1   4
BRANCH   1  14
ATOM     14  C   UNL     1       6.570   5.290  19.191  0.00  0.00    +0.000 C 
BRANCH  14  15
ATOM     15  O   UNL     1       5.470   4.708  18.490  0.00  0.00    +0.000 OA
BRANCH  15  16
ATOM     16  C   UNL     1       4.225   5.269  18.668  0.00  0.00    +0.000 A 
ATOM     17  C   UNL     1       3.795   6.428  18.157  0.00  0.00    +0.000 A 
ATOM     18  C   UNL     1       2.448   6.960  18.403  0.00  0.00    +0.000 A 
ATOM     19  O   UNL     1       2.090   8.005  17.872  0.00  0.00    +0.000 OA
ATOM     20  O   UNL     1       1.626   6.243  19.252  0.00  0.00    +0.000 OA
ATOM     21  C   UNL     1       2.044   5.013  19.791  0.00  0.00    +0.000 A 
ATOM     22  C   UNL     1       1.125   4.346  20.601  0.00  0.00    +0.000 A 
ATOM     23  C   UNL     1       1.464   3.110  21.141  0.00  0.00    +0.000 A 
ATOM     24  C   UNL     1       2.715   2.554  20.867  0.00  0.00    +0.000 A 
ATOM     25  C   UNL     1       3.633   3.240  20.060  0.00  0.00    +0.000 A 
ATOM     26  C   UNL     1       3.307   4.489  19.513  0.00  0.00    +0.000 A 
ENDBRANCH  15  16
ENDBRANCH  14  15
ENDBRANCH   1  14
TORSDOF 7
ENDMDL
MODEL 8
REMARK VINA RESULT:      -7.4      2.158      6.969
REMARK  Name = 
REMARK  8 active torsions:
REMARK  status: ('A' for Active; 'I' for Inactive)
REMARK    1  A    between atoms: C_1  and  C_2
REMARK    2  A    between atoms: C_5  and  N_6
REMARK    3  A    between atoms: N_6  and  C_7
REMARK    4  A    between atoms: C_7  and  C_8
REMARK    5  A    between atoms: C_8  and  O_9
REMARK    6  A    between atoms: C_8  and  C_10
REMARK    7  A    between atoms: C_10  and  O_11
REMARK    8  A    between atoms: O_11  and  C_12
REMARK                            x       y       z     vdW  Elec       q    Type
REMARK                         _______ _______ _______ _____ _____    ______ ____
ROOT
ATOM      1  C   UNL     1       2.470   3.398  18.450  0.00  0.00    +0.000 C 
ENDROOT
BRANCH   1   2
ATOM      2  O   UNL     1       1.854   3.798  17.214  0.00  0.00    +0.000 OA
ATOM      3  H   UNL     1       1.100   4.377  17.422  0.00  0.00    +0.000 HD
ENDBRANCH   1   2
BRANCH   1   4
ATOM      4  C   UNL     1       2.119   4.392  19.576  0.00  0.00    +0.000 C 
BRANCH   4   5
ATOM      5  N   UNL     1       2.982   5.572  19.482  0.00  0.00    +0.000 N 
ATOM      6  H   UNL     1       3.698   5.583  20.207  0.00  0.00    +0.000 HD
BRANCH   5  11
ATOM      7  C   UNL     1       0.871  10.862  18.861  0.00  0.00    +0.000 C 
ATOM      8  C   UNL     1       1.362   9.453  19.004  0.00  0.00    +0.000 A 
ATOM      9  C   UNL     1       1.215   8.750  20.201  0.00  0.00    +0.000 A 
ATOM     10  C   UNL     1       1.734   7.456  20.334  0.00  0.00    +0.000 A 
ATOM     11  C   UNL     1       2.385   6.818  19.269  0.00  0.00    +0.000 A 
ATOM     12  C   UNL     1       2.522   7.533  18.073  0.00  0.00    +0.000 A 
ATOM     13  C   UNL     1       2.015   8.830  17.938  0.00  0.00    +0.000 A 
ENDBRANCH   5  11
ENDBRANCH   4   5
ENDBRANCH   1   4
BRANCH   1  14
ATOM     14  C   UNL     1       3.988   3.300  18.258  0.00  0.00    +0.000 C 
BRANCH  14  15
ATOM     15  O   UNL     1       4.325   3.567  16.896  0.00  0.00    +0.000 OA
BRANCH  15  16
ATOM     16  C   UNL     1       5.415   4.372  16.649  0.00  0.00    +0.000 A 
ATOM     17  C   UNL     1       6.031   5.168  17.530  0.00  0.00    +0.000 A 
ATOM     18  C   UNL     1       7.189   6.002  17.182  0.00  0.00    +0.000 A 
ATOM     19  O   UNL     1       7.744   6.678  18.041  0.00  0.00    +0.000 OA
ATOM     20  O   UNL     1       7.605   5.994  15.864  0.00  0.00    +0.000 OA
ATOM     21  C   UNL     1       6.988   5.155  14.919  0.00  0.00    +0.000 A 
ATOM     22  C   UNL     1       7.511   5.187  13.626  0.00  0.00    +0.000 A 
ATOM     23  C   UNL     1       6.966   4.359  12.650  0.00  0.00    +0.000 A 
ATOM     24  C   UNL     1       5.908   3.509  12.975  0.00  0.00    +0.000 A 
ATOM     25  C   UNL     1       5.386   3.494  14.276  0.00  0.00    +0.000 A 
ATOM     26  C   UNL     1       5.921   4.327  15.268  0.00  0.00    +0.000 A 
ENDBRANCH  15  16
ENDBRANCH  14  15
ENDBRANCH   1  14
TORSDOF 7
ENDMDL
MODEL 9
REMARK VINA RESULT:      -7.3      2.683      7.042
REMARK  Name = 
REMARK  8 active torsions:
REMARK  status: ('A' for Active; 'I' for Inactive)
REMARK    1  A    between atoms: C_1  and  C_2
REMARK    2  A    between atoms: C_5  and  N_6
REMARK    3  A    between atoms: N_6  and  C_7
REMARK    4  A    between atoms: C_7  and  C_8
REMARK    5  A    between atoms: C_8  and  O_9
REMARK    6  A    between atoms: C_8  and  C_10
REMARK    7  A    between atoms: C_10  and  O_11
REMARK    8  A    between atoms: O_11  and  C_12
REMARK                            x       y       z     vdW  Elec       q    Type
REMARK                         _______ _______ _______ _____ _____    ______ ____
ROOT
ATOM      1  C   UNL     1       2.659   2.932  18.602  0.00  0.00    +0.000 C 
ENDROOT
BRANCH   1   2
ATOM      2  O   UNL     1       1.947   1.686  18.501  0.00  0.00    +0.000 OA
ATOM      3  H   UNL     1       2.383   1.139  17.825  0.00  0.00    +0.000 HD
ENDBRANCH   1   2
BRANCH   1   4
ATOM      4  C   UNL     1       1.751   4.027  19.199  0.00  0.00    +0.000 C 
BRANCH   4   5
ATOM      5  N   UNL     1       2.569   5.024  19.893  0.00  0.00    +0.000 N 
ATOM      6  H   UNL     1       2.615   4.852  20.896  0.00  0.00    +0.000 HD
BRANCH   5  11
ATOM      7  C   UNL     1       1.520  10.419  18.274  0.00  0.00    +0.000 C 
ATOM      8  C   UNL     1       1.856   9.028  18.722  0.00  0.00    +0.000 A 
ATOM      9  C   UNL     1       2.528   8.137  17.882  0.00  0.00    +0.000 A 
ATOM     10  C   UNL     1       2.778   6.823  18.296  0.00  0.00    +0.000 A 
ATOM     11  C   UNL     1       2.395   6.372  19.566  0.00  0.00    +0.000 A 
ATOM     12  C   UNL     1       1.726   7.277  20.399  0.00  0.00    +0.000 A 
ATOM     13  C   UNL     1       1.463   8.588  19.987  0.00  0.00    +0.000 A 
ENDBRANCH   5  11
ENDBRANCH   4   5
ENDBRANCH   1   4
BRANCH   1  14
ATOM     14  C   UNL     1       3.174   3.341  17.216  0.00  0.00    +0.000 C 
BRANCH  14  15
ATOM     15  O   UNL     1       4.525   2.909  17.052  0.00  0.00    +0.000 OA
BRANCH  15  16
ATOM     16  C   UNL     1       5.399   3.760  16.411  0.00  0.00    +0.000 A 
ATOM     17  C   UNL     1       5.626   3.821  15.094  0.00  0.00    +0.000 A 
ATOM     18  C   UNL     1       6.583   4.758  14.491  0.00  0.00    +0.000 A 
ATOM     19  O   UNL     1       6.719   4.803  13.274  0.00  0.00    +0.000 OA
ATOM     20  O   UNL     1       7.314   5.560  15.347  0.00  0.00    +0.000 OA
ATOM     21  C   UNL     1       7.084   5.530  16.734  0.00  0.00    +0.000 A 
ATOM     22  C   UNL     1       7.842   6.410  17.508  0.00  0.00    +0.000 A 
ATOM     23  C   UNL     1       7.643   6.452  18.884  0.00  0.00    +0.000 A 
ATOM     24  C   UNL     1       6.692   5.618  19.471  0.00  0.00    +0.000 A 
ATOM     25  C   UNL     1       5.944   4.731  18.683  0.00  0.00    +0.000 A 
ATOM     26  C   UNL     1       6.138   4.674  17.297  0.00  0.00    +0.000 A 
ENDBRANCH  15  16
ENDBRANCH  14  15
ENDBRANCH   1  14
TORSDOF 7
ENDMDL
