MODEL 1
REMARK VINA RESULT:      -8.0      0.000      0.000
REMARK  Name = 
REMARK  6 active torsions:
REMARK  status: ('A' for Active; 'I' for Inactive)
REMARK    1  A    between atoms: C_1  and  C_2
REMARK    2  A    between atoms: C_2  and  C_18
REMARK    3  A    between atoms: N_3  and  N_4
REMARK    4  A    between atoms: C_5  and  C_7
REMARK    5  A    between atoms: C_7  and  N_8
REMARK    6  A    between atoms: C_9  and  C_11
REMARK                            x       y       z     vdW  Elec       q    Type
REMARK                         _______ _______ _______ _____ _____    ______ ____
ROOT
ATOM      1  N   UNL     1       4.934   6.083  18.232  0.00  0.00    +0.000 N 
ATOM      2  C   UNL     1       6.302   6.137  18.475  0.00  0.00    +0.000 C 
ATOM      3  O   UNL     1       6.883   5.620  19.427  0.00  0.00    +0.000 OA
ATOM      4  H   UNL     1       4.612   6.299  17.292  0.00  0.00    +0.000 HD
ENDROOT
BRANCH   1   7
ATOM      5  C   UNL     1       3.408   3.782  17.381  0.00  0.00    +0.000 C 
ATOM      6  C   UNL     1       3.440   4.393  18.766  0.00  0.00    +0.000 C 
ATOM      7  N   UNL     1       4.116   5.447  19.123  0.00  0.00    +0.000 NA
BRANCH   6   8
ATOM      8  C   UNL     1       2.627   3.733  19.772  0.00  0.00    +0.000 A 
ATOM      9  C   UNL     1       1.261   3.703  19.989  0.00  0.00    +0.000 A 
ATOM     10  C   UNL     1       1.043   2.914  21.144  0.00  0.00    +0.000 A 
ATOM     11  C   UNL     1       2.284   2.501  21.561  0.00  0.00    +0.000 A 
ATOM     12  O   UNL     1       3.249   2.984  20.738  0.00  0.00    +0.000 OA
ENDBRANCH   6   8
ENDBRANCH   1   7
BRANCH   2  13
ATOM     13  C   UNL     1       7.067   6.872  17.374  0.00  0.00    +0.000 C 
BRANCH  13  14
ATOM     14  N   UNL     1       6.763   6.332  16.064  0.00  0.00    +0.000 N 
ATOM     15  C   UNL     1       7.247   5.110  15.658  0.00  0.00    +0.000 C 
ATOM     16  O   UNL     1       7.972   4.435  16.385  0.00  0.00    +0.000 OA
ATOM     17  H   UNL     1       6.299   6.941  15.395  0.00  0.00    +0.000 HD
BRANCH  15  18
ATOM     18  C   UNL     1       6.872   4.632  14.296  0.00  0.00    +0.000 A 
ATOM     19  C   UNL     1       5.718   3.844  14.156  0.00  0.00    +0.000 A 
ATOM     20  C   UNL     1       5.324   3.372  12.900  0.00  0.00    +0.000 A 
ATOM     21  C   UNL     1       6.077   3.680  11.768  0.00  0.00    +0.000 A 
ATOM     22  C   UNL     1       7.223   4.468  11.891  0.00  0.00    +0.000 A 
ATOM     23  C   UNL     1       7.610   4.938  13.147  0.00  0.00    +0.000 A 
ATOM     24  F   UNL     1       8.717   5.694  13.217  0.00  0.00    +0.000 F 
ENDBRANCH  15  18
ENDBRANCH  13  14
ENDBRANCH   2  13
TORSDOF 5
ENDMDL
MODEL 2
REMARK VINA RESULT:      -7.8      1.568      1.874
REMARK  Name = 
REMARK  6 active torsions:
REMARK  status: ('A' for Active; 'I' for Inactive)
REMARK    1  A    between atoms: C_1  and  C_2
REMARK    2  A    between atoms: C_2  and  C_18
REMARK    3  A    between atoms: N_3  and  N_4
REMARK    4  A    between atoms: C_5  and  C_7
REMARK    5  A    between atoms: C_7  and  N_8
REMARK    6  A    between atoms: C_9  and  C_11
REMARK                            x       y       z     vdW  Elec       q    Type
REMARK                         _______ _______ _______ _____ _____    ______ ____
ROOT
ATOM      1  N   UNL     1       6.056   3.916  18.559  0.00  0.00    +0.000 N 
ATOM      2  C   UNL     1       6.969   4.851  19.033  0.00  0.00    +0.000 C 
ATOM      3  O   UNL     1       6.934   5.393  20.136  0.00  0.00    +0.000 OA
ATOM      4  H   UNL     1       6.335   3.341  17.768  0.00  0.00    +0.000 HD
ENDROOT
BRANCH   1   7
ATOM      5  C   UNL     1       3.406   4.787  17.806  0.00  0.00    +0.000 C 
ATOM      6  C   UNL     1       3.779   3.929  18.996  0.00  0.00    +0.000 C 
ATOM      7  N   UNL     1       4.984   3.568  19.333  0.00  0.00    +0.000 NA
BRANCH   6   8
ATOM      8  C   UNL     1       2.678   3.486  19.833  0.00  0.00    +0.000 A 
ATOM      9  C   UNL     1       1.308   3.486  19.642  0.00  0.00    +0.000 A 
ATOM     10  C   UNL     1       0.726   2.954  20.818  0.00  0.00    +0.000 A 
ATOM     11  C   UNL     1       1.772   2.652  21.655  0.00  0.00    +0.000 A 
ATOM     12  O   UNL     1       2.956   2.963  21.070  0.00  0.00    +0.000 OA
ENDBRANCH   6   8
ENDBRANCH   1   7
BRANCH   2  13
ATOM     13  C   UNL     1       8.109   5.112  18.049  0.00  0.00    +0.000 C 
BRANCH  13  14
ATOM     14  N   UNL     1       7.788   4.624  16.722  0.00  0.00    +0.000 N 
ATOM     15  C   UNL     1       7.130   5.411  15.805  0.00  0.00    +0.000 C 
ATOM     16  O   UNL     1       6.773   6.554  16.081  0.00  0.00    +0.000 OA
ATOM     17  H   UNL     1       7.935   3.637  16.531  0.00  0.00    +0.000 HD
BRANCH  15  18
ATOM     18  C   UNL     1       6.854   4.827  14.462  0.00  0.00    +0.000 A 
ATOM     19  C   UNL     1       7.711   5.154  13.398  0.00  0.00    +0.000 A 
ATOM     20  C   UNL     1       7.494   4.631  12.119  0.00  0.00    +0.000 A 
ATOM     21  C   UNL     1       6.417   3.775  11.886  0.00  0.00    +0.000 A 
ATOM     22  C   UNL     1       5.561   3.438  12.934  0.00  0.00    +0.000 A 
ATOM     23  C   UNL     1       5.784   3.960  14.209  0.00  0.00    +0.000 A 
ATOM     24  F   UNL     1       4.936   3.606  15.187  0.00  0.00    +0.000 F 
ENDBRANCH  15  18
ENDBRANCH  13  14
ENDBRANCH   2  13
TORSDOF 5
ENDMDL
MODEL 3
REMARK VINA RESULT:      -7.7      2.321      6.992
REMARK  Name = 
REMARK  6 active torsions:
REMARK  status: ('A' for Active; 'I' for Inactive)
REMARK    1  A    between atoms: C_1  and  C_2
REMARK    2  A    between atoms: C_2  and  C_18
REMARK    3  A    between atoms: N_3  and  N_4
REMARK    4  A    between atoms: C_5  and  C_7
REMARK    5  A    between atoms: C_7  and  N_8
REMARK    6  A    between atoms: C_9  and  C_11
REMARK                            x       y       z     vdW  Elec       q    Type
REMARK                         _______ _______ _______ _____ _____    ______ ____
ROOT
ATOM      1  N   UNL     1       7.333   4.448  17.377  0.00  0.00    +0.000 N 
ATOM      2  C   UNL     1       7.349   5.645  18.085  0.00  0.00    +0.000 C 
ATOM      3  O   UNL     1       7.520   6.762  17.601  0.00  0.00    +0.000 OA
ATOM      4  H   UNL     1       6.912   3.638  17.827  0.00  0.00    +0.000 HD
ENDROOT
BRANCH   1   7
ATOM      5  C   UNL     1       5.105   4.321  15.541  0.00  0.00    +0.000 C 
ATOM      6  C   UNL     1       6.573   4.427  15.187  0.00  0.00    +0.000 C 
ATOM      7  N   UNL     1       7.565   4.457  16.030  0.00  0.00    +0.000 NA
BRANCH   6   8
ATOM      8  C   UNL     1       6.884   4.489  13.770  0.00  0.00    +0.000 A 
ATOM      9  C   UNL     1       6.533   3.679  12.706  0.00  0.00    +0.000 A 
ATOM     10  C   UNL     1       7.152   4.218  11.552  0.00  0.00    +0.000 A 
ATOM     11  C   UNL     1       7.838   5.330  11.976  0.00  0.00    +0.000 A 
ATOM     12  O   UNL     1       7.679   5.508  13.312  0.00  0.00    +0.000 OA
ENDBRANCH   6   8
ENDBRANCH   1   7
BRANCH   2  13
ATOM     13  C   UNL     1       7.057   5.453  19.573  0.00  0.00    +0.000 C 
BRANCH  13  14
ATOM     14  N   UNL     1       5.832   4.708  19.783  0.00  0.00    +0.000 N 
ATOM     15  C   UNL     1       4.616   5.183  19.347  0.00  0.00    +0.000 C 
ATOM     16  O   UNL     1       4.520   6.267  18.776  0.00  0.00    +0.000 OA
ATOM     17  H   UNL     1       5.870   3.892  20.387  0.00  0.00    +0.000 HD
BRANCH  15  18
ATOM     18  C   UNL     1       3.412   4.342  19.599  0.00  0.00    +0.000 A 
ATOM     19  C   UNL     1       2.401   4.849  20.431  0.00  0.00    +0.000 A 
ATOM     20  C   UNL     1       1.250   4.098  20.697  0.00  0.00    +0.000 A 
ATOM     21  C   UNL     1       1.096   2.831  20.135  0.00  0.00    +0.000 A 
ATOM     22  C   UNL     1       2.090   2.317  19.302  0.00  0.00    +0.000 A 
ATOM     23  C   UNL     1       3.234   3.071  19.038  0.00  0.00    +0.000 A 
ATOM     24  F   UNL     1       4.162   2.538  18.228  0.00  0.00    +0.000 F 
ENDBRANCH  15  18
ENDBRANCH  13  14
ENDBRANCH   2  13
TORSDOF 5
ENDMDL
MODEL 4
REMARK VINA RESULT:      -7.6      1.281      1.370
REMARK  Name = 
REMARK  6 active torsions:
REMARK  status: ('A' for Active; 'I' for Inactive)
REMARK    1  A    between atoms: C_1  and  C_2
REMARK    2  A    between atoms: C_2  and  C_18
REMARK    3  A    between atoms: N_3  and  N_4
REMARK    4  A    between atoms: C_5  and  C_7
REMARK    5  A    between atoms: C_7  and  N_8
REMARK    6  A    between atoms: C_9  and  C_11
REMARK                            x       y       z     vdW  Elec       q    Type
REMARK                         _______ _______ _______ _____ _____    ______ ____
ROOT
ATOM      1  N   UNL     1       5.824   4.151  18.109  0.00  0.00    +0.000 N 
ATOM      2  C   UNL     1       6.753   5.007  18.691  0.00  0.00    +0.000 C 
ATOM      3  O   UNL     1       6.761   5.363  19.868  0.00  0.00    +0.000 OA
ATOM      4  H   UNL     1       6.074   3.715  17.224  0.00  0.00    +0.000 HD
ENDROOT
BRANCH   1   7
ATOM      5  C   UNL     1       3.332   5.610  18.196  0.00  0.00    +0.000 C 
ATOM      6  C   UNL     1       3.647   4.302  18.889  0.00  0.00    +0.000 C 
ATOM      7  N   UNL     1       4.786   3.672  18.858  0.00  0.00    +0.000 NA
BRANCH   6   8
ATOM      8  C   UNL     1       2.568   3.716  19.664  0.00  0.00    +0.000 A 
ATOM      9  C   UNL     1       2.291   3.714  21.019  0.00  0.00    +0.000 A 
ATOM     10  C   UNL     1       1.111   2.954  21.201  0.00  0.00    +0.000 A 
ATOM     11  C   UNL     1       0.729   2.542  19.947  0.00  0.00    +0.000 A 
ATOM     12  O   UNL     1       1.597   3.000  19.010  0.00  0.00    +0.000 OA
ENDBRANCH   6   8
ENDBRANCH   1   7
BRANCH   2  13
ATOM     13  C   UNL     1       7.851   5.434  17.718  0.00  0.00    +0.000 C 
BRANCH  13  14
ATOM     14  N   UNL     1       7.654   4.853  16.405  0.00  0.00    +0.000 N 
ATOM     15  C   UNL     1       6.789   5.412  15.492  0.00  0.00    +0.000 C 
ATOM     16  O   UNL     1       6.136   6.418  15.762  0.00  0.00    +0.000 OA
ATOM     17  H   UNL     1       8.063   3.940  16.223  0.00  0.00    +0.000 HD
BRANCH  15  18
ATOM     18  C   UNL     1       6.660   4.750  14.163  0.00  0.00    +0.000 A 
ATOM     19  C   UNL     1       5.573   3.889  13.944  0.00  0.00    +0.000 A 
ATOM     20  C   UNL     1       5.408   3.246  12.712  0.00  0.00    +0.000 A 
ATOM     21  C   UNL     1       6.327   3.454  11.684  0.00  0.00    +0.000 A 
ATOM     22  C   UNL     1       7.409   4.312  11.886  0.00  0.00    +0.000 A 
ATOM     23  C   UNL     1       7.567   4.953  13.115  0.00  0.00    +0.000 A 
ATOM     24  F   UNL     1       8.621   5.771  13.263  0.00  0.00    +0.000 F 
ENDBRANCH  15  18
ENDBRANCH  13  14
ENDBRANCH   2  13
TORSDOF 5
ENDMDL
MODEL 5
REMARK VINA RESULT:      -7.6      2.608      7.178
REMARK  Name = 
REMARK  6 active torsions:
REMARK  status: ('A' for Active; 'I' for Inactive)
REMARK    1  A    between atoms: C_1  and  C_2
REMARK    2  A    between atoms: C_2  and  C_18
REMARK    3  A    between atoms: N_3  and  N_4
REMARK    4  A    between atoms: C_5  and  C_7
REMARK    5  A    between atoms: C_7  and  N_8
REMARK    6  A    between atoms: C_9  and  C_11
REMARK                            x       y       z     vdW  Elec       q    Type
REMARK                         _______ _______ _______ _____ _____    ______ ____
ROOT
ATOM      1  N   UNL     1       7.005   5.798  16.892  0.00  0.00    +0.000 N 
ATOM      2  C   UNL     1       7.560   5.054  17.927  0.00  0.00    +0.000 C 
ATOM      3  O   UNL     1       8.323   4.100  17.795  0.00  0.00    +0.000 OA
ATOM      4  H   UNL     1       6.625   6.715  17.119  0.00  0.00    +0.000 HD
ENDROOT
BRANCH   1   7
ATOM      5  C   UNL     1       5.177   4.062  15.480  0.00  0.00    +0.000 C 
ATOM      6  C   UNL     1       6.442   4.691  14.935  0.00  0.00    +0.000 C 
ATOM      7  N   UNL     1       7.266   5.451  15.596  0.00  0.00    +0.000 NA
BRANCH   6   8
ATOM      8  C   UNL     1       6.751   4.398  13.546  0.00  0.00    +0.000 A 
ATOM      9  C   UNL     1       7.580   5.018  12.629  0.00  0.00    +0.000 A 
ATOM     10  C   UNL     1       7.461   4.302  11.413  0.00  0.00    +0.000 A 
ATOM     11  C   UNL     1       6.573   3.283  11.659  0.00  0.00    +0.000 A 
ATOM     12  O   UNL     1       6.142   3.327  12.945  0.00  0.00    +0.000 OA
ENDBRANCH   6   8
ENDBRANCH   1   7
BRANCH   2  13
ATOM     13  C   UNL     1       7.176   5.587  19.307  0.00  0.00    +0.000 C 
BRANCH  13  14
ATOM     14  N   UNL     1       5.939   4.998  19.780  0.00  0.00    +0.000 N 
ATOM     15  C   UNL     1       4.724   5.340  19.234  0.00  0.00    +0.000 C 
ATOM     16  O   UNL     1       4.638   6.172  18.333  0.00  0.00    +0.000 OA
ATOM     17  H   UNL     1       5.975   4.431  20.623  0.00  0.00    +0.000 HD
BRANCH  15  18
ATOM     18  C   UNL     1       3.506   4.674  19.777  0.00  0.00    +0.000 A 
ATOM     19  C   UNL     1       3.515   3.277  19.926  0.00  0.00    +0.000 A 
ATOM     20  C   UNL     1       2.397   2.606  20.433  0.00  0.00    +0.000 A 
ATOM     21  C   UNL     1       1.256   3.320  20.797  0.00  0.00    +0.000 A 
ATOM     22  C   UNL     1       1.236   4.709  20.660  0.00  0.00    +0.000 A 
ATOM     23  C   UNL     1       2.354   5.374  20.156  0.00  0.00    +0.000 A 
ATOM     24  F   UNL     1       2.290   6.710  20.045  0.00  0.00    +0.000 F 
ENDBRANCH  15  18
ENDBRANCH  13  14
ENDBRANCH   2  13
TORSDOF 5
ENDMDL
MODEL 6
REMARK VINA RESULT:      -7.5      3.441      7.562
REMARK  Name = 
REMARK  6 active torsions:
REMARK  status: ('A' for Active; 'I' for Inactive)
REMARK    1  A    between atoms: C_1  and  C_2
REMARK    2  A    between atoms: C_2  and  C_18
REMARK    3  A    between atoms: N_3  and  N_4
REMARK    4  A    between atoms: C_5  and  C_7
REMARK    5  A    between atoms: C_7  and  N_8
REMARK    6  A    between atoms: C_9  and  C_11
REMARK                            x       y       z     vdW  Elec       q    Type
REMARK                         _______ _______ _______ _____ _____    ______ ____
ROOT
ATOM      1  N   UNL     1       4.621   3.723  17.462  0.00  0.00    +0.000 N 
ATOM      2  C   UNL     1       3.278   3.399  17.630  0.00  0.00    +0.000 C 
ATOM      3  O   UNL     1       2.528   2.976  16.753  0.00  0.00    +0.000 OA
ATOM      4  H   UNL     1       5.198   3.791  18.297  0.00  0.00    +0.000 HD
ENDROOT
BRANCH   1   7
ATOM      5  C   UNL     1       5.245   6.115  15.968  0.00  0.00    +0.000 C 
ATOM      6  C   UNL     1       5.503   4.684  15.547  0.00  0.00    +0.000 C 
ATOM      7  N   UNL     1       5.191   3.618  16.224  0.00  0.00    +0.000 NA
BRANCH   6   8
ATOM      8  C   UNL     1       6.151   4.507  14.259  0.00  0.00    +0.000 A 
ATOM      9  C   UNL     1       5.883   3.668  13.193  0.00  0.00    +0.000 A 
ATOM     10  C   UNL     1       6.872   3.918  12.211  0.00  0.00    +0.000 A 
ATOM     11  C   UNL     1       7.682   4.898  12.730  0.00  0.00    +0.000 A 
ATOM     12  O   UNL     1       7.253   5.267  13.964  0.00  0.00    +0.000 OA
ENDBRANCH   6   8
ENDBRANCH   1   7
BRANCH   2  13
ATOM     13  C   UNL     1       2.810   3.560  19.075  0.00  0.00    +0.000 C 
BRANCH  13  14
ATOM     14  N   UNL     1       2.161   4.839  19.285  0.00  0.00    +0.000 N 
ATOM     15  C   UNL     1       2.887   5.989  19.493  0.00  0.00    +0.000 C 
ATOM     16  O   UNL     1       4.116   5.974  19.525  0.00  0.00    +0.000 OA
ATOM     17  H   UNL     1       1.154   4.845  19.418  0.00  0.00    +0.000 HD
BRANCH  15  18
ATOM     18  C   UNL     1       2.133   7.260  19.689  0.00  0.00    +0.000 A 
ATOM     19  C   UNL     1       1.487   7.475  20.916  0.00  0.00    +0.000 A 
ATOM     20  C   UNL     1       0.767   8.653  21.149  0.00  0.00    +0.000 A 
ATOM     21  C   UNL     1       0.685   9.630  20.157  0.00  0.00    +0.000 A 
ATOM     22  C   UNL     1       1.328   9.432  18.935  0.00  0.00    +0.000 A 
ATOM     23  C   UNL     1       2.046   8.257  18.709  0.00  0.00    +0.000 A 
ATOM     24  F   UNL     1       2.650   8.112  17.520  0.00  0.00    +0.000 F 
ENDBRANCH  15  18
ENDBRANCH  13  14
ENDBRANCH   2  13
TORSDOF 5
ENDMDL
MODEL 7
REMARK VINA RESULT:      -7.5      2.722      7.120
REMARK  Name = 
REMARK  6 active torsions:
REMARK  status: ('A' for Active; 'I' for Inactive)
REMARK    1  A    between atoms: C_1  and  C_2
REMARK    2  A    between atoms: C_2  and  C_18
REMARK    3  A    between atoms: N_3  and  N_4
REMARK    4  A    between atoms: C_5  and  C_7
REMARK    5  A    between atoms: C_7  and  N_8
REMARK    6  A    between atoms: C_9  and  C_11
REMARK                            x       y       z     vdW  Elec       q    Type
REMARK                         _______ _______ _______ _____ _____    ______ ____
ROOT
ATOM      1  N   UNL     1       7.169   4.427  17.374  0.00  0.00    +0.000 N 
ATOM      2  C   UNL     1       7.219   5.628  18.073  0.00  0.00    +0.000 C 
ATOM      3  O   UNL     1       7.444   6.734  17.584  0.00  0.00    +0.000 OA
ATOM      4  H   UNL     1       6.708   3.638  17.822  0.00  0.00    +0.000 HD
ENDROOT
BRANCH   1   7
ATOM      5  C   UNL     1       4.977   4.303  15.495  0.00  0.00    +0.000 C 
ATOM      6  C   UNL     1       6.453   4.387  15.169  0.00  0.00    +0.000 C 
ATOM      7  N   UNL     1       7.428   4.416  16.032  0.00  0.00    +0.000 NA
BRANCH   6   8
ATOM      8  C   UNL     1       6.793   4.427  13.758  0.00  0.00    +0.000 A 
ATOM      9  C   UNL     1       6.435   3.619  12.694  0.00  0.00    +0.000 A 
ATOM     10  C   UNL     1       7.094   4.127  11.548  0.00  0.00    +0.000 A 
ATOM     11  C   UNL     1       7.809   5.219  11.976  0.00  0.00    +0.000 A 
ATOM     12  O   UNL     1       7.631   5.414  13.307  0.00  0.00    +0.000 OA
ENDBRANCH   6   8
ENDBRANCH   1   7
BRANCH   2  13
ATOM     13  C   UNL     1       6.891   5.461  19.555  0.00  0.00    +0.000 C 
BRANCH  13  14
ATOM     14  N   UNL     1       5.672   4.699  19.748  0.00  0.00    +0.000 N 
ATOM     15  C   UNL     1       4.456   5.160  19.301  0.00  0.00    +0.000 C 
ATOM     16  O   UNL     1       4.352   6.246  18.733  0.00  0.00    +0.000 OA
ATOM     17  H   UNL     1       5.714   3.880  20.349  0.00  0.00    +0.000 HD
BRANCH  15  18
ATOM     18  C   UNL     1       3.260   4.303  19.534  0.00  0.00    +0.000 A 
ATOM     19  C   UNL     1       3.240   3.013  18.980  0.00  0.00    +0.000 A 
ATOM     20  C   UNL     1       2.140   2.169  19.172  0.00  0.00    +0.000 A 
ATOM     21  C   UNL     1       1.046   2.604  19.920  0.00  0.00    +0.000 A 
ATOM     22  C   UNL     1       1.055   3.882  20.481  0.00  0.00    +0.000 A 
ATOM     23  C   UNL     1       2.155   4.718  20.288  0.00  0.00    +0.000 A 
ATOM     24  F   UNL     1       2.121   5.937  20.849  0.00  0.00    +0.000 F 
ENDBRANCH  15  18
ENDBRANCH  13  14
ENDBRANCH   2  13
TORSDOF 5
ENDMDL
MODEL 8
REMARK VINA RESULT:      -7.5      1.400      1.592
REMARK  Name = 
REMARK  6 active torsions:
REMARK  status: ('A' for Active; 'I' for Inactive)
REMARK    1  A    between atoms: C_1  and  C_2
REMARK    2  A    between atoms: C_2  and  C_18
REMARK    3  A    between atoms: N_3  and  N_4
REMARK    4  A    between atoms: C_5  and  C_7
REMARK    5  A    between atoms: C_7  and  N_8
REMARK    6  A    between atoms: C_9  and  C_11
REMARK                            x       y       z     vdW  Elec       q    Type
REMARK                         _______ _______ _______ _____ _____    ______ ____
ROOT
ATOM      1  N   UNL     1       5.611   4.015  18.172  0.00  0.00    +0.000 N 
ATOM      2  C   UNL     1       6.649   4.770  18.709  0.00  0.00    +0.000 C 
ATOM      3  O   UNL     1       6.610   5.393  19.768  0.00  0.00    +0.000 OA
ATOM      4  H   UNL     1       5.845   3.333  17.454  0.00  0.00    +0.000 HD
ENDROOT
BRANCH   1   7
ATOM      5  C   UNL     1       4.940   1.701  19.766  0.00  0.00    +0.000 C 
ATOM      6  C   UNL     1       4.099   2.943  19.564  0.00  0.00    +0.000 C 
ATOM      7  N   UNL     1       4.408   3.966  18.820  0.00  0.00    +0.000 NA
BRANCH   6   8
ATOM      8  C   UNL     1       2.828   2.973  20.265  0.00  0.00    +0.000 A 
ATOM      9  C   UNL     1       2.475   2.646  21.562  0.00  0.00    +0.000 A 
ATOM     10  C   UNL     1       1.078   2.849  21.674  0.00  0.00    +0.000 A 
ATOM     11  C   UNL     1       0.659   3.294  20.444  0.00  0.00    +0.000 A 
ATOM     12  O   UNL     1       1.707   3.379  19.586  0.00  0.00    +0.000 OA
ENDBRANCH   6   8
ENDBRANCH   1   7
BRANCH   2  13
ATOM     13  C   UNL     1       7.922   4.703  17.866  0.00  0.00    +0.000 C 
BRANCH  13  14
ATOM     14  N   UNL     1       7.638   4.292  16.505  0.00  0.00    +0.000 N 
ATOM     15  C   UNL     1       7.032   5.140  15.608  0.00  0.00    +0.000 C 
ATOM     16  O   UNL     1       6.691   6.276  15.931  0.00  0.00    +0.000 OA
ATOM     17  H   UNL     1       7.769   3.312  16.268  0.00  0.00    +0.000 HD
BRANCH  15  18
ATOM     18  C   UNL     1       6.790   4.633  14.227  0.00  0.00    +0.000 A 
ATOM     19  C   UNL     1       5.678   3.806  14.000  0.00  0.00    +0.000 A 
ATOM     20  C   UNL     1       5.408   3.306  12.722  0.00  0.00    +0.000 A 
ATOM     21  C   UNL     1       6.247   3.625  11.654  0.00  0.00    +0.000 A 
ATOM     22  C   UNL     1       7.352   4.451  11.864  0.00  0.00    +0.000 A 
ATOM     23  C   UNL     1       7.615   4.949  13.141  0.00  0.00    +0.000 A 
ATOM     24  F   UNL     1       8.687   5.741  13.294  0.00  0.00    +0.000 F 
ENDBRANCH  15  18
ENDBRANCH  13  14
ENDBRANCH   2  13
TORSDOF 5
ENDMDL
MODEL 9
REMARK VINA RESULT:      -7.5      3.146      7.165
REMARK  Name = 
REMARK  6 active torsions:
REMARK  status: ('A' for Active; 'I' for Inactive)
REMARK    1  A    between atoms: C_1  and  C_2
REMARK    2  A    between atoms: C_2  and  C_18
REMARK    3  A    between atoms: N_3  and  N_4
REMARK    4  A    between atoms: C_5  and  C_7
REMARK    5  A    between atoms: C_7  and  N_8
REMARK    6  A    between atoms: C_9  and  C_11
REMARK                            x       y       z     vdW  Elec       q    Type
REMARK                         _______ _______ _______ _____ _____    ______ ____
ROOT
ATOM      1  N   UNL     1       6.870   6.233  16.549  0.00  0.00    +0.000 N 
ATOM      2  C   UNL     1       5.728   6.077  15.770  0.00  0.00    +0.000 C 
ATOM      3  O   UNL     1       5.082   6.987  15.254  0.00  0.00    +0.000 OA
ATOM      4  H   UNL     1       7.466   5.419  16.682  0.00  0.00    +0.000 HD
ENDROOT
BRANCH   1   7
ATOM      5  C   UNL     1       8.114   6.765  19.101  0.00  0.00    +0.000 C 
ATOM      6  C   UNL     1       7.916   7.742  17.963  0.00  0.00    +0.000 C 
ATOM      7  N   UNL     1       7.330   7.490  16.829  0.00  0.00    +0.000 NA
BRANCH   6   8
ATOM      8  C   UNL     1       8.426   9.085  18.180  0.00  0.00    +0.000 A 
ATOM      9  C   UNL     1       8.267  10.264  17.475  0.00  0.00    +0.000 A 
ATOM     10  C   UNL     1       9.025  11.254  18.148  0.00  0.00    +0.000 A 
ATOM     11  C   UNL     1       9.595  10.625  19.228  0.00  0.00    +0.000 A 
ATOM     12  O   UNL     1       9.237   9.317  19.262  0.00  0.00    +0.000 OA
ENDBRANCH   6   8
ENDBRANCH   1   7
BRANCH   2  13
ATOM     13  C   UNL     1       5.365   4.610  15.545  0.00  0.00    +0.000 C 
BRANCH  13  14
ATOM     14  N   UNL     1       4.231   4.213  16.355  0.00  0.00    +0.000 N 
ATOM     15  C   UNL     1       4.344   4.036  17.715  0.00  0.00    +0.000 C 
ATOM     16  O   UNL     1       5.416   4.192  18.294  0.00  0.00    +0.000 OA
ATOM     17  H   UNL     1       3.381   3.928  15.876  0.00  0.00    +0.000 HD
BRANCH  15  18
ATOM     18  C   UNL     1       3.120   3.637  18.467  0.00  0.00    +0.000 A 
ATOM     19  C   UNL     1       2.335   2.587  17.964  0.00  0.00    +0.000 A 
ATOM     20  C   UNL     1       1.177   2.176  18.634  0.00  0.00    +0.000 A 
ATOM     21  C   UNL     1       0.790   2.808  19.815  0.00  0.00    +0.000 A 
ATOM     22  C   UNL     1       1.564   3.848  20.330  0.00  0.00    +0.000 A 
ATOM     23  C   UNL     1       2.719   4.253  19.659  0.00  0.00    +0.000 A 
ATOM     24  F   UNL     1       3.433   5.256  20.192  0.00  0.00    +0.000 F 
ENDBRANCH  15  18
ENDBRANCH  13  14
ENDBRANCH   2  13
TORSDOF 5
ENDMDL
