MODEL 1
REMARK VINA RESULT:      -6.1      0.000      0.000
REMARK  Name = 
REMARK  7 active torsions:
REMARK  status: ('A' for Active; 'I' for Inactive)
REMARK    1  A    between atoms: C_1  and  O_2
REMARK    2  A    between atoms: O_2  and  C_3
REMARK    3  A    between atoms: C_5  and  C_6
REMARK    4  A    between atoms: C_23  and  O_24
REMARK    5  A    between atoms: O_24  and  C_25
REMARK    6  A    between atoms: C_26  and  O_27
REMARK    7  A    between atoms: O_27  and  C_28
REMARK                            x       y       z     vdW  Elec       q    Type
REMARK                         _______ _______ _______ _____ _____    ______ ____
ROOT
ATOM      1  C   UNL     1       0.233  14.093  20.732  0.00  0.00    +0.000 C 
ATOM      2  O   UNL     1       1.154  14.475  21.455  0.00  0.00    +0.000 OA
ATOM      3  N   UNL     1       0.285  14.104  19.300  0.00  0.00    +0.000 N 
ATOM      4  C   UNL     1       1.368  14.905  18.791  0.00  0.00    +0.000 A 
ATOM      5  C   UNL     1       1.299  16.291  19.030  0.00  0.00    +0.000 A 
ATOM      6  C   UNL     1       2.312  17.146  18.601  0.00  0.00    +0.000 A 
ATOM      7  C   UNL     1       3.398  16.631  17.901  0.00  0.00    +0.000 A 
ATOM      8  C   UNL     1       3.492  15.253  17.679  0.00  0.00    +0.000 A 
ATOM      9  C   UNL     1       2.498  14.379  18.150  0.00  0.00    +0.000 A 
ATOM     10  S   UNL     1       2.832  12.628  18.103  0.00  0.00    +0.000 S 
ATOM     11  C   UNL     1       1.240  11.972  18.532  0.00  0.00    +0.000 A 
ATOM     12  C   UNL     1       1.072  10.593  18.677  0.00  0.00    +0.000 A 
ATOM     13  C   UNL     1      -0.205  10.052  18.855  0.00  0.00    +0.000 A 
ATOM     14  C   UNL     1      -1.325  10.872  18.746  0.00  0.00    +0.000 A 
ATOM     15  C   UNL     1      -1.150  12.247  18.643  0.00  0.00    +0.000 A 
ATOM     16  C   UNL     1       0.130  12.803  18.712  0.00  0.00    +0.000 A 
ENDROOT
BRANCH   1  19
ATOM     17  C   UNL     1      -3.259  13.853  22.174  0.00  0.00    +0.000 A 
ATOM     18  C   UNL     1      -2.128  14.340  21.500  0.00  0.00    +0.000 A 
ATOM     19  C   UNL     1      -0.968  13.578  21.432  0.00  0.00    +0.000 A 
ATOM     20  C   UNL     1      -0.897  12.363  22.116  0.00  0.00    +0.000 A 
ATOM     21  C   UNL     1      -1.993  11.885  22.843  0.00  0.00    +0.000 A 
ATOM     22  C   UNL     1      -3.195  12.634  22.890  0.00  0.00    +0.000 A 
BRANCH  17  24
ATOM     23  C   UNL     1      -4.782  15.191  20.932  0.00  0.00    +0.000 C 
ATOM     24  O   UNL     1      -4.430  14.567  22.166  0.00  0.00    +0.000 OA
ENDBRANCH  17  24
BRANCH  21  25
ATOM     25  O   UNL     1      -1.703  10.707  23.485  0.00  0.00    +0.000 OA
ATOM     26  C   UNL     1      -0.580   9.951  23.068  0.00  0.00    +0.000 C 
ENDBRANCH  21  25
BRANCH  22  27
ATOM     27  O   UNL     1      -4.231  12.069  23.586  0.00  0.00    +0.000 OA
ATOM     28  C   UNL     1      -4.487  12.433  24.934  0.00  0.00    +0.000 C 
ENDBRANCH  22  27
ENDBRANCH   1  19
TORSDOF 4
ENDMDL
MODEL 2
REMARK VINA RESULT:      -5.9      0.424      2.493
REMARK  Name = 
REMARK  7 active torsions:
REMARK  status: ('A' for Active; 'I' for Inactive)
REMARK    1  A    between atoms: C_1  and  O_2
REMARK    2  A    between atoms: O_2  and  C_3
REMARK    3  A    between atoms: C_5  and  C_6
REMARK    4  A    between atoms: C_23  and  O_24
REMARK    5  A    between atoms: O_24  and  C_25
REMARK    6  A    between atoms: C_26  and  O_27
REMARK    7  A    between atoms: O_27  and  C_28
REMARK                            x       y       z     vdW  Elec       q    Type
REMARK                         _______ _______ _______ _____ _____    ______ ____
ROOT
ATOM      1  C   UNL     1       0.668  13.945  20.947  0.00  0.00    +0.000 C 
ATOM      2  O   UNL     1       1.660  14.206  21.628  0.00  0.00    +0.000 OA
ATOM      3  N   UNL     1       0.609  14.110  19.525  0.00  0.00    +0.000 N 
ATOM      4  C   UNL     1       1.689  14.916  19.017  0.00  0.00    +0.000 A 
ATOM      5  C   UNL     1       1.709  16.269  19.406  0.00  0.00    +0.000 A 
ATOM      6  C   UNL     1       2.727  17.123  18.988  0.00  0.00    +0.000 A 
ATOM      7  C   UNL     1       3.729  16.643  18.151  0.00  0.00    +0.000 A 
ATOM      8  C   UNL     1       3.736  15.295  17.777  0.00  0.00    +0.000 A 
ATOM      9  C   UNL     1       2.738  14.417  18.233  0.00  0.00    +0.000 A 
ATOM     10  S   UNL     1       2.979  12.669  17.973  0.00  0.00    +0.000 S 
ATOM     11  C   UNL     1       1.394  12.037  18.460  0.00  0.00    +0.000 A 
ATOM     12  C   UNL     1       1.168  10.659  18.471  0.00  0.00    +0.000 A 
ATOM     13  C   UNL     1      -0.116  10.155  18.695  0.00  0.00    +0.000 A 
ATOM     14  C   UNL     1      -1.199  11.028  18.766  0.00  0.00    +0.000 A 
ATOM     15  C   UNL     1      -0.963  12.398  18.795  0.00  0.00    +0.000 A 
ATOM     16  C   UNL     1       0.345  12.889  18.817  0.00  0.00    +0.000 A 
ENDROOT
BRANCH   1  19
ATOM     17  C   UNL     1      -1.579  11.616  22.912  0.00  0.00    +0.000 A 
ATOM     18  C   UNL     1      -0.466  12.126  22.225  0.00  0.00    +0.000 A 
ATOM     19  C   UNL     1      -0.500  13.406  21.685  0.00  0.00    +0.000 A 
ATOM     20  C   UNL     1      -1.680  14.150  21.744  0.00  0.00    +0.000 A 
ATOM     21  C   UNL     1      -2.819  13.638  22.373  0.00  0.00    +0.000 A 
ATOM     22  C   UNL     1      -2.787  12.350  22.962  0.00  0.00    +0.000 A 
BRANCH  17  24
ATOM     23  C   UNL     1      -0.345   9.611  23.254  0.00  0.00    +0.000 C 
ATOM     24  O   UNL     1      -1.512  10.389  23.521  0.00  0.00    +0.000 OA
ENDBRANCH  17  24
BRANCH  21  25
ATOM     25  O   UNL     1      -3.885  14.499  22.274  0.00  0.00    +0.000 OA
ATOM     26  C   UNL     1      -4.526  14.664  21.022  0.00  0.00    +0.000 C 
ENDBRANCH  21  25
BRANCH  22  27
ATOM     27  O   UNL     1      -3.933  11.947  23.596  0.00  0.00    +0.000 OA
ATOM     28  C   UNL     1      -4.313  12.514  24.841  0.00  0.00    +0.000 C 
ENDBRANCH  22  27
ENDBRANCH   1  19
TORSDOF 4
ENDMDL
MODEL 3
REMARK VINA RESULT:      -5.7      5.931      8.277
REMARK  Name = 
REMARK  7 active torsions:
REMARK  status: ('A' for Active; 'I' for Inactive)
REMARK    1  A    between atoms: C_1  and  O_2
REMARK    2  A    between atoms: O_2  and  C_3
REMARK    3  A    between atoms: C_5  and  C_6
REMARK    4  A    between atoms: C_23  and  O_24
REMARK    5  A    between atoms: O_24  and  C_25
REMARK    6  A    between atoms: C_26  and  O_27
REMARK    7  A    between atoms: O_27  and  C_28
REMARK                            x       y       z     vdW  Elec       q    Type
REMARK                         _______ _______ _______ _____ _____    ______ ____
ROOT
ATOM      1  C   UNL     1       3.566   7.059  18.083  0.00  0.00    +0.000 C 
ATOM      2  O   UNL     1       4.670   7.599  18.158  0.00  0.00    +0.000 OA
ATOM      3  N   UNL     1       3.352   5.754  17.532  0.00  0.00    +0.000 N 
ATOM      4  C   UNL     1       4.483   5.278  16.778  0.00  0.00    +0.000 A 
ATOM      5  C   UNL     1       4.798   5.979  15.597  0.00  0.00    +0.000 A 
ATOM      6  C   UNL     1       5.890   5.612  14.814  0.00  0.00    +0.000 A 
ATOM      7  C   UNL     1       6.669   4.521  15.183  0.00  0.00    +0.000 A 
ATOM      8  C   UNL     1       6.383   3.833  16.367  0.00  0.00    +0.000 A 
ATOM      9  C   UNL     1       5.312   4.225  17.187  0.00  0.00    +0.000 A 
ATOM     10  S   UNL     1       5.196   3.506  18.816  0.00  0.00    +0.000 S 
ATOM     11  C   UNL     1       3.601   4.091  19.327  0.00  0.00    +0.000 A 
ATOM     12  C   UNL     1       3.134   3.802  20.611  0.00  0.00    +0.000 A 
ATOM     13  C   UNL     1       1.820   4.117  20.971  0.00  0.00    +0.000 A 
ATOM     14  C   UNL     1       0.932   4.588  20.008  0.00  0.00    +0.000 A 
ATOM     15  C   UNL     1       1.413   4.911  18.745  0.00  0.00    +0.000 A 
ATOM     16  C   UNL     1       2.780   4.824  18.466  0.00  0.00    +0.000 A 
ENDROOT
BRANCH   1  19
ATOM     17  C   UNL     1       0.634   9.438  18.348  0.00  0.00    +0.000 A 
ATOM     18  C   UNL     1       1.704   8.698  17.821  0.00  0.00    +0.000 A 
ATOM     19  C   UNL     1       2.427   7.833  18.633  0.00  0.00    +0.000 A 
ATOM     20  C   UNL     1       2.149   7.772  19.999  0.00  0.00    +0.000 A 
ATOM     21  C   UNL     1       1.126   8.544  20.557  0.00  0.00    +0.000 A 
ATOM     22  C   UNL     1       0.354   9.402  19.735  0.00  0.00    +0.000 A 
BRANCH  17  24
ATOM     23  C   UNL     1      -1.465   9.770  17.281  0.00  0.00    +0.000 C 
ATOM     24  O   UNL     1      -0.135  10.223  17.528  0.00  0.00    +0.000 OA
ENDBRANCH  17  24
BRANCH  21  25
ATOM     25  O   UNL     1       1.050   8.382  21.919  0.00  0.00    +0.000 OA
ATOM     26  C   UNL     1       1.573   9.390  22.765  0.00  0.00    +0.000 C 
ENDBRANCH  21  25
BRANCH  22  27
ATOM     27  O   UNL     1      -0.657  10.086  20.357  0.00  0.00    +0.000 OA
ATOM     28  C   UNL     1      -0.551  11.481  20.599  0.00  0.00    +0.000 C 
ENDBRANCH  22  27
ENDBRANCH   1  19
TORSDOF 4
ENDMDL
MODEL 4
REMARK VINA RESULT:      -5.7      2.855      5.280
REMARK  Name = 
REMARK  7 active torsions:
REMARK  status: ('A' for Active; 'I' for Inactive)
REMARK    1  A    between atoms: C_1  and  O_2
REMARK    2  A    between atoms: O_2  and  C_3
REMARK    3  A    between atoms: C_5  and  C_6
REMARK    4  A    between atoms: C_23  and  O_24
REMARK    5  A    between atoms: O_24  and  C_25
REMARK    6  A    between atoms: C_26  and  O_27
REMARK    7  A    between atoms: O_27  and  C_28
REMARK                            x       y       z     vdW  Elec       q    Type
REMARK                         _______ _______ _______ _____ _____    ______ ____
ROOT
ATOM      1  C   UNL     1       0.946  12.741  20.147  0.00  0.00    +0.000 C 
ATOM      2  O   UNL     1       2.157  12.617  20.329  0.00  0.00    +0.000 OA
ATOM      3  N   UNL     1       0.065  11.649  19.862  0.00  0.00    +0.000 N 
ATOM      4  C   UNL     1       0.771  10.453  19.480  0.00  0.00    +0.000 A 
ATOM      5  C   UNL     1       1.485  10.498  18.266  0.00  0.00    +0.000 A 
ATOM      6  C   UNL     1       2.222   9.401  17.825  0.00  0.00    +0.000 A 
ATOM      7  C   UNL     1       2.234   8.231  18.576  0.00  0.00    +0.000 A 
ATOM      8  C   UNL     1       1.551   8.181  19.796  0.00  0.00    +0.000 A 
ATOM      9  C   UNL     1       0.845   9.299  20.271  0.00  0.00    +0.000 A 
ATOM     10  S   UNL     1       0.263   9.267  21.957  0.00  0.00    +0.000 S 
ATOM     11  C   UNL     1      -0.753  10.721  21.988  0.00  0.00    +0.000 A 
ATOM     12  C   UNL     1      -1.367  11.116  23.178  0.00  0.00    +0.000 A 
ATOM     13  C   UNL     1      -2.294  12.162  23.182  0.00  0.00    +0.000 A 
ATOM     14  C   UNL     1      -2.715  12.718  21.977  0.00  0.00    +0.000 A 
ATOM     15  C   UNL     1      -2.072  12.350  20.801  0.00  0.00    +0.000 A 
ATOM     16  C   UNL     1      -0.977  11.483  20.836  0.00  0.00    +0.000 A 
ENDROOT
BRANCH   1  19
ATOM     17  C   UNL     1      -0.412  16.160  19.250  0.00  0.00    +0.000 A 
ATOM     18  C   UNL     1       0.083  14.851  19.133  0.00  0.00    +0.000 A 
ATOM     19  C   UNL     1       0.412  14.119  20.267  0.00  0.00    +0.000 A 
ATOM     20  C   UNL     1       0.339  14.722  21.524  0.00  0.00    +0.000 A 
ATOM     21  C   UNL     1      -0.095  16.045  21.660  0.00  0.00    +0.000 A 
ATOM     22  C   UNL     1      -0.470  16.791  20.515  0.00  0.00    +0.000 A 
BRANCH  17  24
ATOM     23  C   UNL     1       0.135  17.737  17.557  0.00  0.00    +0.000 C 
ATOM     24  O   UNL     1      -0.819  16.848  18.136  0.00  0.00    +0.000 OA
ENDBRANCH  17  24
BRANCH  21  25
ATOM     25  O   UNL     1      -0.042  16.466  22.966  0.00  0.00    +0.000 OA
ATOM     26  C   UNL     1      -0.814  15.789  23.943  0.00  0.00    +0.000 C 
ENDBRANCH  21  25
BRANCH  22  27
ATOM     27  O   UNL     1      -0.928  18.062  20.746  0.00  0.00    +0.000 OA
ATOM     28  C   UNL     1      -2.304  18.306  20.992  0.00  0.00    +0.000 C 
ENDBRANCH  22  27
ENDBRANCH   1  19
TORSDOF 4
ENDMDL
MODEL 5
REMARK VINA RESULT:      -5.7      1.607      2.057
REMARK  Name = 
REMARK  7 active torsions:
REMARK  status: ('A' for Active; 'I' for Inactive)
REMARK    1  A    between atoms: C_1  and  O_2
REMARK    2  A    between atoms: O_2  and  C_3
REMARK    3  A    between atoms: C_5  and  C_6
REMARK    4  A    between atoms: C_23  and  O_24
REMARK    5  A    between atoms: O_24  and  C_25
REMARK    6  A    between atoms: C_26  and  O_27
REMARK    7  A    between atoms: O_27  and  C_28
REMARK                            x       y       z     vdW  Elec       q    Type
REMARK                         _______ _______ _______ _____ _____    ______ ____
ROOT
ATOM      1  C   UNL     1      -1.385  14.494  20.448  0.00  0.00    +0.000 C 
ATOM      2  O   UNL     1      -0.920  15.292  21.262  0.00  0.00    +0.000 OA
ATOM      3  N   UNL     1      -0.765  14.178  19.196  0.00  0.00    +0.000 N 
ATOM      4  C   UNL     1       0.264  15.119  18.835  0.00  0.00    +0.000 A 
ATOM      5  C   UNL     1      -0.150  16.438  18.562  0.00  0.00    +0.000 A 
ATOM      6  C   UNL     1       0.773  17.426  18.230  0.00  0.00    +0.000 A 
ATOM      7  C   UNL     1       2.124  17.107  18.138  0.00  0.00    +0.000 A 
ATOM      8  C   UNL     1       2.551  15.807  18.432  0.00  0.00    +0.000 A 
ATOM      9  C   UNL     1       1.632  14.816  18.813  0.00  0.00    +0.000 A 
ATOM     10  S   UNL     1       2.273  13.284  19.465  0.00  0.00    +0.000 S 
ATOM     11  C   UNL     1       0.794  12.307  19.540  0.00  0.00    +0.000 A 
ATOM     12  C   UNL     1       0.839  11.017  20.072  0.00  0.00    +0.000 A 
ATOM     13  C   UNL     1      -0.278  10.180  19.991  0.00  0.00    +0.000 A 
ATOM     14  C   UNL     1      -1.390  10.579  19.254  0.00  0.00    +0.000 A 
ATOM     15  C   UNL     1      -1.445  11.878  18.762  0.00  0.00    +0.000 A 
ATOM     16  C   UNL     1      -0.427  12.789  19.058  0.00  0.00    +0.000 A 
ENDROOT
BRANCH   1  19
ATOM     17  C   UNL     1      -4.997  13.360  20.467  0.00  0.00    +0.000 A 
ATOM     18  C   UNL     1      -3.800  13.983  20.082  0.00  0.00    +0.000 A 
ATOM     19  C   UNL     1      -2.649  13.827  20.845  0.00  0.00    +0.000 A 
ATOM     20  C   UNL     1      -2.707  13.124  22.049  0.00  0.00    +0.000 A 
ATOM     21  C   UNL     1      -3.903  12.543  22.482  0.00  0.00    +0.000 A 
ATOM     22  C   UNL     1      -5.077  12.662  21.696  0.00  0.00    +0.000 A 
BRANCH  17  24
ATOM     23  C   UNL     1      -6.757  14.712  19.615  0.00  0.00    +0.000 C 
ATOM     24  O   UNL     1      -6.108  13.442  19.668  0.00  0.00    +0.000 OA
ENDBRANCH  17  24
BRANCH  21  25
ATOM     25  O   UNL     1      -3.764  11.947  23.712  0.00  0.00    +0.000 OA
ATOM     26  C   UNL     1      -4.098  12.681  24.876  0.00  0.00    +0.000 C 
ENDBRANCH  21  25
BRANCH  22  27
ATOM     27  O   UNL     1      -6.191  12.023  22.174  0.00  0.00    +0.000 OA
ATOM     28  C   UNL     1      -7.184  12.735  22.896  0.00  0.00    +0.000 C 
ENDBRANCH  22  27
ENDBRANCH   1  19
TORSDOF 4
ENDMDL
MODEL 6
REMARK VINA RESULT:      -5.6      1.774      2.912
REMARK  Name = 
REMARK  7 active torsions:
REMARK  status: ('A' for Active; 'I' for Inactive)
REMARK    1  A    between atoms: C_1  and  O_2
REMARK    2  A    between atoms: O_2  and  C_3
REMARK    3  A    between atoms: C_5  and  C_6
REMARK    4  A    between atoms: C_23  and  O_24
REMARK    5  A    between atoms: O_24  and  C_25
REMARK    6  A    between atoms: C_26  and  O_27
REMARK    7  A    between atoms: O_27  and  C_28
REMARK                            x       y       z     vdW  Elec       q    Type
REMARK                         _______ _______ _______ _____ _____    ______ ____
ROOT
ATOM      1  C   UNL     1      -1.485  14.801  20.536  0.00  0.00    +0.000 C 
ATOM      2  O   UNL     1      -1.082  15.716  21.254  0.00  0.00    +0.000 OA
ATOM      3  N   UNL     1      -0.835  14.388  19.328  0.00  0.00    +0.000 N 
ATOM      4  C   UNL     1       0.131  15.349  18.863  0.00  0.00    +0.000 A 
ATOM      5  C   UNL     1      -0.368  16.597  18.442  0.00  0.00    +0.000 A 
ATOM      6  C   UNL     1       0.490  17.602  18.000  0.00  0.00    +0.000 A 
ATOM      7  C   UNL     1       1.860  17.366  17.947  0.00  0.00    +0.000 A 
ATOM      8  C   UNL     1       2.370  16.140  18.386  0.00  0.00    +0.000 A 
ATOM      9  C   UNL     1       1.516  15.138  18.877  0.00  0.00    +0.000 A 
ATOM     10  S   UNL     1       2.253  13.737  19.698  0.00  0.00    +0.000 S 
ATOM     11  C   UNL     1       0.842  12.677  19.883  0.00  0.00    +0.000 A 
ATOM     12  C   UNL     1       0.969  11.462  20.558  0.00  0.00    +0.000 A 
ATOM     13  C   UNL     1      -0.089  10.547  20.572  0.00  0.00    +0.000 A 
ATOM     14  C   UNL     1      -1.219  10.785  19.794  0.00  0.00    +0.000 A 
ATOM     15  C   UNL     1      -1.356  12.013  19.158  0.00  0.00    +0.000 A 
ATOM     16  C   UNL     1      -0.404  13.018  19.349  0.00  0.00    +0.000 A 
ENDROOT
BRANCH   1  19
ATOM     17  C   UNL     1      -3.824  12.636  22.580  0.00  0.00    +0.000 A 
ATOM     18  C   UNL     1      -2.670  13.308  22.147  0.00  0.00    +0.000 A 
ATOM     19  C   UNL     1      -2.705  14.099  21.005  0.00  0.00    +0.000 A 
ATOM     20  C   UNL     1      -3.868  14.151  20.234  0.00  0.00    +0.000 A 
ATOM     21  C   UNL     1      -5.012  13.443  20.616  0.00  0.00    +0.000 A 
ATOM     22  C   UNL     1      -5.002  12.662  21.798  0.00  0.00    +0.000 A 
BRANCH  17  24
ATOM     23  C   UNL     1      -4.176  12.646  24.932  0.00  0.00    +0.000 C 
ATOM     24  O   UNL     1      -3.811  11.927  23.754  0.00  0.00    +0.000 OA
ENDBRANCH  17  24
BRANCH  21  25
ATOM     25  O   UNL     1      -6.025  13.580  19.699  0.00  0.00    +0.000 OA
ATOM     26  C   UNL     1      -6.045  12.738  18.560  0.00  0.00    +0.000 C 
ENDBRANCH  21  25
BRANCH  22  27
ATOM     27  O   UNL     1      -6.180  12.039  22.120  0.00  0.00    +0.000 OA
ATOM     28  C   UNL     1      -7.187  12.722  22.852  0.00  0.00    +0.000 C 
ENDBRANCH  22  27
ENDBRANCH   1  19
TORSDOF 4
ENDMDL
MODEL 7
REMARK VINA RESULT:      -5.6      6.979      9.465
REMARK  Name = 
REMARK  7 active torsions:
REMARK  status: ('A' for Active; 'I' for Inactive)
REMARK    1  A    between atoms: C_1  and  O_2
REMARK    2  A    between atoms: O_2  and  C_3
REMARK    3  A    between atoms: C_5  and  C_6
REMARK    4  A    between atoms: C_23  and  O_24
REMARK    5  A    between atoms: O_24  and  C_25
REMARK    6  A    between atoms: C_26  and  O_27
REMARK    7  A    between atoms: O_27  and  C_28
REMARK                            x       y       z     vdW  Elec       q    Type
REMARK                         _______ _______ _______ _____ _____    ______ ____
ROOT
ATOM      1  C   UNL     1       8.584  13.185  21.452  0.00  0.00    +0.000 C 
ATOM      2  O   UNL     1       8.543  11.955  21.496  0.00  0.00    +0.000 OA
ATOM      3  N   UNL     1       9.249  13.926  20.422  0.00  0.00    +0.000 N 
ATOM      4  C   UNL     1      10.139  13.108  19.639  0.00  0.00    +0.000 A 
ATOM      5  C   UNL     1      11.261  12.576  20.303  0.00  0.00    +0.000 A 
ATOM      6  C   UNL     1      12.166  11.751  19.638  0.00  0.00    +0.000 A 
ATOM      7  C   UNL     1      11.978  11.467  18.289  0.00  0.00    +0.000 A 
ATOM      8  C   UNL     1      10.854  11.967  17.625  0.00  0.00    +0.000 A 
ATOM      9  C   UNL     1       9.912  12.761  18.300  0.00  0.00    +0.000 A 
ATOM     10  S   UNL     1       8.364  13.103  17.482  0.00  0.00    +0.000 S 
ATOM     11  C   UNL     1       7.665  14.309  18.580  0.00  0.00    +0.000 A 
ATOM     12  C   UNL     1       6.385  14.811  18.338  0.00  0.00    +0.000 A 
ATOM     13  C   UNL     1       5.887  15.873  19.098  0.00  0.00    +0.000 A 
ATOM     14  C   UNL     1       6.719  16.527  20.002  0.00  0.00    +0.000 A 
ATOM     15  C   UNL     1       7.977  15.999  20.268  0.00  0.00    +0.000 A 
ATOM     16  C   UNL     1       8.374  14.793  19.684  0.00  0.00    +0.000 A 
ENDROOT
BRANCH   1  19
ATOM     17  C   UNL     1       7.875  15.096  24.642  0.00  0.00    +0.000 A 
ATOM     18  C   UNL     1       8.561  14.435  23.611  0.00  0.00    +0.000 A 
ATOM     19  C   UNL     1       7.864  13.895  22.537  0.00  0.00    +0.000 A 
ATOM     20  C   UNL     1       6.469  13.930  22.529  0.00  0.00    +0.000 A 
ATOM     21  C   UNL     1       5.762  14.533  23.575  0.00  0.00    +0.000 A 
ATOM     22  C   UNL     1       6.460  15.120  24.659  0.00  0.00    +0.000 A 
BRANCH  17  24
ATOM     23  C   UNL     1       9.200  14.839  26.599  0.00  0.00    +0.000 C 
ATOM     24  O   UNL     1       8.569  15.704  25.656  0.00  0.00    +0.000 OA
ENDBRANCH  17  24
BRANCH  21  25
ATOM     25  O   UNL     1       4.404  14.412  23.407  0.00  0.00    +0.000 OA
ATOM     26  C   UNL     1       3.832  14.738  22.153  0.00  0.00    +0.000 C 
ENDBRANCH  21  25
BRANCH  22  27
ATOM     27  O   UNL     1       5.689  15.729  25.615  0.00  0.00    +0.000 OA
ATOM     28  C   UNL     1       5.287  15.026  26.780  0.00  0.00    +0.000 C 
ENDBRANCH  22  27
ENDBRANCH   1  19
TORSDOF 4
ENDMDL
MODEL 8
REMARK VINA RESULT:      -5.5      8.492     11.431
REMARK  Name = 
REMARK  7 active torsions:
REMARK  status: ('A' for Active; 'I' for Inactive)
REMARK    1  A    between atoms: C_1  and  O_2
REMARK    2  A    between atoms: O_2  and  C_3
REMARK    3  A    between atoms: C_5  and  C_6
REMARK    4  A    between atoms: C_23  and  O_24
REMARK    5  A    between atoms: O_24  and  C_25
REMARK    6  A    between atoms: C_26  and  O_27
REMARK    7  A    between atoms: O_27  and  C_28
REMARK                            x       y       z     vdW  Elec       q    Type
REMARK                         _______ _______ _______ _____ _____    ______ ____
ROOT
ATOM      1  C   UNL     1       8.580  12.828  22.792  0.00  0.00    +0.000 C 
ATOM      2  O   UNL     1       9.204  12.606  23.830  0.00  0.00    +0.000 OA
ATOM      3  N   UNL     1       7.187  13.162  22.754  0.00  0.00    +0.000 N 
ATOM      4  C   UNL     1       6.518  12.888  24.000  0.00  0.00    +0.000 A 
ATOM      5  C   UNL     1       6.422  11.536  24.383  0.00  0.00    +0.000 A 
ATOM      6  C   UNL     1       5.816  11.171  25.584  0.00  0.00    +0.000 A 
ATOM      7  C   UNL     1       5.272  12.151  26.408  0.00  0.00    +0.000 A 
ATOM      8  C   UNL     1       5.384  13.499  26.051  0.00  0.00    +0.000 A 
ATOM      9  C   UNL     1       6.035  13.878  24.865  0.00  0.00    +0.000 A 
ATOM     10  S   UNL     1       6.408  15.606  24.630  0.00  0.00    +0.000 S 
ATOM     11  C   UNL     1       6.958  15.603  22.943  0.00  0.00    +0.000 A 
ATOM     12  C   UNL     1       7.422  16.784  22.361  0.00  0.00    +0.000 A 
ATOM     13  C   UNL     1       7.706  16.834  20.993  0.00  0.00    +0.000 A 
ATOM     14  C   UNL     1       7.392  15.747  20.181  0.00  0.00    +0.000 A 
ATOM     15  C   UNL     1       6.968  14.562  20.772  0.00  0.00    +0.000 A 
ATOM     16  C   UNL     1       6.921  14.443  22.163  0.00  0.00    +0.000 A 
ENDROOT
BRANCH   1  19
ATOM     17  C   UNL     1      10.079  11.557  19.557  0.00  0.00    +0.000 A 
ATOM     18  C   UNL     1       9.324  11.622  20.739  0.00  0.00    +0.000 A 
ATOM     19  C   UNL     1       9.366  12.759  21.537  0.00  0.00    +0.000 A 
ATOM     20  C   UNL     1      10.234  13.802  21.210  0.00  0.00    +0.000 A 
ATOM     21  C   UNL     1      11.038  13.734  20.068  0.00  0.00    +0.000 A 
ATOM     22  C   UNL     1      10.979  12.597  19.224  0.00  0.00    +0.000 A 
BRANCH  17  24
ATOM     23  C   UNL     1       8.648  10.113  18.323  0.00  0.00    +0.000 C 
ATOM     24  O   UNL     1       9.969  10.472  18.725  0.00  0.00    +0.000 OA
ENDBRANCH  17  24
BRANCH  21  25
ATOM     25  O   UNL     1      11.857  14.831  19.956  0.00  0.00    +0.000 OA
ATOM     26  C   UNL     1      11.311  16.057  19.502  0.00  0.00    +0.000 C 
ENDBRANCH  21  25
BRANCH  22  27
ATOM     27  O   UNL     1      11.767  12.635  18.104  0.00  0.00    +0.000 OA
ATOM     28  C   UNL     1      11.288  13.209  16.897  0.00  0.00    +0.000 C 
ENDBRANCH  22  27
ENDBRANCH   1  19
TORSDOF 4
ENDMDL
MODEL 9
REMARK VINA RESULT:      -5.5      3.292      7.109
REMARK  Name = 
REMARK  7 active torsions:
REMARK  status: ('A' for Active; 'I' for Inactive)
REMARK    1  A    between atoms: C_1  and  O_2
REMARK    2  A    between atoms: O_2  and  C_3
REMARK    3  A    between atoms: C_5  and  C_6
REMARK    4  A    between atoms: C_23  and  O_24
REMARK    5  A    between atoms: O_24  and  C_25
REMARK    6  A    between atoms: C_26  and  O_27
REMARK    7  A    between atoms: O_27  and  C_28
REMARK                            x       y       z     vdW  Elec       q    Type
REMARK                         _______ _______ _______ _____ _____    ______ ____
ROOT
ATOM      1  C   UNL     1      -3.406  12.993  21.969  0.00  0.00    +0.000 C 
ATOM      2  O   UNL     1      -3.985  12.220  22.732  0.00  0.00    +0.000 OA
ATOM      3  N   UNL     1      -3.747  14.377  21.824  0.00  0.00    +0.000 N 
ATOM      4  C   UNL     1      -5.029  14.695  22.399  0.00  0.00    +0.000 A 
ATOM      5  C   UNL     1      -6.158  14.113  21.790  0.00  0.00    +0.000 A 
ATOM      6  C   UNL     1      -7.439  14.338  22.289  0.00  0.00    +0.000 A 
ATOM      7  C   UNL     1      -7.615  15.171  23.389  0.00  0.00    +0.000 A 
ATOM      8  C   UNL     1      -6.499  15.734  24.019  0.00  0.00    +0.000 A 
ATOM      9  C   UNL     1      -5.201  15.474  23.550  0.00  0.00    +0.000 A 
ATOM     10  S   UNL     1      -3.826  15.967  24.575  0.00  0.00    +0.000 S 
ATOM     11  C   UNL     1      -2.467  15.679  23.472  0.00  0.00    +0.000 A 
ATOM     12  C   UNL     1      -1.158  15.881  23.914  0.00  0.00    +0.000 A 
ATOM     13  C   UNL     1      -0.090  15.814  23.014  0.00  0.00    +0.000 A 
ATOM     14  C   UNL     1      -0.341  15.687  21.651  0.00  0.00    +0.000 A 
ATOM     15  C   UNL     1      -1.641  15.446  21.222  0.00  0.00    +0.000 A 
ATOM     16  C   UNL     1      -2.670  15.270  22.151  0.00  0.00    +0.000 A 
ENDROOT
BRANCH   1  19
ATOM     17  C   UNL     1      -0.075  11.415  21.104  0.00  0.00    +0.000 A 
ATOM     18  C   UNL     1      -1.144  11.949  21.842  0.00  0.00    +0.000 A 
ATOM     19  C   UNL     1      -2.280  12.417  21.194  0.00  0.00    +0.000 A 
ATOM     20  C   UNL     1      -2.321  12.443  19.799  0.00  0.00    +0.000 A 
ATOM     21  C   UNL     1      -1.244  11.970  19.043  0.00  0.00    +0.000 A 
ATOM     22  C   UNL     1      -0.093  11.454  19.689  0.00  0.00    +0.000 A 
BRANCH  17  24
ATOM     23  C   UNL     1       0.884   9.512  22.158  0.00  0.00    +0.000 C 
ATOM     24  O   UNL     1       1.007  10.873  21.747  0.00  0.00    +0.000 OA
ENDBRANCH  17  24
BRANCH  21  25
ATOM     25  O   UNL     1      -1.457  12.133  17.696  0.00  0.00    +0.000 OA
ATOM     26  C   UNL     1      -2.367  11.274  17.031  0.00  0.00    +0.000 C 
ENDBRANCH  21  25
BRANCH  22  27
ATOM     27  O   UNL     1       0.894  10.970  18.871  0.00  0.00    +0.000 OA
ATOM     28  C   UNL     1       0.859   9.630  18.404  0.00  0.00    +0.000 C 
ENDBRANCH  22  27
ENDBRANCH   1  19
TORSDOF 4
ENDMDL
