MODEL 1
REMARK VINA RESULT:      -8.7      0.000      0.000
REMARK  Name = 
REMARK  7 active torsions:
REMARK  status: ('A' for Active; 'I' for Inactive)
REMARK    1  A    between atoms: C_1  and  C_2
REMARK    2  A    between atoms: C_7  and  S_8
REMARK    3  A    between atoms: S_8  and  N_11
REMARK    4  A    between atoms: C_12  and  C_14
REMARK    5  A    between atoms: C_14  and  C_15
REMARK    6  A    between atoms: C_19  and  C_21
REMARK    7  A    between atoms: C_21  and  C_22
REMARK                            x       y       z     vdW  Elec       q    Type
REMARK                         _______ _______ _______ _____ _____    ______ ____
ROOT
ATOM      1  C   UNL     1       3.695   3.663  18.347  0.00  0.00    +0.000 C 
ATOM      2  C   UNL     1       2.897   3.411  17.061  0.00  0.00    +0.000 C 
ATOM      3  C   UNL     1       3.755   2.380  19.244  0.00  0.00    +0.000 C 
ATOM      4  C   UNL     1       2.522   2.885  19.978  0.00  0.00    +0.000 C 
ATOM      5  N   UNL     1       2.833   4.204  19.420  0.00  0.00    +0.000 N 
ATOM      6  C   UNL     1       2.175   5.366  19.789  0.00  0.00    +0.000 C 
ATOM      7  O   UNL     1       1.283   5.257  20.652  0.00  0.00    +0.000 OA
ENDROOT
BRANCH   1   9
ATOM      8  N   UNL     1       5.413   4.566  16.777  0.00  0.00    +0.000 N 
ATOM      9  C   UNL     1       5.161   4.257  18.130  0.00  0.00    +0.000 C 
ATOM     10  O   UNL     1       6.044   4.363  18.970  0.00  0.00    +0.000 OA
ATOM     11  H   UNL     1       4.702   4.484  16.053  0.00  0.00    +0.000 HD
BRANCH   8  12
ATOM     12  S   UNL     1       6.884   5.019  16.143  0.00  0.00    +0.000 S 
ATOM     13  O   UNL     1       7.906   4.160  16.686  0.00  0.00    +0.000 OA
ATOM     14  O   UNL     1       6.964   6.455  16.328  0.00  0.00    +0.000 OA
BRANCH  12  21
ATOM     15  C   UNL     1       4.451   2.918  11.958  0.00  0.00    +0.000 C 
ATOM     16  C   UNL     1       5.607   3.697  12.519  0.00  0.00    +0.000 A 
ATOM     17  C   UNL     1       6.647   4.126  11.684  0.00  0.00    +0.000 A 
ATOM     18  C   UNL     1       7.719   4.849  12.207  0.00  0.00    +0.000 A 
ATOM     19  C   UNL     1       7.759   5.145  13.568  0.00  0.00    +0.000 A 
ATOM     20  F   UNL     1       8.794   5.854  14.038  0.00  0.00    +0.000 F 
ATOM     21  C   UNL     1       6.738   4.723  14.409  0.00  0.00    +0.000 A 
ATOM     22  C   UNL     1       5.659   3.995  13.892  0.00  0.00    +0.000 A 
ENDBRANCH  12  21
ENDBRANCH   8  12
ENDBRANCH   1   9
BRANCH   6  23
ATOM     23  C   UNL     1       2.519   6.784  19.174  0.00  0.00    +0.000 C 
ATOM     24  C   UNL     1       3.992   7.061  18.735  0.00  0.00    +0.000 C 
ATOM     25  C   UNL     1       3.503   7.619  17.398  0.00  0.00    +0.000 C 
ATOM     26  C   UNL     1       2.184   6.874  17.614  0.00  0.00    +0.000 C 
BRANCH  23  27
ATOM     27  C   UNL     1       1.717   7.912  20.045  0.00  0.00    +0.000 A 
ATOM     28  C   UNL     1       1.792   7.980  21.449  0.00  0.00    +0.000 A 
ATOM     29  C   UNL     1       1.105   8.944  22.196  0.00  0.00    +0.000 A 
ATOM     30  C   UNL     1       0.320   9.886  21.548  0.00  0.00    +0.000 A 
ATOM     31 CL   UNL     1      -0.532  11.064  22.466  0.00  0.00    +0.000 Cl
ATOM     32  C   UNL     1       0.224   9.874  20.162  0.00  0.00    +0.000 A 
ATOM     33  C   UNL     1       0.916   8.902  19.427  0.00  0.00    +0.000 A 
ENDBRANCH  23  27
ENDBRANCH   6  23
TORSDOF 5
ENDMDL
MODEL 2
REMARK VINA RESULT:      -8.2      0.982      1.498
REMARK  Name = 
REMARK  7 active torsions:
REMARK  status: ('A' for Active; 'I' for Inactive)
REMARK    1  A    between atoms: C_1  and  C_2
REMARK    2  A    between atoms: C_7  and  S_8
REMARK    3  A    between atoms: S_8  and  N_11
REMARK    4  A    between atoms: C_12  and  C_14
REMARK    5  A    between atoms: C_14  and  C_15
REMARK    6  A    between atoms: C_19  and  C_21
REMARK    7  A    between atoms: C_21  and  C_22
REMARK                            x       y       z     vdW  Elec       q    Type
REMARK                         _______ _______ _______ _____ _____    ______ ____
ROOT
ATOM      1  C   UNL     1       3.794   3.733  18.726  0.00  0.00    +0.000 C 
ATOM      2  C   UNL     1       3.083   3.372  17.415  0.00  0.00    +0.000 C 
ATOM      3  C   UNL     1       3.834   2.515  19.710  0.00  0.00    +0.000 C 
ATOM      4  C   UNL     1       2.546   3.029  20.334  0.00  0.00    +0.000 C 
ATOM      5  N   UNL     1       2.855   4.317  19.708  0.00  0.00    +0.000 N 
ATOM      6  C   UNL     1       2.144   5.480  19.958  0.00  0.00    +0.000 C 
ATOM      7  O   UNL     1       1.204   5.400  20.772  0.00  0.00    +0.000 OA
ENDROOT
BRANCH   1   9
ATOM      8  N   UNL     1       5.549   4.656  17.210  0.00  0.00    +0.000 N 
ATOM      9  C   UNL     1       5.255   4.356  18.556  0.00  0.00    +0.000 C 
ATOM     10  O   UNL     1       6.103   4.492  19.427  0.00  0.00    +0.000 OA
ATOM     11  H   UNL     1       4.867   4.551  16.460  0.00  0.00    +0.000 HD
BRANCH   8  12
ATOM     12  S   UNL     1       7.032   5.134  16.624  0.00  0.00    +0.000 S 
ATOM     13  O   UNL     1       8.058   4.352  17.268  0.00  0.00    +0.000 OA
ATOM     14  O   UNL     1       7.046   6.581  16.728  0.00  0.00    +0.000 OA
BRANCH  12  21
ATOM     15  C   UNL     1       8.145   6.158  11.569  0.00  0.00    +0.000 C 
ATOM     16  C   UNL     1       7.487   5.273  12.589  0.00  0.00    +0.000 A 
ATOM     17  C   UNL     1       6.742   4.156  12.186  0.00  0.00    +0.000 A 
ATOM     18  C   UNL     1       6.131   3.336  13.135  0.00  0.00    +0.000 A 
ATOM     19  C   UNL     1       6.259   3.629  14.491  0.00  0.00    +0.000 A 
ATOM     20  F   UNL     1       5.674   2.814  15.379  0.00  0.00    +0.000 F 
ATOM     21  C   UNL     1       6.990   4.733  14.906  0.00  0.00    +0.000 A 
ATOM     22  C   UNL     1       7.605   5.564  13.959  0.00  0.00    +0.000 A 
ENDBRANCH  12  21
ENDBRANCH   8  12
ENDBRANCH   1   9
BRANCH   6  23
ATOM     23  C   UNL     1       2.487   6.864  19.269  0.00  0.00    +0.000 C 
ATOM     24  C   UNL     1       3.955   7.112  18.799  0.00  0.00    +0.000 C 
ATOM     25  C   UNL     1       3.453   7.606  17.442  0.00  0.00    +0.000 C 
ATOM     26  C   UNL     1       2.133   6.879  17.711  0.00  0.00    +0.000 C 
BRANCH  23  27
ATOM     27  C   UNL     1       1.700   8.038  20.093  0.00  0.00    +0.000 A 
ATOM     28  C   UNL     1       1.640   8.067  21.499  0.00  0.00    +0.000 A 
ATOM     29  C   UNL     1       0.966   9.070  22.205  0.00  0.00    +0.000 A 
ATOM     30  C   UNL     1       0.331  10.091  21.514  0.00  0.00    +0.000 A 
ATOM     31 CL   UNL     1      -0.505  11.318  22.381  0.00  0.00    +0.000 Cl
ATOM     32  C   UNL     1       0.374  10.119  20.126  0.00  0.00    +0.000 A 
ATOM     33  C   UNL     1       1.051   9.108  19.431  0.00  0.00    +0.000 A 
ENDBRANCH  23  27
ENDBRANCH   6  23
TORSDOF 5
ENDMDL
MODEL 3
REMARK VINA RESULT:      -7.8      7.864     11.742
REMARK  Name = 
REMARK  7 active torsions:
REMARK  status: ('A' for Active; 'I' for Inactive)
REMARK    1  A    between atoms: C_1  and  C_2
REMARK    2  A    between atoms: C_7  and  S_8
REMARK    3  A    between atoms: S_8  and  N_11
REMARK    4  A    between atoms: C_12  and  C_14
REMARK    5  A    between atoms: C_14  and  C_15
REMARK    6  A    between atoms: C_19  and  C_21
REMARK    7  A    between atoms: C_21  and  C_22
REMARK                            x       y       z     vdW  Elec       q    Type
REMARK                         _______ _______ _______ _____ _____    ______ ____
ROOT
ATOM      1  C   UNL     1       1.100  13.809  19.509  0.00  0.00    +0.000 C 
ATOM      2  C   UNL     1      -0.025  14.261  18.568  0.00  0.00    +0.000 C 
ATOM      3  C   UNL     1       2.468  14.465  19.123  0.00  0.00    +0.000 C 
ATOM      4  C   UNL     1       2.768  13.243  18.269  0.00  0.00    +0.000 C 
ATOM      5  N   UNL     1       1.727  12.555  19.037  0.00  0.00    +0.000 N 
ATOM      6  C   UNL     1       1.476  11.196  18.941  0.00  0.00    +0.000 C 
ATOM      7  O   UNL     1       2.197  10.546  18.160  0.00  0.00    +0.000 OA
ENDROOT
BRANCH   1   9
ATOM      8  N   UNL     1      -0.573  14.143  21.331  0.00  0.00    +0.000 N 
ATOM      9  C   UNL     1       0.806  14.014  21.065  0.00  0.00    +0.000 C 
ATOM     10  O   UNL     1       1.630  14.152  21.958  0.00  0.00    +0.000 OA
ATOM     11  H   UNL     1      -1.285  14.038  20.610  0.00  0.00    +0.000 HD
BRANCH   8  12
ATOM     12  S   UNL     1      -1.244  14.558  22.797  0.00  0.00    +0.000 S 
ATOM     13  O   UNL     1      -0.951  15.944  23.064  0.00  0.00    +0.000 OA
ATOM     14  O   UNL     1      -0.817  13.531  23.728  0.00  0.00    +0.000 OA
BRANCH  12  21
ATOM     15  C   UNL     1      -5.946  12.622  24.207  0.00  0.00    +0.000 C 
ATOM     16  C   UNL     1      -5.118  13.413  23.234  0.00  0.00    +0.000 A 
ATOM     17  C   UNL     1      -5.696  13.937  22.070  0.00  0.00    +0.000 A 
ATOM     18  C   UNL     1      -4.925  14.670  21.168  0.00  0.00    +0.000 A 
ATOM     19  C   UNL     1      -3.572  14.882  21.423  0.00  0.00    +0.000 A 
ATOM     20  F   UNL     1      -2.861  15.604  20.545  0.00  0.00    +0.000 F 
ATOM     21  C   UNL     1      -2.984  14.366  22.569  0.00  0.00    +0.000 A 
ATOM     22  C   UNL     1      -3.750  13.626  23.479  0.00  0.00    +0.000 A 
ENDBRANCH  12  21
ENDBRANCH   8  12
ENDBRANCH   1   9
BRANCH   6  23
ATOM     23  C   UNL     1       0.344  10.467  19.774  0.00  0.00    +0.000 C 
ATOM     24  C   UNL     1       0.618   9.016  20.282  0.00  0.00    +0.000 C 
ATOM     25  C   UNL     1       0.125   9.396  21.678  0.00  0.00    +0.000 C 
ATOM     26  C   UNL     1       0.370  10.864  21.322  0.00  0.00    +0.000 C 
BRANCH  23  27
ATOM     27  C   UNL     1      -1.091  10.812  19.071  0.00  0.00    +0.000 A 
ATOM     28  C   UNL     1      -2.055  11.639  19.680  0.00  0.00    +0.000 A 
ATOM     29  C   UNL     1      -3.284  11.933  19.079  0.00  0.00    +0.000 A 
ATOM     30  C   UNL     1      -3.585  11.409  17.831  0.00  0.00    +0.000 A 
ATOM     31 CL   UNL     1      -5.099  11.763  17.098  0.00  0.00    +0.000 Cl
ATOM     32  C   UNL     1      -2.663  10.600  17.179  0.00  0.00    +0.000 A 
ATOM     33  C   UNL     1      -1.436  10.311  17.792  0.00  0.00    +0.000 A 
ENDBRANCH  23  27
ENDBRANCH   6  23
TORSDOF 5
ENDMDL
MODEL 4
REMARK VINA RESULT:      -7.8      7.840     11.862
REMARK  Name = 
REMARK  7 active torsions:
REMARK  status: ('A' for Active; 'I' for Inactive)
REMARK    1  A    between atoms: C_1  and  C_2
REMARK    2  A    between atoms: C_7  and  S_8
REMARK    3  A    between atoms: S_8  and  N_11
REMARK    4  A    between atoms: C_12  and  C_14
REMARK    5  A    between atoms: C_14  and  C_15
REMARK    6  A    between atoms: C_19  and  C_21
REMARK    7  A    between atoms: C_21  and  C_22
REMARK                            x       y       z     vdW  Elec       q    Type
REMARK                         _______ _______ _______ _____ _____    ______ ____
ROOT
ATOM      1  C   UNL     1       1.001  13.859  19.510  0.00  0.00    +0.000 C 
ATOM      2  C   UNL     1      -0.141  14.281  18.575  0.00  0.00    +0.000 C 
ATOM      3  C   UNL     1       2.348  14.556  19.120  0.00  0.00    +0.000 C 
ATOM      4  C   UNL     1       2.679  13.344  18.263  0.00  0.00    +0.000 C 
ATOM      5  N   UNL     1       1.662  12.625  19.034  0.00  0.00    +0.000 N 
ATOM      6  C   UNL     1       1.450  11.260  18.936  0.00  0.00    +0.000 C 
ATOM      7  O   UNL     1       2.187  10.632  18.151  0.00  0.00    +0.000 OA
ENDROOT
BRANCH   1   9
ATOM      8  N   UNL     1      -0.666  14.251  21.327  0.00  0.00    +0.000 N 
ATOM      9  C   UNL     1       0.707  14.053  21.068  0.00  0.00    +0.000 C 
ATOM     10  O   UNL     1       1.531  14.131  21.968  0.00  0.00    +0.000 OA
ATOM     11  H   UNL     1      -1.377  14.197  20.601  0.00  0.00    +0.000 HD
BRANCH   8  12
ATOM     12  S   UNL     1      -1.323  14.677  22.796  0.00  0.00    +0.000 S 
ATOM     13  O   UNL     1      -1.130  16.091  22.998  0.00  0.00    +0.000 OA
ATOM     14  O   UNL     1      -0.792  13.725  23.753  0.00  0.00    +0.000 OA
BRANCH  12  21
ATOM     15  C   UNL     1      -6.354  16.221  22.399  0.00  0.00    +0.000 C 
ATOM     16  C   UNL     1      -5.353  15.105  22.498  0.00  0.00    +0.000 A 
ATOM     17  C   UNL     1      -5.780  13.771  22.557  0.00  0.00    +0.000 A 
ATOM     18  C   UNL     1      -4.849  12.736  22.650  0.00  0.00    +0.000 A 
ATOM     19  C   UNL     1      -3.487  13.028  22.685  0.00  0.00    +0.000 A 
ATOM     20  F   UNL     1      -2.617  12.011  22.759  0.00  0.00    +0.000 F 
ATOM     21  C   UNL     1      -3.049  14.344  22.632  0.00  0.00    +0.000 A 
ATOM     22  C   UNL     1      -3.977  15.390  22.541  0.00  0.00    +0.000 A 
ENDBRANCH  12  21
ENDBRANCH   8  12
ENDBRANCH   1   9
BRANCH   6  23
ATOM     23  C   UNL     1       0.343  10.497  19.772  0.00  0.00    +0.000 C 
ATOM     24  C   UNL     1       0.671   9.063  20.298  0.00  0.00    +0.000 C 
ATOM     25  C   UNL     1       0.156   9.440  21.688  0.00  0.00    +0.000 C 
ATOM     26  C   UNL     1       0.345  10.912  21.315  0.00  0.00    +0.000 C 
BRANCH  23  27
ATOM     27  C   UNL     1      -1.101  10.776  19.058  0.00  0.00    +0.000 A 
ATOM     28  C   UNL     1      -2.065  11.642  19.609  0.00  0.00    +0.000 A 
ATOM     29  C   UNL     1      -3.302  11.881  18.999  0.00  0.00    +0.000 A 
ATOM     30  C   UNL     1      -3.609  11.259  17.798  0.00  0.00    +0.000 A 
ATOM     31 CL   UNL     1      -5.132  11.545  17.054  0.00  0.00    +0.000 Cl
ATOM     32  C   UNL     1      -2.687  10.407  17.203  0.00  0.00    +0.000 A 
ATOM     33  C   UNL     1      -1.453  10.175  17.825  0.00  0.00    +0.000 A 
ENDBRANCH  23  27
ENDBRANCH   6  23
TORSDOF 5
ENDMDL
MODEL 5
REMARK VINA RESULT:      -7.7      8.729     12.541
REMARK  Name = 
REMARK  7 active torsions:
REMARK  status: ('A' for Active; 'I' for Inactive)
REMARK    1  A    between atoms: C_1  and  C_2
REMARK    2  A    between atoms: C_7  and  S_8
REMARK    3  A    between atoms: S_8  and  N_11
REMARK    4  A    between atoms: C_12  and  C_14
REMARK    5  A    between atoms: C_14  and  C_15
REMARK    6  A    between atoms: C_19  and  C_21
REMARK    7  A    between atoms: C_21  and  C_22
REMARK                            x       y       z     vdW  Elec       q    Type
REMARK                         _______ _______ _______ _____ _____    ______ ____
ROOT
ATOM      1  C   UNL     1      -0.626  14.212  21.403  0.00  0.00    +0.000 C 
ATOM      2  C   UNL     1      -1.492  14.558  20.185  0.00  0.00    +0.000 C 
ATOM      3  C   UNL     1       0.379  15.366  21.737  0.00  0.00    +0.000 C 
ATOM      4  C   UNL     1       1.413  14.662  20.873  0.00  0.00    +0.000 C 
ATOM      5  N   UNL     1       0.586  13.461  21.009  0.00  0.00    +0.000 N 
ATOM      6  C   UNL     1       0.979  12.206  20.571  0.00  0.00    +0.000 C 
ATOM      7  O   UNL     1       2.108  12.122  20.049  0.00  0.00    +0.000 OA
ENDROOT
BRANCH   1   9
ATOM      8  N   UNL     1      -2.782  13.481  22.425  0.00  0.00    +0.000 N 
ATOM      9  C   UNL     1      -1.435  13.785  22.712  0.00  0.00    +0.000 C 
ATOM     10  O   UNL     1      -1.028  13.794  23.865  0.00  0.00    +0.000 OA
ATOM     11  H   UNL     1      -3.155  13.469  21.478  0.00  0.00    +0.000 HD
BRANCH   8  12
ATOM     12  S   UNL     1      -3.971  13.187  23.553  0.00  0.00    +0.000 S 
ATOM     13  O   UNL     1      -4.122  14.356  24.382  0.00  0.00    +0.000 OA
ATOM     14  O   UNL     1      -3.635  11.908  24.150  0.00  0.00    +0.000 OA
BRANCH  12  21
ATOM     15  C   UNL     1      -6.574  12.892  18.972  0.00  0.00    +0.000 C 
ATOM     16  C   UNL     1      -6.604  12.871  20.474  0.00  0.00    +0.000 A 
ATOM     17  C   UNL     1      -7.821  12.758  21.160  0.00  0.00    +0.000 A 
ATOM     18  C   UNL     1      -7.847  12.739  22.554  0.00  0.00    +0.000 A 
ATOM     19  C   UNL     1      -6.656  12.835  23.271  0.00  0.00    +0.000 A 
ATOM     20  F   UNL     1      -6.712  12.799  24.610  0.00  0.00    +0.000 F 
ATOM     21  C   UNL     1      -5.443  12.952  22.607  0.00  0.00    +0.000 A 
ATOM     22  C   UNL     1      -5.408  12.974  21.207  0.00  0.00    +0.000 A 
ENDBRANCH  12  21
ENDBRANCH   8  12
ENDBRANCH   1   9
BRANCH   6  23
ATOM     23  C   UNL     1       0.072  10.917  20.720  0.00  0.00    +0.000 C 
ATOM     24  C   UNL     1       0.754   9.577  21.142  0.00  0.00    +0.000 C 
ATOM     25  C   UNL     1      -0.329   9.340  22.195  0.00  0.00    +0.000 C 
ATOM     26  C   UNL     1      -0.649  10.836  22.144  0.00  0.00    +0.000 C 
BRANCH  23  27
ATOM     27  C   UNL     1      -0.999  10.917  19.484  0.00  0.00    +0.000 A 
ATOM     28  C   UNL     1      -2.227  11.603  19.544  0.00  0.00    +0.000 A 
ATOM     29  C   UNL     1      -3.144  11.602  18.487  0.00  0.00    +0.000 A 
ATOM     30  C   UNL     1      -2.850  10.913  17.320  0.00  0.00    +0.000 A 
ATOM     31 CL   UNL     1      -3.981  10.904  16.025  0.00  0.00    +0.000 Cl
ATOM     32  C   UNL     1      -1.645  10.232  17.202  0.00  0.00    +0.000 A 
ATOM     33  C   UNL     1      -0.736  10.239  18.268  0.00  0.00    +0.000 A 
ENDBRANCH  23  27
ENDBRANCH   6  23
TORSDOF 5
ENDMDL
MODEL 6
REMARK VINA RESULT:      -7.7      8.153     12.128
REMARK  Name = 
REMARK  7 active torsions:
REMARK  status: ('A' for Active; 'I' for Inactive)
REMARK    1  A    between atoms: C_1  and  C_2
REMARK    2  A    between atoms: C_7  and  S_8
REMARK    3  A    between atoms: S_8  and  N_11
REMARK    4  A    between atoms: C_12  and  C_14
REMARK    5  A    between atoms: C_14  and  C_15
REMARK    6  A    between atoms: C_19  and  C_21
REMARK    7  A    between atoms: C_21  and  C_22
REMARK                            x       y       z     vdW  Elec       q    Type
REMARK                         _______ _______ _______ _____ _____    ______ ____
ROOT
ATOM      1  C   UNL     1       1.009  14.105  19.616  0.00  0.00    +0.000 C 
ATOM      2  C   UNL     1      -0.179  14.546  18.750  0.00  0.00    +0.000 C 
ATOM      3  C   UNL     1       2.327  14.837  19.195  0.00  0.00    +0.000 C 
ATOM      4  C   UNL     1       2.636  13.666  18.275  0.00  0.00    +0.000 C 
ATOM      5  N   UNL     1       1.664  12.901  19.060  0.00  0.00    +0.000 N 
ATOM      6  C   UNL     1       1.466  11.538  18.915  0.00  0.00    +0.000 C 
ATOM      7  O   UNL     1       2.175  10.953  18.073  0.00  0.00    +0.000 OA
ENDROOT
BRANCH   1   9
ATOM      8  N   UNL     1      -0.559  14.525  21.512  0.00  0.00    +0.000 N 
ATOM      9  C   UNL     1       0.782  14.230  21.192  0.00  0.00    +0.000 C 
ATOM     10  O   UNL     1       1.639  14.188  22.064  0.00  0.00    +0.000 OA
ATOM     11  H   UNL     1      -1.296  14.572  20.811  0.00  0.00    +0.000 HD
BRANCH   8  12
ATOM     12  S   UNL     1      -1.131  14.916  23.026  0.00  0.00    +0.000 S 
ATOM     13  O   UNL     1      -0.645  16.226  23.380  0.00  0.00    +0.000 OA
ATOM     14  O   UNL     1      -0.827  13.774  23.866  0.00  0.00    +0.000 OA
BRANCH  12  21
ATOM     15  C   UNL     1      -5.518  14.940  20.093  0.00  0.00    +0.000 C 
ATOM     16  C   UNL     1      -4.873  15.032  21.447  0.00  0.00    +0.000 A 
ATOM     17  C   UNL     1      -5.650  15.263  22.590  0.00  0.00    +0.000 A 
ATOM     18  C   UNL     1      -5.050  15.349  23.846  0.00  0.00    +0.000 A 
ATOM     19  C   UNL     1      -3.670  15.204  23.967  0.00  0.00    +0.000 A 
ATOM     20  F   UNL     1      -3.124  15.275  25.189  0.00  0.00    +0.000 F 
ATOM     21  C   UNL     1      -2.886  14.978  22.844  0.00  0.00    +0.000 A 
ATOM     22  C   UNL     1      -3.480  14.894  21.578  0.00  0.00    +0.000 A 
ENDBRANCH  12  21
ENDBRANCH   8  12
ENDBRANCH   1   9
BRANCH   6  23
ATOM     23  C   UNL     1       0.408  10.725  19.768  0.00  0.00    +0.000 C 
ATOM     24  C   UNL     1       0.786   9.284  20.236  0.00  0.00    +0.000 C 
ATOM     25  C   UNL     1       0.316   9.606  21.655  0.00  0.00    +0.000 C 
ATOM     26  C   UNL     1       0.459  11.092  21.322  0.00  0.00    +0.000 C 
BRANCH  23  27
ATOM     27  C   UNL     1      -1.067  10.994  19.117  0.00  0.00    +0.000 A 
ATOM     28  C   UNL     1      -1.467  10.438  17.886  0.00  0.00    +0.000 A 
ATOM     29  C   UNL     1      -2.728  10.670  17.327  0.00  0.00    +0.000 A 
ATOM     30  C   UNL     1      -3.643  11.468  17.998  0.00  0.00    +0.000 A 
ATOM     31 CL   UNL     1      -5.190  11.760  17.307  0.00  0.00    +0.000 Cl
ATOM     32  C   UNL     1      -3.306  12.028  19.224  0.00  0.00    +0.000 A 
ATOM     33  C   UNL     1      -2.039  11.790  19.772  0.00  0.00    +0.000 A 
ENDBRANCH  23  27
ENDBRANCH   6  23
TORSDOF 5
ENDMDL
MODEL 7
REMARK VINA RESULT:      -7.3      8.789     12.969
REMARK  Name = 
REMARK  7 active torsions:
REMARK  status: ('A' for Active; 'I' for Inactive)
REMARK    1  A    between atoms: C_1  and  C_2
REMARK    2  A    between atoms: C_7  and  S_8
REMARK    3  A    between atoms: S_8  and  N_11
REMARK    4  A    between atoms: C_12  and  C_14
REMARK    5  A    between atoms: C_14  and  C_15
REMARK    6  A    between atoms: C_19  and  C_21
REMARK    7  A    between atoms: C_21  and  C_22
REMARK                            x       y       z     vdW  Elec       q    Type
REMARK                         _______ _______ _______ _____ _____    ______ ____
ROOT
ATOM      1  C   UNL     1      -1.656  12.546  22.092  0.00  0.00    +0.000 C 
ATOM      2  C   UNL     1      -0.485  13.524  22.253  0.00  0.00    +0.000 C 
ATOM      3  C   UNL     1      -1.974  11.807  23.435  0.00  0.00    +0.000 C 
ATOM      4  C   UNL     1      -1.049  10.685  22.990  0.00  0.00    +0.000 C 
ATOM      5  N   UNL     1      -1.192  11.219  21.633  0.00  0.00    +0.000 N 
ATOM      6  C   UNL     1      -0.708  10.579  20.504  0.00  0.00    +0.000 C 
ATOM      7  O   UNL     1      -0.135   9.486  20.679  0.00  0.00    +0.000 OA
ENDROOT
BRANCH   1   9
ATOM      8  N   UNL     1      -4.122  12.382  21.741  0.00  0.00    +0.000 N 
ATOM      9  C   UNL     1      -2.988  13.178  21.477  0.00  0.00    +0.000 C 
ATOM     10  O   UNL     1      -3.072  14.172  20.770  0.00  0.00    +0.000 OA
ATOM     11  H   UNL     1      -4.086  11.547  22.322  0.00  0.00    +0.000 HD
BRANCH   8  12
ATOM     12  S   UNL     1      -5.641  12.616  21.101  0.00  0.00    +0.000 S 
ATOM     13  O   UNL     1      -6.489  11.525  21.510  0.00  0.00    +0.000 OA
ATOM     14  O   UNL     1      -5.433  12.890  19.692  0.00  0.00    +0.000 OA
BRANCH  12  21
ATOM     15  C   UNL     1      -7.231  17.641  20.840  0.00  0.00    +0.000 C 
ATOM     16  C   UNL     1      -6.900  16.437  21.675  0.00  0.00    +0.000 A 
ATOM     17  C   UNL     1      -6.954  16.505  23.074  0.00  0.00    +0.000 A 
ATOM     18  C   UNL     1      -6.646  15.386  23.847  0.00  0.00    +0.000 A 
ATOM     19  C   UNL     1      -6.281  14.192  23.227  0.00  0.00    +0.000 A 
ATOM     20  F   UNL     1      -6.006  13.130  23.997  0.00  0.00    +0.000 F 
ATOM     21  C   UNL     1      -6.219  14.111  21.843  0.00  0.00    +0.000 A 
ATOM     22  C   UNL     1      -6.524  15.230  21.059  0.00  0.00    +0.000 A 
ENDBRANCH  12  21
ENDBRANCH   8  12
ENDBRANCH   1   9
BRANCH   6  23
ATOM     23  C   UNL     1      -0.865  11.171  19.043  0.00  0.00    +0.000 C 
ATOM     24  C   UNL     1      -0.932  10.173  17.844  0.00  0.00    +0.000 C 
ATOM     25  C   UNL     1      -2.150  10.906  17.283  0.00  0.00    +0.000 C 
ATOM     26  C   UNL     1      -2.385  11.499  18.674  0.00  0.00    +0.000 C 
BRANCH  23  27
ATOM     27  C   UNL     1       0.096  12.490  18.935  0.00  0.00    +0.000 A 
ATOM     28  C   UNL     1      -0.413  13.782  18.700  0.00  0.00    +0.000 A 
ATOM     29  C   UNL     1       0.409  14.910  18.606  0.00  0.00    +0.000 A 
ATOM     30  C   UNL     1       1.782  14.778  18.756  0.00  0.00    +0.000 A 
ATOM     31 CL   UNL     1       2.792  16.164  18.631  0.00  0.00    +0.000 Cl
ATOM     32  C   UNL     1       2.334  13.528  19.006  0.00  0.00    +0.000 A 
ATOM     33  C   UNL     1       1.501  12.405  19.096  0.00  0.00    +0.000 A 
ENDBRANCH  23  27
ENDBRANCH   6  23
TORSDOF 5
ENDMDL
MODEL 8
REMARK VINA RESULT:      -7.2      5.744      9.092
REMARK  Name = 
REMARK  7 active torsions:
REMARK  status: ('A' for Active; 'I' for Inactive)
REMARK    1  A    between atoms: C_1  and  C_2
REMARK    2  A    between atoms: C_7  and  S_8
REMARK    3  A    between atoms: S_8  and  N_11
REMARK    4  A    between atoms: C_12  and  C_14
REMARK    5  A    between atoms: C_14  and  C_15
REMARK    6  A    between atoms: C_19  and  C_21
REMARK    7  A    between atoms: C_21  and  C_22
REMARK                            x       y       z     vdW  Elec       q    Type
REMARK                         _______ _______ _______ _____ _____    ______ ____
ROOT
ATOM      1  C   UNL     1      -0.913  12.182  19.460  0.00  0.00    +0.000 C 
ATOM      2  C   UNL     1      -0.385  13.556  19.025  0.00  0.00    +0.000 C 
ATOM      3  C   UNL     1      -1.139  11.239  18.231  0.00  0.00    +0.000 C 
ATOM      4  C   UNL     1      -2.583  11.714  18.184  0.00  0.00    +0.000 C 
ATOM      5  N   UNL     1      -2.388  12.176  19.560  0.00  0.00    +0.000 N 
ATOM      6  C   UNL     1      -3.415  12.648  20.362  0.00  0.00    +0.000 C 
ATOM      7  O   UNL     1      -4.557  12.658  19.864  0.00  0.00    +0.000 OA
ENDROOT
BRANCH   1   9
ATOM      8  N   UNL     1      -0.142  10.039  20.482  0.00  0.00    +0.000 N 
ATOM      9  C   UNL     1      -0.038  11.442  20.573  0.00  0.00    +0.000 C 
ATOM     10  O   UNL     1       0.588  11.965  21.485  0.00  0.00    +0.000 OA
ATOM     11  H   UNL     1      -0.659   9.572  19.739  0.00  0.00    +0.000 HD
BRANCH   8  12
ATOM     12  S   UNL     1       0.467   8.948  21.582  0.00  0.00    +0.000 S 
ATOM     13  O   UNL     1      -0.632   8.344  22.293  0.00  0.00    +0.000 OA
ATOM     14  O   UNL     1       1.501   9.661  22.308  0.00  0.00    +0.000 OA
BRANCH  12  21
ATOM     15  C   UNL     1       2.175   4.023  20.758  0.00  0.00    +0.000 C 
ATOM     16  C   UNL     1       2.077   5.448  20.290  0.00  0.00    +0.000 A 
ATOM     17  C   UNL     1       2.707   5.852  19.105  0.00  0.00    +0.000 A 
ATOM     18  C   UNL     1       2.615   7.175  18.673  0.00  0.00    +0.000 A 
ATOM     19  C   UNL     1       1.896   8.102  19.424  0.00  0.00    +0.000 A 
ATOM     20  F   UNL     1       1.813   9.362  18.975  0.00  0.00    +0.000 F 
ATOM     21  C   UNL     1       1.270   7.718  20.602  0.00  0.00    +0.000 A 
ATOM     22  C   UNL     1       1.359   6.392  21.045  0.00  0.00    +0.000 A 
ENDBRANCH  12  21
ENDBRANCH   8  12
ENDBRANCH   1   9
BRANCH   6  23
ATOM     23  C   UNL     1      -3.188  13.149  21.847  0.00  0.00    +0.000 C 
ATOM     24  C   UNL     1      -4.387  13.071  22.844  0.00  0.00    +0.000 C 
ATOM     25  C   UNL     1      -3.488  12.425  23.898  0.00  0.00    +0.000 C 
ATOM     26  C   UNL     1      -2.524  12.032  22.776  0.00  0.00    +0.000 C 
BRANCH  23  27
ATOM     27  C   UNL     1      -2.289  14.513  21.780  0.00  0.00    +0.000 A 
ATOM     28  C   UNL     1      -2.655  15.625  20.997  0.00  0.00    +0.000 A 
ATOM     29  C   UNL     1      -1.885  16.792  20.938  0.00  0.00    +0.000 A 
ATOM     30  C   UNL     1      -0.715  16.885  21.678  0.00  0.00    +0.000 A 
ATOM     31 CL   UNL     1       0.236  18.315  21.598  0.00  0.00    +0.000 Cl
ATOM     32  C   UNL     1      -0.317  15.822  22.480  0.00  0.00    +0.000 A 
ATOM     33  C   UNL     1      -1.096  14.658  22.529  0.00  0.00    +0.000 A 
ENDBRANCH  23  27
ENDBRANCH   6  23
TORSDOF 5
ENDMDL
MODEL 9
REMARK VINA RESULT:      -7.2      9.579     12.384
REMARK  Name = 
REMARK  7 active torsions:
REMARK  status: ('A' for Active; 'I' for Inactive)
REMARK    1  A    between atoms: C_1  and  C_2
REMARK    2  A    between atoms: C_7  and  S_8
REMARK    3  A    between atoms: S_8  and  N_11
REMARK    4  A    between atoms: C_12  and  C_14
REMARK    5  A    between atoms: C_14  and  C_15
REMARK    6  A    between atoms: C_19  and  C_21
REMARK    7  A    between atoms: C_21  and  C_22
REMARK                            x       y       z     vdW  Elec       q    Type
REMARK                         _______ _______ _______ _____ _____    ______ ____
ROOT
ATOM      1  C   UNL     1      -3.061  15.000  23.290  0.00  0.00    +0.000 C 
ATOM      2  C   UNL     1      -3.527  16.329  22.681  0.00  0.00    +0.000 C 
ATOM      3  C   UNL     1      -3.049  15.059  24.854  0.00  0.00    +0.000 C 
ATOM      4  C   UNL     1      -1.588  15.475  24.787  0.00  0.00    +0.000 C 
ATOM      5  N   UNL     1      -1.589  14.952  23.419  0.00  0.00    +0.000 N 
ATOM      6  C   UNL     1      -0.444  14.819  22.650  0.00  0.00    +0.000 C 
ATOM      7  O   UNL     1       0.631  15.159  23.179  0.00  0.00    +0.000 OA
ENDROOT
BRANCH   1   9
ATOM      8  N   UNL     1      -4.965  14.050  21.984  0.00  0.00    +0.000 N 
ATOM      9  C   UNL     1      -3.858  13.709  22.789  0.00  0.00    +0.000 C 
ATOM     10  O   UNL     1      -3.649  12.547  23.107  0.00  0.00    +0.000 OA
ATOM     11  H   UNL     1      -5.169  15.007  21.705  0.00  0.00    +0.000 HD
BRANCH   8  12
ATOM     12  S   UNL     1      -6.133  12.993  21.445  0.00  0.00    +0.000 S 
ATOM     13  O   UNL     1      -7.283  13.751  21.021  0.00  0.00    +0.000 OA
ATOM     14  O   UNL     1      -6.263  11.990  22.485  0.00  0.00    +0.000 OA
BRANCH  12  21
ATOM     15  C   UNL     1      -2.053  11.944  18.266  0.00  0.00    +0.000 C 
ATOM     16  C   UNL     1      -3.514  11.785  18.583  0.00  0.00    +0.000 A 
ATOM     17  C   UNL     1      -4.356  11.077  17.715  0.00  0.00    +0.000 A 
ATOM     18  C   UNL     1      -5.711  10.931  18.011  0.00  0.00    +0.000 A 
ATOM     19  C   UNL     1      -6.232  11.492  19.175  0.00  0.00    +0.000 A 
ATOM     20  F   UNL     1      -7.535  11.322  19.439  0.00  0.00    +0.000 F 
ATOM     21  C   UNL     1      -5.411  12.200  20.042  0.00  0.00    +0.000 A 
ATOM     22  C   UNL     1      -4.050  12.354  19.752  0.00  0.00    +0.000 A 
ENDBRANCH  12  21
ENDBRANCH   8  12
ENDBRANCH   1   9
BRANCH   6  23
ATOM     23  C   UNL     1      -0.461  14.256  21.169  0.00  0.00    +0.000 C 
ATOM     24  C   UNL     1      -1.557  14.784  20.190  0.00  0.00    +0.000 C 
ATOM     25  C   UNL     1      -0.499  15.020  19.112  0.00  0.00    +0.000 C 
ATOM     26  C   UNL     1       0.565  15.018  20.211  0.00  0.00    +0.000 C 
BRANCH  23  27
ATOM     27  C   UNL     1      -0.160  12.650  21.244  0.00  0.00    +0.000 A 
ATOM     28  C   UNL     1       0.695  11.995  20.337  0.00  0.00    +0.000 A 
ATOM     29  C   UNL     1       0.951  10.621  20.400  0.00  0.00    +0.000 A 
ATOM     30  C   UNL     1       0.358   9.854  21.392  0.00  0.00    +0.000 A 
ATOM     31 CL   UNL     1       0.666   8.163  21.462  0.00  0.00    +0.000 Cl
ATOM     32  C   UNL     1      -0.482  10.453  22.321  0.00  0.00    +0.000 A 
ATOM     33  C   UNL     1      -0.732  11.829  22.247  0.00  0.00    +0.000 A 
ENDBRANCH  23  27
ENDBRANCH   6  23
TORSDOF 5
ENDMDL
