MODEL 1
REMARK VINA RESULT:      -6.9      0.000      0.000
REMARK  Name = 
REMARK  7 active torsions:
REMARK  status: ('A' for Active; 'I' for Inactive)
REMARK    1  A    between atoms: C_1  and  C_2
REMARK    2  A    between atoms: C_2  and  C_3
REMARK    3  A    between atoms: C_10  and  O_11
REMARK    4  A    between atoms: O_11  and  C_12
REMARK    5  A    between atoms: C_12  and  C_13
REMARK    6  A    between atoms: C_13  and  C_14
REMARK    7  A    between atoms: C_14  and  N_15
REMARK                            x       y       z     vdW  Elec       q    Type
REMARK                         _______ _______ _______ _____ _____    ______ ____
ROOT
ATOM      1  C   UNL     1       5.848   4.894  16.907  0.00  0.00    +0.000 A 
ATOM      2  N   UNL     1       5.512   4.105  17.960  0.00  0.00    +0.000 NA
ATOM      3  N   UNL     1       4.562   4.451  18.826  0.00  0.00    +0.000 N 
ATOM      4  O   UNL     1       4.287   3.628  19.835  0.00  0.00    +0.000 OA
ATOM      5  C   UNL     1       3.892   5.630  18.683  0.00  0.00    +0.000 A 
ATOM      6  C   UNL     1       2.896   6.020  19.592  0.00  0.00    +0.000 A 
ATOM      7  C   UNL     1       2.231   7.231  19.431  0.00  0.00    +0.000 A 
ATOM      8  C   UNL     1       2.542   8.080  18.351  0.00  0.00    +0.000 A 
ATOM      9  C   UNL     1       3.532   7.691  17.438  0.00  0.00    +0.000 A 
ATOM     10  C   UNL     1       4.216   6.469  17.594  0.00  0.00    +0.000 A 
ATOM     11  N   UNL     1       5.194   6.081  16.719  0.00  0.00    +0.000 N 
ATOM     12  O   UNL     1       5.519   6.865  15.690  0.00  0.00    +0.000 OA
ENDROOT
BRANCH   1  14
ATOM     13  C   UNL     1       6.409   3.961  14.650  0.00  0.00    +0.000 C 
ATOM     14  C   UNL     1       6.957   4.438  15.992  0.00  0.00    +0.000 C 
ENDBRANCH   1  14
BRANCH   8  15
ATOM     15  O   UNL     1       1.915   9.268  18.162  0.00  0.00    +0.000 OA
BRANCH  15  16
ATOM     16  C   UNL     1       0.620   9.425  17.703  0.00  0.00    +0.000 C 
BRANCH  16  17
ATOM     17  C   UNL     1      -0.144  10.390  18.607  0.00  0.00    +0.000 C 
BRANCH  17  18
ATOM     18  C   UNL     1      -0.345   9.813  20.019  0.00  0.00    +0.000 C 
BRANCH  18  19
ATOM     19  N   UNL     1       0.620  10.373  20.995  0.00  0.00    +0.000 NA
ATOM     20  C   UNL     1       0.870   9.528  22.185  0.00  0.00    +0.000 C 
ATOM     21  C   UNL     1      -0.317   9.559  23.164  0.00  0.00    +0.000 C 
ATOM     22  O   UNL     1      -0.601  10.886  23.566  0.00  0.00    +0.000 OA
ATOM     23  C   UNL     1      -0.952  11.660  22.435  0.00  0.00    +0.000 C 
ATOM     24  C   UNL     1       0.223  11.726  21.441  0.00  0.00    +0.000 C 
ENDBRANCH  18  19
ENDBRANCH  17  18
ENDBRANCH  16  17
ENDBRANCH  15  16
ENDBRANCH   8  15
TORSDOF 6
ENDMDL
MODEL 2
REMARK VINA RESULT:      -6.9      1.970      2.890
REMARK  Name = 
REMARK  7 active torsions:
REMARK  status: ('A' for Active; 'I' for Inactive)
REMARK    1  A    between atoms: C_1  and  C_2
REMARK    2  A    between atoms: C_2  and  C_3
REMARK    3  A    between atoms: C_10  and  O_11
REMARK    4  A    between atoms: O_11  and  C_12
REMARK    5  A    between atoms: C_12  and  C_13
REMARK    6  A    between atoms: C_13  and  C_14
REMARK    7  A    between atoms: C_14  and  N_15
REMARK                            x       y       z     vdW  Elec       q    Type
REMARK                         _______ _______ _______ _____ _____    ______ ____
ROOT
ATOM      1  C   UNL     1       4.893   4.676  16.819  0.00  0.00    +0.000 A 
ATOM      2  N   UNL     1       4.519   3.391  17.048  0.00  0.00    +0.000 NA
ATOM      3  N   UNL     1       3.617   3.073  17.973  0.00  0.00    +0.000 N 
ATOM      4  O   UNL     1       3.300   1.791  18.142  0.00  0.00    +0.000 OA
ATOM      5  C   UNL     1       3.037   4.043  18.736  0.00  0.00    +0.000 A 
ATOM      6  C   UNL     1       2.093   3.728  19.726  0.00  0.00    +0.000 A 
ATOM      7  C   UNL     1       1.520   4.733  20.498  0.00  0.00    +0.000 A 
ATOM      8  C   UNL     1       1.874   6.081  20.294  0.00  0.00    +0.000 A 
ATOM      9  C   UNL     1       2.811   6.400  19.302  0.00  0.00    +0.000 A 
ATOM     10  C   UNL     1       3.403   5.389  18.517  0.00  0.00    +0.000 A 
ATOM     11  N   UNL     1       4.330   5.682  17.554  0.00  0.00    +0.000 N 
ATOM     12  O   UNL     1       4.693   6.949  17.341  0.00  0.00    +0.000 OA
ENDROOT
BRANCH   1  14
ATOM     13  C   UNL     1       5.561   4.326  14.430  0.00  0.00    +0.000 C 
ATOM     14  C   UNL     1       5.945   4.943  15.771  0.00  0.00    +0.000 C 
ENDBRANCH   1  14
BRANCH   8  15
ATOM     15  O   UNL     1       1.336   7.089  21.027  0.00  0.00    +0.000 OA
BRANCH  15  16
ATOM     16  C   UNL     1       1.324   8.423  20.665  0.00  0.00    +0.000 C 
BRANCH  16  17
ATOM     17  C   UNL     1       0.336   9.195  21.536  0.00  0.00    +0.000 C 
BRANCH  17  18
ATOM     18  C   UNL     1      -0.290  10.379  20.780  0.00  0.00    +0.000 C 
BRANCH  18  19
ATOM     19  N   UNL     1       0.173  10.452  19.373  0.00  0.00    +0.000 NA
ATOM     20  C   UNL     1       0.977  11.650  19.040  0.00  0.00    +0.000 C 
ATOM     21  C   UNL     1       0.102  12.912  18.939  0.00  0.00    +0.000 C 
ATOM     22  O   UNL     1      -0.924  12.737  17.980  0.00  0.00    +0.000 OA
ATOM     23  C   UNL     1      -1.757  11.661  18.367  0.00  0.00    +0.000 C 
ATOM     24  C   UNL     1      -0.953  10.348  18.421  0.00  0.00    +0.000 C 
ENDBRANCH  18  19
ENDBRANCH  17  18
ENDBRANCH  16  17
ENDBRANCH  15  16
ENDBRANCH   8  15
TORSDOF 6
ENDMDL
MODEL 3
REMARK VINA RESULT:      -6.9      1.950      2.301
REMARK  Name = 
REMARK  7 active torsions:
REMARK  status: ('A' for Active; 'I' for Inactive)
REMARK    1  A    between atoms: C_1  and  C_2
REMARK    2  A    between atoms: C_2  and  C_3
REMARK    3  A    between atoms: C_10  and  O_11
REMARK    4  A    between atoms: O_11  and  C_12
REMARK    5  A    between atoms: C_12  and  C_13
REMARK    6  A    between atoms: C_13  and  C_14
REMARK    7  A    between atoms: C_14  and  N_15
REMARK                            x       y       z     vdW  Elec       q    Type
REMARK                         _______ _______ _______ _____ _____    ______ ____
ROOT
ATOM      1  C   UNL     1       5.932   4.984  16.455  0.00  0.00    +0.000 A 
ATOM      2  N   UNL     1       5.924   4.076  17.465  0.00  0.00    +0.000 NA
ATOM      3  N   UNL     1       5.115   4.196  18.514  0.00  0.00    +0.000 N 
ATOM      4  O   UNL     1       5.164   3.267  19.466  0.00  0.00    +0.000 OA
ATOM      5  C   UNL     1       4.260   5.253  18.612  0.00  0.00    +0.000 A 
ATOM      6  C   UNL     1       3.408   5.405  19.717  0.00  0.00    +0.000 A 
ATOM      7  C   UNL     1       2.550   6.497  19.801  0.00  0.00    +0.000 A 
ATOM      8  C   UNL     1       2.520   7.461  18.775  0.00  0.00    +0.000 A 
ATOM      9  C   UNL     1       3.365   7.310  17.667  0.00  0.00    +0.000 A 
ATOM     10  C   UNL     1       4.242   6.212  17.575  0.00  0.00    +0.000 A 
ATOM     11  N   UNL     1       5.084   6.056  16.507  0.00  0.00    +0.000 N 
ATOM     12  O   UNL     1       5.085   6.957  15.522  0.00  0.00    +0.000 OA
ENDROOT
BRANCH   1  14
ATOM     13  C   UNL     1       6.261   4.016  14.167  0.00  0.00    +0.000 C 
ATOM     14  C   UNL     1       6.903   4.787  15.317  0.00  0.00    +0.000 C 
ENDBRANCH   1  14
BRANCH   8  15
ATOM     15  O   UNL     1       1.696   8.539  18.821  0.00  0.00    +0.000 OA
BRANCH  15  16
ATOM     16  C   UNL     1       1.692   9.583  17.914  0.00  0.00    +0.000 C 
BRANCH  16  17
ATOM     17  C   UNL     1       1.225  10.868  18.593  0.00  0.00    +0.000 C 
BRANCH  17  18
ATOM     18  C   UNL     1      -0.262  10.802  18.982  0.00  0.00    +0.000 C 
BRANCH  18  19
ATOM     19  N   UNL     1      -1.059  11.869  18.331  0.00  0.00    +0.000 NA
ATOM     20  C   UNL     1      -0.481  13.229  18.426  0.00  0.00    +0.000 C 
ATOM     21  C   UNL     1      -0.636  13.815  19.841  0.00  0.00    +0.000 C 
ATOM     22  O   UNL     1      -1.997  13.841  20.228  0.00  0.00    +0.000 OA
ATOM     23  C   UNL     1      -2.511  12.523  20.245  0.00  0.00    +0.000 C 
ATOM     24  C   UNL     1      -2.447  11.900  18.838  0.00  0.00    +0.000 C 
ENDBRANCH  18  19
ENDBRANCH  17  18
ENDBRANCH  16  17
ENDBRANCH  15  16
ENDBRANCH   8  15
TORSDOF 6
ENDMDL
MODEL 4
REMARK VINA RESULT:      -6.9      2.023      2.881
REMARK  Name = 
REMARK  7 active torsions:
REMARK  status: ('A' for Active; 'I' for Inactive)
REMARK    1  A    between atoms: C_1  and  C_2
REMARK    2  A    between atoms: C_2  and  C_3
REMARK    3  A    between atoms: C_10  and  O_11
REMARK    4  A    between atoms: O_11  and  C_12
REMARK    5  A    between atoms: C_12  and  C_13
REMARK    6  A    between atoms: C_13  and  C_14
REMARK    7  A    between atoms: C_14  and  N_15
REMARK                            x       y       z     vdW  Elec       q    Type
REMARK                         _______ _______ _______ _____ _____    ______ ____
ROOT
ATOM      1  C   UNL     1       5.575   4.645  15.971  0.00  0.00    +0.000 A 
ATOM      2  N   UNL     1       5.233   3.544  16.688  0.00  0.00    +0.000 NA
ATOM      3  N   UNL     1       4.340   3.594  17.673  0.00  0.00    +0.000 N 
ATOM      4  O   UNL     1       4.056   2.474  18.334  0.00  0.00    +0.000 OA
ATOM      5  C   UNL     1       3.737   4.772  18.002  0.00  0.00    +0.000 A 
ATOM      6  C   UNL     1       2.803   4.848  19.047  0.00  0.00    +0.000 A 
ATOM      7  C   UNL     1       2.206   6.063  19.370  0.00  0.00    +0.000 A 
ATOM      8  C   UNL     1       2.526   7.230  18.650  0.00  0.00    +0.000 A 
ATOM      9  C   UNL     1       3.454   7.157  17.603  0.00  0.00    +0.000 A 
ATOM     10  C   UNL     1       4.069   5.933  17.270  0.00  0.00    +0.000 A 
ATOM     11  N   UNL     1       4.988   5.846  16.259  0.00  0.00    +0.000 N 
ATOM     12  O   UNL     1       5.319   6.935  15.563  0.00  0.00    +0.000 OA
ENDROOT
BRANCH   1  14
ATOM     13  C   UNL     1       6.017   3.939  13.607  0.00  0.00    +0.000 C 
ATOM     14  C   UNL     1       6.619   4.504  14.890  0.00  0.00    +0.000 C 
ENDBRANCH   1  14
BRANCH   8  15
ATOM     15  O   UNL     1       1.964   8.432  18.936  0.00  0.00    +0.000 OA
BRANCH  15  16
ATOM     16  C   UNL     1       1.490   8.820  20.176  0.00  0.00    +0.000 C 
BRANCH  16  17
ATOM     17  C   UNL     1       0.725  10.136  20.058  0.00  0.00    +0.000 C 
BRANCH  17  18
ATOM     18  C   UNL     1      -0.689   9.926  19.489  0.00  0.00    +0.000 C 
BRANCH  18  19
ATOM     19  N   UNL     1      -0.906  10.687  18.235  0.00  0.00    +0.000 NA
ATOM     20  C   UNL     1      -1.577  11.996  18.404  0.00  0.00    +0.000 C 
ATOM     21  C   UNL     1      -3.078  11.832  18.702  0.00  0.00    +0.000 C 
ATOM     22  O   UNL     1      -3.715  11.093  17.677  0.00  0.00    +0.000 OA
ATOM     23  C   UNL     1      -3.144   9.800  17.599  0.00  0.00    +0.000 C 
ATOM     24  C   UNL     1      -1.651   9.891  17.236  0.00  0.00    +0.000 C 
ENDBRANCH  18  19
ENDBRANCH  17  18
ENDBRANCH  16  17
ENDBRANCH  15  16
ENDBRANCH   8  15
TORSDOF 6
ENDMDL
MODEL 5
REMARK VINA RESULT:      -6.8      2.013      2.825
REMARK  Name = 
REMARK  7 active torsions:
REMARK  status: ('A' for Active; 'I' for Inactive)
REMARK    1  A    between atoms: C_1  and  C_2
REMARK    2  A    between atoms: C_2  and  C_3
REMARK    3  A    between atoms: C_10  and  O_11
REMARK    4  A    between atoms: O_11  and  C_12
REMARK    5  A    between atoms: C_12  and  C_13
REMARK    6  A    between atoms: C_13  and  C_14
REMARK    7  A    between atoms: C_14  and  N_15
REMARK                            x       y       z     vdW  Elec       q    Type
REMARK                         _______ _______ _______ _____ _____    ______ ____
ROOT
ATOM      1  C   UNL     1       4.706   4.850  16.682  0.00  0.00    +0.000 A 
ATOM      2  N   UNL     1       4.534   3.539  16.992  0.00  0.00    +0.000 NA
ATOM      3  N   UNL     1       3.756   3.149  17.999  0.00  0.00    +0.000 N 
ATOM      4  O   UNL     1       3.637   1.846  18.245  0.00  0.00    +0.000 OA
ATOM      5  C   UNL     1       3.104   4.068  18.766  0.00  0.00    +0.000 A 
ATOM      6  C   UNL     1       2.290   3.678  19.841  0.00  0.00    +0.000 A 
ATOM      7  C   UNL     1       1.640   4.635  20.615  0.00  0.00    +0.000 A 
ATOM      8  C   UNL     1       1.784   6.005  20.327  0.00  0.00    +0.000 A 
ATOM      9  C   UNL     1       2.592   6.398  19.251  0.00  0.00    +0.000 A 
ATOM     10  C   UNL     1       3.260   5.439  18.464  0.00  0.00    +0.000 A 
ATOM     11  N   UNL     1       4.062   5.806  17.418  0.00  0.00    +0.000 N 
ATOM     12  O   UNL     1       4.227   7.097  17.124  0.00  0.00    +0.000 OA
ENDROOT
BRANCH   1  14
ATOM     13  C   UNL     1       5.975   3.977  14.705  0.00  0.00    +0.000 C 
ATOM     14  C   UNL     1       5.629   5.204  15.542  0.00  0.00    +0.000 C 
ENDBRANCH   1  14
BRANCH   8  15
ATOM     15  O   UNL     1       1.166   6.966  21.060  0.00  0.00    +0.000 OA
BRANCH  15  16
ATOM     16  C   UNL     1       1.509   8.306  21.075  0.00  0.00    +0.000 C 
BRANCH  16  17
ATOM     17  C   UNL     1       0.346   9.140  21.606  0.00  0.00    +0.000 C 
BRANCH  17  18
ATOM     18  C   UNL     1      -0.408   9.858  20.473  0.00  0.00    +0.000 C 
BRANCH  18  19
ATOM     19  N   UNL     1      -0.548  11.312  20.728  0.00  0.00    +0.000 NA
ATOM     20  C   UNL     1      -1.528  12.008  19.863  0.00  0.00    +0.000 C 
ATOM     21  C   UNL     1      -0.993  12.192  18.431  0.00  0.00    +0.000 C 
ATOM     22  O   UNL     1       0.232  12.901  18.441  0.00  0.00    +0.000 OA
ATOM     23  C   UNL     1       1.197  12.172  19.175  0.00  0.00    +0.000 C 
ATOM     24  C   UNL     1       0.752  12.010  20.640  0.00  0.00    +0.000 C 
ENDBRANCH  18  19
ENDBRANCH  17  18
ENDBRANCH  16  17
ENDBRANCH  15  16
ENDBRANCH   8  15
TORSDOF 6
ENDMDL
MODEL 6
REMARK VINA RESULT:      -6.8      2.024      2.489
REMARK  Name = 
REMARK  7 active torsions:
REMARK  status: ('A' for Active; 'I' for Inactive)
REMARK    1  A    between atoms: C_1  and  C_2
REMARK    2  A    between atoms: C_2  and  C_3
REMARK    3  A    between atoms: C_10  and  O_11
REMARK    4  A    between atoms: O_11  and  C_12
REMARK    5  A    between atoms: C_12  and  C_13
REMARK    6  A    between atoms: C_13  and  C_14
REMARK    7  A    between atoms: C_14  and  N_15
REMARK                            x       y       z     vdW  Elec       q    Type
REMARK                         _______ _______ _______ _____ _____    ______ ____
ROOT
ATOM      1  C   UNL     1       5.937   5.016  16.373  0.00  0.00    +0.000 A 
ATOM      2  N   UNL     1       5.938   4.143  17.413  0.00  0.00    +0.000 NA
ATOM      3  N   UNL     1       5.132   4.293  18.460  0.00  0.00    +0.000 N 
ATOM      4  O   UNL     1       5.190   3.398  19.443  0.00  0.00    +0.000 OA
ATOM      5  C   UNL     1       4.272   5.349  18.526  0.00  0.00    +0.000 A 
ATOM      6  C   UNL     1       3.423   5.533  19.629  0.00  0.00    +0.000 A 
ATOM      7  C   UNL     1       2.559   6.622  19.678  0.00  0.00    +0.000 A 
ATOM      8  C   UNL     1       2.519   7.551  18.621  0.00  0.00    +0.000 A 
ATOM      9  C   UNL     1       3.361   7.368  17.516  0.00  0.00    +0.000 A 
ATOM     10  C   UNL     1       4.245   6.271  17.457  0.00  0.00    +0.000 A 
ATOM     11  N   UNL     1       5.083   6.085  16.392  0.00  0.00    +0.000 N 
ATOM     12  O   UNL     1       5.076   6.951  15.377  0.00  0.00    +0.000 OA
ENDROOT
BRANCH   1  14
ATOM     13  C   UNL     1       6.266   3.967  14.121  0.00  0.00    +0.000 C 
ATOM     14  C   UNL     1       6.905   4.786  15.239  0.00  0.00    +0.000 C 
ENDBRANCH   1  14
BRANCH   8  15
ATOM     15  O   UNL     1       1.690   8.626  18.634  0.00  0.00    +0.000 OA
BRANCH  15  16
ATOM     16  C   UNL     1       1.214   9.256  19.768  0.00  0.00    +0.000 C 
BRANCH  16  17
ATOM     17  C   UNL     1      -0.095   9.979  19.458  0.00  0.00    +0.000 C 
BRANCH  17  18
ATOM     18  C   UNL     1      -0.015  11.478  19.797  0.00  0.00    +0.000 C 
BRANCH  18  19
ATOM     19  N   UNL     1       0.578  12.271  18.694  0.00  0.00    +0.000 NA
ATOM     20  C   UNL     1       1.937  12.796  18.959  0.00  0.00    +0.000 C 
ATOM     21  C   UNL     1       1.908  13.976  19.947  0.00  0.00    +0.000 C 
ATOM     22  O   UNL     1       1.076  15.014  19.466  0.00  0.00    +0.000 OA
ATOM     23  C   UNL     1      -0.248  14.533  19.325  0.00  0.00    +0.000 C 
ATOM     24  C   UNL     1      -0.301  13.391  18.294  0.00  0.00    +0.000 C 
ENDBRANCH  18  19
ENDBRANCH  17  18
ENDBRANCH  16  17
ENDBRANCH  15  16
ENDBRANCH   8  15
TORSDOF 6
ENDMDL
MODEL 7
REMARK VINA RESULT:      -6.8      3.002      5.199
REMARK  Name = 
REMARK  7 active torsions:
REMARK  status: ('A' for Active; 'I' for Inactive)
REMARK    1  A    between atoms: C_1  and  C_2
REMARK    2  A    between atoms: C_2  and  C_3
REMARK    3  A    between atoms: C_10  and  O_11
REMARK    4  A    between atoms: O_11  and  C_12
REMARK    5  A    between atoms: C_12  and  C_13
REMARK    6  A    between atoms: C_13  and  C_14
REMARK    7  A    between atoms: C_14  and  N_15
REMARK                            x       y       z     vdW  Elec       q    Type
REMARK                         _______ _______ _______ _____ _____    ______ ____
ROOT
ATOM      1  C   UNL     1       7.358   6.543  17.943  0.00  0.00    +0.000 A 
ATOM      2  N   UNL     1       7.023   6.556  16.627  0.00  0.00    +0.000 NA
ATOM      3  N   UNL     1       6.096   5.743  16.127  0.00  0.00    +0.000 N 
ATOM      4  O   UNL     1       5.821   5.812  14.827  0.00  0.00    +0.000 OA
ATOM      5  C   UNL     1       5.449   4.853  16.932  0.00  0.00    +0.000 A 
ATOM      6  C   UNL     1       4.477   3.978  16.422  0.00  0.00    +0.000 A 
ATOM      7  C   UNL     1       3.836   3.072  17.261  0.00  0.00    +0.000 A 
ATOM      8  C   UNL     1       4.147   3.025  18.633  0.00  0.00    +0.000 A 
ATOM      9  C   UNL     1       5.111   3.902  19.148  0.00  0.00    +0.000 A 
ATOM     10  C   UNL     1       5.772   4.820  18.306  0.00  0.00    +0.000 A 
ATOM     11  N   UNL     1       6.727   5.673  18.790  0.00  0.00    +0.000 N 
ATOM     12  O   UNL     1       7.051   5.648  20.084  0.00  0.00    +0.000 OA
ENDROOT
BRANCH   1  14
ATOM     13  C   UNL     1       8.189   8.907  17.946  0.00  0.00    +0.000 C 
ATOM     14  C   UNL     1       8.441   7.479  18.420  0.00  0.00    +0.000 C 
ENDBRANCH   1  14
BRANCH   8  15
ATOM     15  O   UNL     1       3.541   2.156  19.482  0.00  0.00    +0.000 OA
BRANCH  15  16
ATOM     16  C   UNL     1       2.252   2.276  19.966  0.00  0.00    +0.000 C 
BRANCH  16  17
ATOM     17  C   UNL     1       2.258   3.026  21.297  0.00  0.00    +0.000 C 
BRANCH  17  18
ATOM     18  C   UNL     1       2.467   4.537  21.100  0.00  0.00    +0.000 C 
BRANCH  18  19
ATOM     19  N   UNL     1       1.412   5.143  20.252  0.00  0.00    +0.000 NA
ATOM     20  C   UNL     1       1.828   5.462  18.867  0.00  0.00    +0.000 C 
ATOM     21  C   UNL     1       2.741   6.700  18.819  0.00  0.00    +0.000 C 
ATOM     22  O   UNL     1       2.100   7.820  19.400  0.00  0.00    +0.000 OA
ATOM     23  C   UNL     1       1.809   7.548  20.758  0.00  0.00    +0.000 C 
ATOM     24  C   UNL     1       0.841   6.356  20.875  0.00  0.00    +0.000 C 
ENDBRANCH  18  19
ENDBRANCH  17  18
ENDBRANCH  16  17
ENDBRANCH  15  16
ENDBRANCH   8  15
TORSDOF 6
ENDMDL
MODEL 8
REMARK VINA RESULT:      -6.8      1.701      8.328
REMARK  Name = 
REMARK  7 active torsions:
REMARK  status: ('A' for Active; 'I' for Inactive)
REMARK    1  A    between atoms: C_1  and  C_2
REMARK    2  A    between atoms: C_2  and  C_3
REMARK    3  A    between atoms: C_10  and  O_11
REMARK    4  A    between atoms: O_11  and  C_12
REMARK    5  A    between atoms: C_12  and  C_13
REMARK    6  A    between atoms: C_13  and  C_14
REMARK    7  A    between atoms: C_14  and  N_15
REMARK                            x       y       z     vdW  Elec       q    Type
REMARK                         _______ _______ _______ _____ _____    ______ ____
ROOT
ATOM      1  C   UNL     1      -0.196  11.019  21.586  0.00  0.00    +0.000 A 
ATOM      2  N   UNL     1      -0.058  11.911  20.572  0.00  0.00    +0.000 NA
ATOM      3  N   UNL     1       0.558  11.598  19.435  0.00  0.00    +0.000 N 
ATOM      4  O   UNL     1       0.657  12.525  18.486  0.00  0.00    +0.000 OA
ATOM      5  C   UNL     1       1.085  10.353  19.254  0.00  0.00    +0.000 A 
ATOM      6  C   UNL     1       1.751  10.006  18.068  0.00  0.00    +0.000 A 
ATOM      7  C   UNL     1       2.288   8.732  17.909  0.00  0.00    +0.000 A 
ATOM      8  C   UNL     1       2.165   7.772  18.931  0.00  0.00    +0.000 A 
ATOM      9  C   UNL     1       1.495   8.113  20.114  0.00  0.00    +0.000 A 
ATOM     10  C   UNL     1       0.953   9.402  20.290  0.00  0.00    +0.000 A 
ATOM     11  N   UNL     1       0.308   9.755  21.444  0.00  0.00    +0.000 N 
ATOM     12  O   UNL     1       0.182   8.871  22.435  0.00  0.00    +0.000 OA
ENDROOT
BRANCH   1  14
ATOM     13  C   UNL     1      -2.214  12.151  22.548  0.00  0.00    +0.000 C 
ATOM     14  C   UNL     1      -0.884  11.468  22.851  0.00  0.00    +0.000 C 
ENDBRANCH   1  14
BRANCH   8  15
ATOM     15  O   UNL     1       2.675   6.520  18.812  0.00  0.00    +0.000 OA
BRANCH  15  16
ATOM     16  C   UNL     1       2.888   5.640  19.856  0.00  0.00    +0.000 C 
BRANCH  16  17
ATOM     17  C   UNL     1       3.839   4.527  19.420  0.00  0.00    +0.000 C 
BRANCH  17  18
ATOM     18  C   UNL     1       5.273   5.047  19.220  0.00  0.00    +0.000 C 
BRANCH  18  19
ATOM     19  N   UNL     1       5.894   4.515  17.983  0.00  0.00    +0.000 NA
ATOM     20  C   UNL     1       7.276   4.979  17.726  0.00  0.00    +0.000 C 
ATOM     21  C   UNL     1       7.306   6.442  17.250  0.00  0.00    +0.000 C 
ATOM     22  O   UNL     1       6.518   6.609  16.087  0.00  0.00    +0.000 OA
ATOM     23  C   UNL     1       5.173   6.272  16.373  0.00  0.00    +0.000 C 
ATOM     24  C   UNL     1       5.063   4.794  16.792  0.00  0.00    +0.000 C 
ENDBRANCH  18  19
ENDBRANCH  17  18
ENDBRANCH  16  17
ENDBRANCH  15  16
ENDBRANCH   8  15
TORSDOF 6
ENDMDL
MODEL 9
REMARK VINA RESULT:      -6.7      1.744      8.798
REMARK  Name = 
REMARK  7 active torsions:
REMARK  status: ('A' for Active; 'I' for Inactive)
REMARK    1  A    between atoms: C_1  and  C_2
REMARK    2  A    between atoms: C_2  and  C_3
REMARK    3  A    between atoms: C_10  and  O_11
REMARK    4  A    between atoms: O_11  and  C_12
REMARK    5  A    between atoms: C_12  and  C_13
REMARK    6  A    between atoms: C_13  and  C_14
REMARK    7  A    between atoms: C_14  and  N_15
REMARK                            x       y       z     vdW  Elec       q    Type
REMARK                         _______ _______ _______ _____ _____    ______ ____
ROOT
ATOM      1  C   UNL     1      -0.647  11.188  21.899  0.00  0.00    +0.000 A 
ATOM      2  N   UNL     1      -0.508  11.918  20.762  0.00  0.00    +0.000 NA
ATOM      3  N   UNL     1       0.138  11.449  19.697  0.00  0.00    +0.000 N 
ATOM      4  O   UNL     1       0.235  12.223  18.618  0.00  0.00    +0.000 OA
ATOM      5  C   UNL     1       0.694  10.205  19.717  0.00  0.00    +0.000 A 
ATOM      6  C   UNL     1       1.391   9.697  18.610  0.00  0.00    +0.000 A 
ATOM      7  C   UNL     1       1.958   8.427  18.656  0.00  0.00    +0.000 A 
ATOM      8  C   UNL     1       1.835   7.632  19.811  0.00  0.00    +0.000 A 
ATOM      9  C   UNL     1       1.135   8.133  20.917  0.00  0.00    +0.000 A 
ATOM     10  C   UNL     1       0.562   9.420  20.884  0.00  0.00    +0.000 A 
ATOM     11  N   UNL     1      -0.113   9.930  21.960  0.00  0.00    +0.000 N 
ATOM     12  O   UNL     1      -0.240   9.205  23.073  0.00  0.00    +0.000 OA
ENDROOT
BRANCH   1  14
ATOM     13  C   UNL     1      -1.221  13.327  23.070  0.00  0.00    +0.000 C 
ATOM     14  C   UNL     1      -1.368  11.808  23.069  0.00  0.00    +0.000 C 
ENDBRANCH   1  14
BRANCH   8  15
ATOM     15  O   UNL     1       2.374   6.389  19.894  0.00  0.00    +0.000 OA
BRANCH  15  16
ATOM     16  C   UNL     1       3.525   5.971  19.251  0.00  0.00    +0.000 C 
BRANCH  16  17
ATOM     17  C   UNL     1       3.179   4.972  18.150  0.00  0.00    +0.000 C 
BRANCH  17  18
ATOM     18  C   UNL     1       4.437   4.452  17.434  0.00  0.00    +0.000 C 
BRANCH  18  19
ATOM     19  N   UNL     1       5.266   5.553  16.887  0.00  0.00    +0.000 NA
ATOM     20  C   UNL     1       5.583   5.443  15.445  0.00  0.00    +0.000 C 
ATOM     21  C   UNL     1       6.641   4.358  15.176  0.00  0.00    +0.000 C 
ATOM     22  O   UNL     1       7.822   4.615  15.911  0.00  0.00    +0.000 OA
ATOM     23  C   UNL     1       7.531   4.605  17.296  0.00  0.00    +0.000 C 
ATOM     24  C   UNL     1       6.525   5.717  17.645  0.00  0.00    +0.000 C 
ENDBRANCH  18  19
ENDBRANCH  17  18
ENDBRANCH  16  17
ENDBRANCH  15  16
ENDBRANCH   8  15
TORSDOF 6
ENDMDL
