MODEL 1
REMARK VINA RESULT:      -9.0      0.000      0.000
REMARK  Name = 
REMARK  11 active torsions:
REMARK  status: ('A' for Active; 'I' for Inactive)
REMARK    1  A    between atoms: C_2  and  O_3
REMARK    2  A    between atoms: C_2  and  C_4
REMARK    3  A    between atoms: C_4  and  C_5
REMARK    4  A    between atoms: C_10  and  O_11
REMARK    5  A    between atoms: O_11  and  C_12
REMARK    6  A    between atoms: C_12  and  C_13
REMARK    7  A    between atoms: C_13  and  C_14
REMARK    8  A    between atoms: C_19  and  C_20
REMARK    9  A    between atoms: C_20  and  O_22
REMARK   10  A    between atoms: N_25  and  C_26
REMARK   11  A    between atoms: C_26  and  C_27
REMARK                            x       y       z     vdW  Elec       q    Type
REMARK                         _______ _______ _______ _____ _____    ______ ____
ROOT
ATOM      1  C   UNL     1       2.263   8.430  18.856  0.00  0.00    +0.000 C 
ATOM      2  O   UNL     1       1.516   7.964  19.978  0.00  0.00    +0.000 OA
ATOM      3  C   UNL     1       0.845   8.955  20.632  0.00  0.00    +0.000 A 
ATOM      4  C   UNL     1       0.746   8.823  22.005  0.00  0.00    +0.000 A 
ATOM      5  C   UNL     1       0.103   9.804  22.751  0.00  0.00    +0.000 A 
ATOM      6  C   UNL     1      -0.484  10.915  22.125  0.00  0.00    +0.000 A 
ATOM      7  C   UNL     1      -0.426  11.027  20.714  0.00  0.00    +0.000 A 
ATOM      8  C   UNL     1       0.250  10.032  19.967  0.00  0.00    +0.000 A 
ATOM      9  N   UNL     1       0.480  10.152  18.555  0.00  0.00    +0.000 N 
ATOM     10  C   UNL     1       1.778   9.753  18.185  0.00  0.00    +0.000 C 
ATOM     11  O   UNL     1       2.430  10.356  17.329  0.00  0.00    +0.000 OA
ENDROOT
BRANCH   6  12
ATOM     12  C   UNL     1      -1.148  11.871  23.066  0.00  0.00    +0.000 C 
ATOM     13  O   UNL     1      -0.625  12.916  23.395  0.00  0.00    +0.000 OA
BRANCH  12  14
ATOM     14  O   UNL     1      -2.391  11.538  23.461  0.00  0.00    +0.000 OA
ATOM     15  H   UNL     1      -2.886  12.198  23.971  0.00  0.00    +0.000 HD
ENDBRANCH  12  14
ENDBRANCH   6  12
BRANCH   1  16
ATOM     16  C   UNL     1       2.321   7.235  17.877  0.00  0.00    +0.000 C 
BRANCH  16  17
ATOM     17  C   UNL     1       2.811   5.960  18.550  0.00  0.00    +0.000 C 
BRANCH  17  18
ATOM     18  O   UNL     1       3.517   5.107  17.661  0.00  0.00    +0.000 OA
BRANCH  18  24
ATOM     19  C   UNL     1       5.843   4.782  16.710  0.00  0.00    +0.000 A 
ATOM     20  C   UNL     1       7.209   4.790  17.071  0.00  0.00    +0.000 A 
ATOM     21  C   UNL     1       7.638   5.107  18.362  0.00  0.00    +0.000 A 
ATOM     22  C   UNL     1       6.707   5.416  19.341  0.00  0.00    +0.000 A 
ATOM     23  C   UNL     1       5.351   5.402  19.026  0.00  0.00    +0.000 A 
ATOM     24  C   UNL     1       4.898   5.104  17.725  0.00  0.00    +0.000 A 
BRANCH  19  25
ATOM     25  C   UNL     1       5.430   4.425  15.290  0.00  0.00    +0.000 C 
BRANCH  25  27
ATOM     26  O   UNL     1       7.275   5.232  13.908  0.00  0.00    +0.000 OA
ATOM     27  C   UNL     1       6.407   4.408  14.135  0.00  0.00    +0.000 C 
BRANCH  27  28
ATOM     28  O   UNL     1       6.315   3.263  13.399  0.00  0.00    +0.000 OA
ATOM     29  H   UNL     1       5.564   3.236  12.771  0.00  0.00    +0.000 HD
ENDBRANCH  27  28
ENDBRANCH  25  27
ENDBRANCH  19  25
ENDBRANCH  18  24
ENDBRANCH  17  18
ENDBRANCH  16  17
ENDBRANCH   1  16
BRANCH   9  30
ATOM     30  C   UNL     1      -0.498   9.449  17.695  0.00  0.00    +0.000 C 
BRANCH  30  31
ATOM     31  C   UNL     1      -1.793  10.198  17.485  0.00  0.00    +0.000 A 
ATOM     32  C   UNL     1      -2.306  11.072  18.453  0.00  0.00    +0.000 A 
ATOM     33  C   UNL     1      -3.543  11.692  18.260  0.00  0.00    +0.000 A 
ATOM     34  C   UNL     1      -4.245  11.484  17.076  0.00  0.00    +0.000 A 
ATOM     35 CL   UNL     1      -5.802  12.185  16.873  0.00  0.00    +0.000 Cl
ATOM     36  C   UNL     1      -3.701  10.699  16.063  0.00  0.00    +0.000 A 
ATOM     37  C   UNL     1      -2.472  10.067  16.263  0.00  0.00    +0.000 A 
ENDBRANCH  30  31
ENDBRANCH   9  30
TORSDOF 11
ENDMDL
MODEL 2
REMARK VINA RESULT:      -8.9      1.754      2.478
REMARK  Name = 
REMARK  11 active torsions:
REMARK  status: ('A' for Active; 'I' for Inactive)
REMARK    1  A    between atoms: C_2  and  O_3
REMARK    2  A    between atoms: C_2  and  C_4
REMARK    3  A    between atoms: C_4  and  C_5
REMARK    4  A    between atoms: C_10  and  O_11
REMARK    5  A    between atoms: O_11  and  C_12
REMARK    6  A    between atoms: C_12  and  C_13
REMARK    7  A    between atoms: C_13  and  C_14
REMARK    8  A    between atoms: C_19  and  C_20
REMARK    9  A    between atoms: C_20  and  O_22
REMARK   10  A    between atoms: N_25  and  C_26
REMARK   11  A    between atoms: C_26  and  C_27
REMARK                            x       y       z     vdW  Elec       q    Type
REMARK                         _______ _______ _______ _____ _____    ______ ____
ROOT
ATOM      1  C   UNL     1       2.011   8.744  19.109  0.00  0.00    +0.000 C 
ATOM      2  O   UNL     1       1.240   8.263  20.208  0.00  0.00    +0.000 OA
ATOM      3  C   UNL     1       0.503   9.234  20.819  0.00  0.00    +0.000 A 
ATOM      4  C   UNL     1       0.354   9.118  22.189  0.00  0.00    +0.000 A 
ATOM      5  C   UNL     1      -0.359  10.082  22.893  0.00  0.00    +0.000 A 
ATOM      6  C   UNL     1      -0.967  11.157  22.226  0.00  0.00    +0.000 A 
ATOM      7  C   UNL     1      -0.857  11.251  20.817  0.00  0.00    +0.000 A 
ATOM      8  C   UNL     1      -0.110  10.274  20.114  0.00  0.00    +0.000 A 
ATOM      9  N   UNL     1       0.171  10.383  18.710  0.00  0.00    +0.000 N 
ATOM     10  C   UNL     1       1.498  10.035  18.397  0.00  0.00    +0.000 C 
ATOM     11  O   UNL     1       2.158  10.653  17.557  0.00  0.00    +0.000 OA
ENDROOT
BRANCH   6  12
ATOM     12  C   UNL     1      -1.707  12.098  23.124  0.00  0.00    +0.000 C 
ATOM     13  O   UNL     1      -1.301  13.218  23.356  0.00  0.00    +0.000 OA
BRANCH  12  14
ATOM     14  O   UNL     1      -2.888  11.654  23.593  0.00  0.00    +0.000 OA
ATOM     15  H   UNL     1      -3.065  11.780  24.539  0.00  0.00    +0.000 HD
ENDBRANCH  12  14
ENDBRANCH   6  12
BRANCH   1  16
ATOM     16  C   UNL     1       2.158   7.538  18.152  0.00  0.00    +0.000 C 
BRANCH  16  17
ATOM     17  C   UNL     1       2.831   6.347  18.823  0.00  0.00    +0.000 C 
BRANCH  17  18
ATOM     18  O   UNL     1       4.218   6.265  18.532  0.00  0.00    +0.000 OA
BRANCH  18  24
ATOM     19  C   UNL     1       4.682   4.073  17.350  0.00  0.00    +0.000 A 
ATOM     20  C   UNL     1       5.192   3.539  16.146  0.00  0.00    +0.000 A 
ATOM     21  C   UNL     1       5.606   4.349  15.085  0.00  0.00    +0.000 A 
ATOM     22  C   UNL     1       5.532   5.729  15.203  0.00  0.00    +0.000 A 
ATOM     23  C   UNL     1       5.050   6.291  16.382  0.00  0.00    +0.000 A 
ATOM     24  C   UNL     1       4.610   5.491  17.456  0.00  0.00    +0.000 A 
BRANCH  19  25
ATOM     25  C   UNL     1       4.250   3.144  18.475  0.00  0.00    +0.000 C 
BRANCH  25  27
ATOM     26  O   UNL     1       2.197   1.954  17.898  0.00  0.00    +0.000 OA
ATOM     27  C   UNL     1       3.365   1.939  18.245  0.00  0.00    +0.000 C 
BRANCH  27  28
ATOM     28  O   UNL     1       4.055   0.766  18.339  0.00  0.00    +0.000 OA
ATOM     29  H   UNL     1       4.743   0.637  17.655  0.00  0.00    +0.000 HD
ENDBRANCH  27  28
ENDBRANCH  25  27
ENDBRANCH  19  25
ENDBRANCH  18  24
ENDBRANCH  17  18
ENDBRANCH  16  17
ENDBRANCH   1  16
BRANCH   9  30
ATOM     30  C   UNL     1      -0.742   9.627  17.824  0.00  0.00    +0.000 C 
BRANCH  30  31
ATOM     31  C   UNL     1      -2.048  10.327  17.532  0.00  0.00    +0.000 A 
ATOM     32  C   UNL     1      -2.545  10.451  16.227  0.00  0.00    +0.000 A 
ATOM     33  C   UNL     1      -3.717  11.169  15.983  0.00  0.00    +0.000 A 
ATOM     34  C   UNL     1      -4.428  11.719  17.046  0.00  0.00    +0.000 A 
ATOM     35 CL   UNL     1      -5.827  12.668  16.738  0.00  0.00    +0.000 Cl
ATOM     36  C   UNL     1      -4.001  11.518  18.356  0.00  0.00    +0.000 A 
ATOM     37  C   UNL     1      -2.820  10.813  18.599  0.00  0.00    +0.000 A 
ENDBRANCH  30  31
ENDBRANCH   9  30
TORSDOF 11
ENDMDL
MODEL 3
REMARK VINA RESULT:      -8.8      5.957      9.919
REMARK  Name = 
REMARK  11 active torsions:
REMARK  status: ('A' for Active; 'I' for Inactive)
REMARK    1  A    between atoms: C_2  and  O_3
REMARK    2  A    between atoms: C_2  and  C_4
REMARK    3  A    between atoms: C_4  and  C_5
REMARK    4  A    between atoms: C_10  and  O_11
REMARK    5  A    between atoms: O_11  and  C_12
REMARK    6  A    between atoms: C_12  and  C_13
REMARK    7  A    between atoms: C_13  and  C_14
REMARK    8  A    between atoms: C_19  and  C_20
REMARK    9  A    between atoms: C_20  and  O_22
REMARK   10  A    between atoms: N_25  and  C_26
REMARK   11  A    between atoms: C_26  and  C_27
REMARK                            x       y       z     vdW  Elec       q    Type
REMARK                         _______ _______ _______ _____ _____    ______ ____
ROOT
ATOM      1  C   UNL     1       7.717   6.125  17.381  0.00  0.00    +0.000 C 
ATOM      2  O   UNL     1       7.639   6.600  16.039  0.00  0.00    +0.000 OA
ATOM      3  C   UNL     1       7.144   5.677  15.165  0.00  0.00    +0.000 A 
ATOM      4  C   UNL     1       7.680   5.693  13.890  0.00  0.00    +0.000 A 
ATOM      5  C   UNL     1       7.251   4.767  12.946  0.00  0.00    +0.000 A 
ATOM      6  C   UNL     1       6.249   3.834  13.257  0.00  0.00    +0.000 A 
ATOM      7  C   UNL     1       5.664   3.849  14.547  0.00  0.00    +0.000 A 
ATOM      8  C   UNL     1       6.124   4.783  15.506  0.00  0.00    +0.000 A 
ATOM      9  N   UNL     1       5.688   4.761  16.874  0.00  0.00    +0.000 N 
ATOM     10  C   UNL     1       6.745   4.970  17.780  0.00  0.00    +0.000 C 
ATOM     11  O   UNL     1       6.830   4.351  18.843  0.00  0.00    +0.000 OA
ENDROOT
BRANCH   6  12
ATOM     12  C   UNL     1       5.892   2.917  12.130  0.00  0.00    +0.000 C 
ATOM     13  O   UNL     1       4.799   2.941  11.604  0.00  0.00    +0.000 OA
BRANCH  12  14
ATOM     14  O   UNL     1       6.882   2.121  11.685  0.00  0.00    +0.000 OA
ATOM     15  H   UNL     1       7.754   2.528  11.557  0.00  0.00    +0.000 HD
ENDBRANCH  12  14
ENDBRANCH   6  12
BRANCH   1  16
ATOM     16  C   UNL     1       7.572   7.381  18.270  0.00  0.00    +0.000 C 
BRANCH  16  17
ATOM     17  C   UNL     1       8.226   8.608  17.650  0.00  0.00    +0.000 C 
BRANCH  17  18
ATOM     18  O   UNL     1       8.080   9.771  18.450  0.00  0.00    +0.000 OA
BRANCH  18  24
ATOM     19  C   UNL     1       9.673  10.985  20.000  0.00  0.00    +0.000 A 
ATOM     20  C   UNL     1      10.841  11.779  20.004  0.00  0.00    +0.000 A 
ATOM     21  C   UNL     1      11.540  12.086  18.833  0.00  0.00    +0.000 A 
ATOM     22  C   UNL     1      11.080  11.612  17.614  0.00  0.00    +0.000 A 
ATOM     23  C   UNL     1       9.923  10.840  17.570  0.00  0.00    +0.000 A 
ATOM     24  C   UNL     1       9.215  10.504  18.742  0.00  0.00    +0.000 A 
BRANCH  19  25
ATOM     25  C   UNL     1       8.949  10.686  21.305  0.00  0.00    +0.000 C 
BRANCH  25  27
ATOM     26  O   UNL     1       8.830  12.940  22.238  0.00  0.00    +0.000 OA
ATOM     27  C   UNL     1       8.480  11.772  22.247  0.00  0.00    +0.000 C 
BRANCH  27  28
ATOM     28  O   UNL     1       7.483  11.345  23.073  0.00  0.00    +0.000 OA
ATOM     29  H   UNL     1       7.688  11.398  24.029  0.00  0.00    +0.000 HD
ENDBRANCH  27  28
ENDBRANCH  25  27
ENDBRANCH  19  25
ENDBRANCH  18  24
ENDBRANCH  17  18
ENDBRANCH  16  17
ENDBRANCH   1  16
BRANCH   9  30
ATOM     30  C   UNL     1       4.588   5.696  17.200  0.00  0.00    +0.000 C 
BRANCH  30  31
ATOM     31  C   UNL     1       3.508   5.105  18.074  0.00  0.00    +0.000 A 
ATOM     32  C   UNL     1       3.257   5.586  19.366  0.00  0.00    +0.000 A 
ATOM     33  C   UNL     1       2.301   4.970  20.177  0.00  0.00    +0.000 A 
ATOM     34  C   UNL     1       1.555   3.904  19.681  0.00  0.00    +0.000 A 
ATOM     35 CL   UNL     1       0.435   3.096  20.705  0.00  0.00    +0.000 Cl
ATOM     36  C   UNL     1       1.722   3.480  18.366  0.00  0.00    +0.000 A 
ATOM     37  C   UNL     1       2.688   4.087  17.561  0.00  0.00    +0.000 A 
ENDBRANCH  30  31
ENDBRANCH   9  30
TORSDOF 11
ENDMDL
MODEL 4
REMARK VINA RESULT:      -8.7      1.588      2.399
REMARK  Name = 
REMARK  11 active torsions:
REMARK  status: ('A' for Active; 'I' for Inactive)
REMARK    1  A    between atoms: C_2  and  O_3
REMARK    2  A    between atoms: C_2  and  C_4
REMARK    3  A    between atoms: C_4  and  C_5
REMARK    4  A    between atoms: C_10  and  O_11
REMARK    5  A    between atoms: O_11  and  C_12
REMARK    6  A    between atoms: C_12  and  C_13
REMARK    7  A    between atoms: C_13  and  C_14
REMARK    8  A    between atoms: C_19  and  C_20
REMARK    9  A    between atoms: C_20  and  O_22
REMARK   10  A    between atoms: N_25  and  C_26
REMARK   11  A    between atoms: C_26  and  C_27
REMARK                            x       y       z     vdW  Elec       q    Type
REMARK                         _______ _______ _______ _____ _____    ______ ____
ROOT
ATOM      1  C   UNL     1       1.809   9.383  19.215  0.00  0.00    +0.000 C 
ATOM      2  O   UNL     1       1.056   8.795  20.273  0.00  0.00    +0.000 OA
ATOM      3  C   UNL     1       0.262   9.685  20.933  0.00  0.00    +0.000 A 
ATOM      4  C   UNL     1       0.107   9.478  22.292  0.00  0.00    +0.000 A 
ATOM      5  C   UNL     1      -0.664  10.357  23.044  0.00  0.00    +0.000 A 
ATOM      6  C   UNL     1      -1.323  11.437  22.436  0.00  0.00    +0.000 A 
ATOM      7  C   UNL     1      -1.206  11.622  21.037  0.00  0.00    +0.000 A 
ATOM      8  C   UNL     1      -0.402  10.732  20.285  0.00  0.00    +0.000 A 
ATOM      9  N   UNL     1      -0.114  10.942  18.894  0.00  0.00    +0.000 N 
ATOM     10  C   UNL     1       1.233  10.686  18.577  0.00  0.00    +0.000 C 
ATOM     11  O   UNL     1       1.865  11.388  17.784  0.00  0.00    +0.000 OA
ENDROOT
BRANCH   6  12
ATOM     12  C   UNL     1      -2.122  12.279  23.381  0.00  0.00    +0.000 C 
ATOM     13  O   UNL     1      -1.758  13.387  23.718  0.00  0.00    +0.000 OA
BRANCH  12  14
ATOM     14  O   UNL     1      -3.304  11.765  23.769  0.00  0.00    +0.000 OA
ATOM     15  H   UNL     1      -3.292  11.138  24.510  0.00  0.00    +0.000 HD
ENDBRANCH  12  14
ENDBRANCH   6  12
BRANCH   1  16
ATOM     16  C   UNL     1       2.031   8.247  18.189  0.00  0.00    +0.000 C 
BRANCH  16  17
ATOM     17  C   UNL     1       2.647   7.008  18.823  0.00  0.00    +0.000 C 
BRANCH  17  18
ATOM     18  O   UNL     1       3.356   6.208  17.889  0.00  0.00    +0.000 OA
BRANCH  18  24
ATOM     19  C   UNL     1       4.027   3.795  17.512  0.00  0.00    +0.000 A 
ATOM     20  C   UNL     1       3.533   2.473  17.584  0.00  0.00    +0.000 A 
ATOM     21  C   UNL     1       2.245   2.181  18.040  0.00  0.00    +0.000 A 
ATOM     22  C   UNL     1       1.403   3.210  18.431  0.00  0.00    +0.000 A 
ATOM     23  C   UNL     1       1.851   4.527  18.358  0.00  0.00    +0.000 A 
ATOM     24  C   UNL     1       3.152   4.841  17.918  0.00  0.00    +0.000 A 
BRANCH  19  25
ATOM     25  C   UNL     1       5.437   4.056  17.002  0.00  0.00    +0.000 C 
BRANCH  25  27
ATOM     26  O   UNL     1       6.497   4.695  19.107  0.00  0.00    +0.000 OA
ATOM     27  C   UNL     1       6.574   4.456  17.915  0.00  0.00    +0.000 C 
BRANCH  27  28
ATOM     28  O   UNL     1       7.784   4.400  17.287  0.00  0.00    +0.000 OA
ATOM     29  H   UNL     1       8.429   3.782  17.690  0.00  0.00    +0.000 HD
ENDBRANCH  27  28
ENDBRANCH  25  27
ENDBRANCH  19  25
ENDBRANCH  18  24
ENDBRANCH  17  18
ENDBRANCH  16  17
ENDBRANCH   1  16
BRANCH   9  30
ATOM     30  C   UNL     1      -0.977  10.193  17.952  0.00  0.00    +0.000 C 
BRANCH  30  31
ATOM     31  C   UNL     1      -2.336  10.811  17.727  0.00  0.00    +0.000 A 
ATOM     32  C   UNL     1      -2.992  11.538  18.729  0.00  0.00    +0.000 A 
ATOM     33  C   UNL     1      -4.280  12.034  18.514  0.00  0.00    +0.000 A 
ATOM     34  C   UNL     1      -4.895  11.852  17.278  0.00  0.00    +0.000 A 
ATOM     35 CL   UNL     1      -6.509  12.394  17.040  0.00  0.00    +0.000 Cl
ATOM     36  C   UNL     1      -4.216  11.221  16.240  0.00  0.00    +0.000 A 
ATOM     37  C   UNL     1      -2.935  10.711  16.461  0.00  0.00    +0.000 A 
ENDBRANCH  30  31
ENDBRANCH   9  30
TORSDOF 11
ENDMDL
MODEL 5
REMARK VINA RESULT:      -8.6      1.912      2.561
REMARK  Name = 
REMARK  11 active torsions:
REMARK  status: ('A' for Active; 'I' for Inactive)
REMARK    1  A    between atoms: C_2  and  O_3
REMARK    2  A    between atoms: C_2  and  C_4
REMARK    3  A    between atoms: C_4  and  C_5
REMARK    4  A    between atoms: C_10  and  O_11
REMARK    5  A    between atoms: O_11  and  C_12
REMARK    6  A    between atoms: C_12  and  C_13
REMARK    7  A    between atoms: C_13  and  C_14
REMARK    8  A    between atoms: C_19  and  C_20
REMARK    9  A    between atoms: C_20  and  O_22
REMARK   10  A    between atoms: N_25  and  C_26
REMARK   11  A    between atoms: C_26  and  C_27
REMARK                            x       y       z     vdW  Elec       q    Type
REMARK                         _______ _______ _______ _____ _____    ______ ____
ROOT
ATOM      1  C   UNL     1       1.964   8.891  19.157  0.00  0.00    +0.000 C 
ATOM      2  O   UNL     1       1.136   8.357  20.186  0.00  0.00    +0.000 OA
ATOM      3  C   UNL     1       0.374   9.299  20.813  0.00  0.00    +0.000 A 
ATOM      4  C   UNL     1       0.154   9.109  22.165  0.00  0.00    +0.000 A 
ATOM      5  C   UNL     1      -0.589  10.038  22.884  0.00  0.00    +0.000 A 
ATOM      6  C   UNL     1      -1.154  11.155  22.248  0.00  0.00    +0.000 A 
ATOM      7  C   UNL     1      -0.972  11.325  20.854  0.00  0.00    +0.000 A 
ATOM      8  C   UNL     1      -0.196  10.383  20.136  0.00  0.00    +0.000 A 
ATOM      9  N   UNL     1       0.158  10.567  18.757  0.00  0.00    +0.000 N 
ATOM     10  C   UNL     1       1.497  10.225  18.493  0.00  0.00    +0.000 C 
ATOM     11  O   UNL     1       2.203  10.882  17.724  0.00  0.00    +0.000 OA
ENDROOT
BRANCH   6  12
ATOM     12  C   UNL     1      -1.934  12.050  23.159  0.00  0.00    +0.000 C 
ATOM     13  O   UNL     1      -3.005  11.720  23.623  0.00  0.00    +0.000 OA
BRANCH  12  14
ATOM     14  O   UNL     1      -1.337  13.211  23.492  0.00  0.00    +0.000 OA
ATOM     15  H   UNL     1      -1.155  13.837  22.774  0.00  0.00    +0.000 HD
ENDBRANCH  12  14
ENDBRANCH   6  12
BRANCH   1  16
ATOM     16  C   UNL     1       2.154   7.739  18.143  0.00  0.00    +0.000 C 
BRANCH  16  17
ATOM     17  C   UNL     1       2.538   6.431  18.821  0.00  0.00    +0.000 C 
BRANCH  17  18
ATOM     18  O   UNL     1       3.925   6.147  18.720  0.00  0.00    +0.000 OA
BRANCH  18  24
ATOM     19  C   UNL     1       4.417   4.205  17.169  0.00  0.00    +0.000 A 
ATOM     20  C   UNL     1       5.016   3.889  15.929  0.00  0.00    +0.000 A 
ATOM     21  C   UNL     1       5.555   4.866  15.090  0.00  0.00    +0.000 A 
ATOM     22  C   UNL     1       5.520   6.198  15.473  0.00  0.00    +0.000 A 
ATOM     23  C   UNL     1       4.953   6.545  16.695  0.00  0.00    +0.000 A 
ATOM     24  C   UNL     1       4.387   5.577  17.548  0.00  0.00    +0.000 A 
BRANCH  19  25
ATOM     25  C   UNL     1       3.849   3.099  18.047  0.00  0.00    +0.000 C 
BRANCH  25  27
ATOM     26  O   UNL     1       1.815   2.073  18.928  0.00  0.00    +0.000 OA
ATOM     27  C   UNL     1       2.373   2.778  18.103  0.00  0.00    +0.000 C 
BRANCH  27  28
ATOM     28  O   UNL     1       1.655   3.481  17.181  0.00  0.00    +0.000 OA
ATOM     29  H   UNL     1       0.703   3.580  17.389  0.00  0.00    +0.000 HD
ENDBRANCH  27  28
ENDBRANCH  25  27
ENDBRANCH  19  25
ENDBRANCH  18  24
ENDBRANCH  17  18
ENDBRANCH  16  17
ENDBRANCH   1  16
BRANCH   9  30
ATOM     30  C   UNL     1      -0.713   9.869  17.784  0.00  0.00    +0.000 C 
BRANCH  30  31
ATOM     31  C   UNL     1      -2.154  10.320  17.804  0.00  0.00    +0.000 A 
ATOM     32  C   UNL     1      -2.505  11.676  17.771  0.00  0.00    +0.000 A 
ATOM     33  C   UNL     1      -3.844  12.063  17.866  0.00  0.00    +0.000 A 
ATOM     34  C   UNL     1      -4.841  11.094  17.940  0.00  0.00    +0.000 A 
ATOM     35 CL   UNL     1      -6.481  11.571  18.137  0.00  0.00    +0.000 Cl
ATOM     36  C   UNL     1      -4.516   9.742  17.873  0.00  0.00    +0.000 A 
ATOM     37  C   UNL     1      -3.176   9.356  17.793  0.00  0.00    +0.000 A 
ENDBRANCH  30  31
ENDBRANCH   9  30
TORSDOF 11
ENDMDL
MODEL 6
REMARK VINA RESULT:      -8.6      1.671      2.169
REMARK  Name = 
REMARK  11 active torsions:
REMARK  status: ('A' for Active; 'I' for Inactive)
REMARK    1  A    between atoms: C_2  and  O_3
REMARK    2  A    between atoms: C_2  and  C_4
REMARK    3  A    between atoms: C_4  and  C_5
REMARK    4  A    between atoms: C_10  and  O_11
REMARK    5  A    between atoms: O_11  and  C_12
REMARK    6  A    between atoms: C_12  and  C_13
REMARK    7  A    between atoms: C_13  and  C_14
REMARK    8  A    between atoms: C_19  and  C_20
REMARK    9  A    between atoms: C_20  and  O_22
REMARK   10  A    between atoms: N_25  and  C_26
REMARK   11  A    between atoms: C_26  and  C_27
REMARK                            x       y       z     vdW  Elec       q    Type
REMARK                         _______ _______ _______ _____ _____    ______ ____
ROOT
ATOM      1  C   UNL     1       2.026   8.739  19.063  0.00  0.00    +0.000 C 
ATOM      2  O   UNL     1       1.257   8.236  20.152  0.00  0.00    +0.000 OA
ATOM      3  C   UNL     1       0.536   9.197  20.797  0.00  0.00    +0.000 A 
ATOM      4  C   UNL     1       0.395   9.043  22.164  0.00  0.00    +0.000 A 
ATOM      5  C   UNL     1      -0.302   9.995  22.900  0.00  0.00    +0.000 A 
ATOM      6  C   UNL     1      -0.900  11.097  22.269  0.00  0.00    +0.000 A 
ATOM      7  C   UNL     1      -0.798  11.230  20.863  0.00  0.00    +0.000 A 
ATOM      8  C   UNL     1      -0.069  10.266  20.126  0.00  0.00    +0.000 A 
ATOM      9  N   UNL     1       0.205  10.412  18.725  0.00  0.00    +0.000 N 
ATOM     10  C   UNL     1       1.525  10.057  18.393  0.00  0.00    +0.000 C 
ATOM     11  O   UNL     1       2.188  10.691  17.567  0.00  0.00    +0.000 OA
ENDROOT
BRANCH   6  12
ATOM     12  C   UNL     1      -1.622  12.020  23.200  0.00  0.00    +0.000 C 
ATOM     13  O   UNL     1      -1.147  13.080  23.550  0.00  0.00    +0.000 OA
BRANCH  12  14
ATOM     14  O   UNL     1      -2.862  11.637  23.560  0.00  0.00    +0.000 OA
ATOM     15  H   UNL     1      -3.588  12.253  23.371  0.00  0.00    +0.000 HD
ENDBRANCH  12  14
ENDBRANCH   6  12
BRANCH   1  16
ATOM     16  C   UNL     1       2.153   7.560  18.070  0.00  0.00    +0.000 C 
BRANCH  16  17
ATOM     17  C   UNL     1       3.446   7.615  17.269  0.00  0.00    +0.000 C 
BRANCH  17  18
ATOM     18  O   UNL     1       4.074   6.347  17.153  0.00  0.00    +0.000 OA
BRANCH  18  24
ATOM     19  C   UNL     1       5.639   5.316  18.856  0.00  0.00    +0.000 A 
ATOM     20  C   UNL     1       6.964   5.386  19.343  0.00  0.00    +0.000 A 
ATOM     21  C   UNL     1       7.918   6.245  18.792  0.00  0.00    +0.000 A 
ATOM     22  C   UNL     1       7.570   7.073  17.737  0.00  0.00    +0.000 A 
ATOM     23  C   UNL     1       6.270   7.043  17.241  0.00  0.00    +0.000 A 
ATOM     24  C   UNL     1       5.298   6.170  17.771  0.00  0.00    +0.000 A 
BRANCH  19  25
ATOM     25  C   UNL     1       4.640   4.364  19.497  0.00  0.00    +0.000 C 
BRANCH  25  27
ATOM     26  O   UNL     1       3.902   2.346  18.336  0.00  0.00    +0.000 OA
ATOM     27  C   UNL     1       3.703   3.496  18.687  0.00  0.00    +0.000 C 
BRANCH  27  28
ATOM     28  O   UNL     1       2.495   4.094  18.478  0.00  0.00    +0.000 OA
ATOM     29  H   UNL     1       1.896   4.094  19.253  0.00  0.00    +0.000 HD
ENDBRANCH  27  28
ENDBRANCH  25  27
ENDBRANCH  19  25
ENDBRANCH  18  24
ENDBRANCH  17  18
ENDBRANCH  16  17
ENDBRANCH   1  16
BRANCH   9  30
ATOM     30  C   UNL     1      -0.724   9.694  17.823  0.00  0.00    +0.000 C 
BRANCH  30  31
ATOM     31  C   UNL     1      -2.030  10.409  17.576  0.00  0.00    +0.000 A 
ATOM     32  C   UNL     1      -2.607  11.248  18.540  0.00  0.00    +0.000 A 
ATOM     33  C   UNL     1      -3.853  11.836  18.311  0.00  0.00    +0.000 A 
ATOM     34  C   UNL     1      -4.502  11.632  17.097  0.00  0.00    +0.000 A 
ATOM     35 CL   UNL     1      -6.070  12.291  16.846  0.00  0.00    +0.000 Cl
ATOM     36  C   UNL     1      -3.896  10.884  16.091  0.00  0.00    +0.000 A 
ATOM     37  C   UNL     1      -2.658  10.283  16.327  0.00  0.00    +0.000 A 
ENDBRANCH  30  31
ENDBRANCH   9  30
TORSDOF 11
ENDMDL
MODEL 7
REMARK VINA RESULT:      -8.6      3.381      4.893
REMARK  Name = 
REMARK  11 active torsions:
REMARK  status: ('A' for Active; 'I' for Inactive)
REMARK    1  A    between atoms: C_2  and  O_3
REMARK    2  A    between atoms: C_2  and  C_4
REMARK    3  A    between atoms: C_4  and  C_5
REMARK    4  A    between atoms: C_10  and  O_11
REMARK    5  A    between atoms: O_11  and  C_12
REMARK    6  A    between atoms: C_12  and  C_13
REMARK    7  A    between atoms: C_13  and  C_14
REMARK    8  A    between atoms: C_19  and  C_20
REMARK    9  A    between atoms: C_20  and  O_22
REMARK   10  A    between atoms: N_25  and  C_26
REMARK   11  A    between atoms: C_26  and  C_27
REMARK                            x       y       z     vdW  Elec       q    Type
REMARK                         _______ _______ _______ _____ _____    ______ ____
ROOT
ATOM      1  C   UNL     1       0.739   9.621  18.783  0.00  0.00    +0.000 C 
ATOM      2  O   UNL     1      -0.123   9.639  17.647  0.00  0.00    +0.000 OA
ATOM      3  C   UNL     1      -1.307  10.276  17.876  0.00  0.00    +0.000 A 
ATOM      4  C   UNL     1      -2.417   9.756  17.234  0.00  0.00    +0.000 A 
ATOM      5  C   UNL     1      -3.666  10.329  17.435  0.00  0.00    +0.000 A 
ATOM      6  C   UNL     1      -3.816  11.458  18.256  0.00  0.00    +0.000 A 
ATOM      7  C   UNL     1      -2.674  12.022  18.876  0.00  0.00    +0.000 A 
ATOM      8  C   UNL     1      -1.410  11.417  18.679  0.00  0.00    +0.000 A 
ATOM      9  N   UNL     1      -0.235  11.838  19.390  0.00  0.00    +0.000 N 
ATOM     10  C   UNL     1       0.541  10.753  19.839  0.00  0.00    +0.000 C 
ATOM     11  O   UNL     1       1.093  10.753  20.942  0.00  0.00    +0.000 OA
ENDROOT
BRANCH   6  12
ATOM     12  C   UNL     1      -5.222  11.961  18.359  0.00  0.00    +0.000 C 
ATOM     13  O   UNL     1      -6.176  11.212  18.327  0.00  0.00    +0.000 OA
BRANCH  12  14
ATOM     14  O   UNL     1      -5.359  13.284  18.566  0.00  0.00    +0.000 OA
ATOM     15  H   UNL     1      -4.545  13.801  18.682  0.00  0.00    +0.000 HD
ENDBRANCH  12  14
ENDBRANCH   6  12
BRANCH   1  16
ATOM     16  C   UNL     1       2.173   9.566  18.207  0.00  0.00    +0.000 C 
BRANCH  16  17
ATOM     17  C   UNL     1       2.500   8.209  17.598  0.00  0.00    +0.000 C 
BRANCH  17  18
ATOM     18  O   UNL     1       2.829   7.234  18.576  0.00  0.00    +0.000 OA
BRANCH  18  24
ATOM     19  C   UNL     1       4.079   5.225  17.673  0.00  0.00    +0.000 A 
ATOM     20  C   UNL     1       3.894   3.888  17.255  0.00  0.00    +0.000 A 
ATOM     21  C   UNL     1       2.653   3.249  17.324  0.00  0.00    +0.000 A 
ATOM     22  C   UNL     1       1.550   3.938  17.806  0.00  0.00    +0.000 A 
ATOM     23  C   UNL     1       1.693   5.262  18.211  0.00  0.00    +0.000 A 
ATOM     24  C   UNL     1       2.939   5.918  18.167  0.00  0.00    +0.000 A 
BRANCH  19  25
ATOM     25  C   UNL     1       5.453   5.872  17.572  0.00  0.00    +0.000 C 
BRANCH  25  27
ATOM     26  O   UNL     1       5.478   6.684  15.269  0.00  0.00    +0.000 OA
ATOM     27  C   UNL     1       6.071   6.275  16.252  0.00  0.00    +0.000 C 
BRANCH  27  28
ATOM     28  O   UNL     1       7.434   6.265  16.296  0.00  0.00    +0.000 OA
ATOM     29  H   UNL     1       7.817   6.036  17.168  0.00  0.00    +0.000 HD
ENDBRANCH  27  28
ENDBRANCH  25  27
ENDBRANCH  19  25
ENDBRANCH  18  24
ENDBRANCH  17  18
ENDBRANCH  16  17
ENDBRANCH   1  16
BRANCH   9  30
ATOM     30  C   UNL     1       0.640  12.781  18.657  0.00  0.00    +0.000 C 
BRANCH  30  31
ATOM     31  C   UNL     1       0.611  14.195  19.186  0.00  0.00    +0.000 A 
ATOM     32  C   UNL     1      -0.346  15.124  18.757  0.00  0.00    +0.000 A 
ATOM     33  C   UNL     1      -0.300  16.445  19.208  0.00  0.00    +0.000 A 
ATOM     34  C   UNL     1       0.668  16.829  20.131  0.00  0.00    +0.000 A 
ATOM     35 CL   UNL     1       0.773  18.472  20.626  0.00  0.00    +0.000 Cl
ATOM     36  C   UNL     1       1.563  15.893  20.643  0.00  0.00    +0.000 A 
ATOM     37  C   UNL     1       1.527  14.576  20.180  0.00  0.00    +0.000 A 
ENDBRANCH  30  31
ENDBRANCH   9  30
TORSDOF 11
ENDMDL
MODEL 8
REMARK VINA RESULT:      -8.6      1.923      3.219
REMARK  Name = 
REMARK  11 active torsions:
REMARK  status: ('A' for Active; 'I' for Inactive)
REMARK    1  A    between atoms: C_2  and  O_3
REMARK    2  A    between atoms: C_2  and  C_4
REMARK    3  A    between atoms: C_4  and  C_5
REMARK    4  A    between atoms: C_10  and  O_11
REMARK    5  A    between atoms: O_11  and  C_12
REMARK    6  A    between atoms: C_12  and  C_13
REMARK    7  A    between atoms: C_13  and  C_14
REMARK    8  A    between atoms: C_19  and  C_20
REMARK    9  A    between atoms: C_20  and  O_22
REMARK   10  A    between atoms: N_25  and  C_26
REMARK   11  A    between atoms: C_26  and  C_27
REMARK                            x       y       z     vdW  Elec       q    Type
REMARK                         _______ _______ _______ _____ _____    ______ ____
ROOT
ATOM      1  C   UNL     1       1.946   8.969  19.030  0.00  0.00    +0.000 C 
ATOM      2  O   UNL     1       1.202   8.426  20.118  0.00  0.00    +0.000 OA
ATOM      3  C   UNL     1       0.464   9.357  20.788  0.00  0.00    +0.000 A 
ATOM      4  C   UNL     1       0.342   9.174  22.153  0.00  0.00    +0.000 A 
ATOM      5  C   UNL     1      -0.370  10.093  22.915  0.00  0.00    +0.000 A 
ATOM      6  C   UNL     1      -1.001  11.193  22.311  0.00  0.00    +0.000 A 
ATOM      7  C   UNL     1      -0.918  11.355  20.907  0.00  0.00    +0.000 A 
ATOM      8  C   UNL     1      -0.173  10.423  20.144  0.00  0.00    +0.000 A 
ATOM      9  N   UNL     1       0.081  10.603  18.743  0.00  0.00    +0.000 N 
ATOM     10  C   UNL     1       1.406  10.286  18.391  0.00  0.00    +0.000 C 
ATOM     11  O   UNL     1       2.044  10.951  17.570  0.00  0.00    +0.000 OA
ENDROOT
BRANCH   6  12
ATOM     12  C   UNL     1      -1.736  12.080  23.267  0.00  0.00    +0.000 C 
ATOM     13  O   UNL     1      -1.263  13.123  23.668  0.00  0.00    +0.000 OA
BRANCH  12  14
ATOM     14  O   UNL     1      -2.983  11.688  23.591  0.00  0.00    +0.000 OA
ATOM     15  H   UNL     1      -3.215  10.762  23.417  0.00  0.00    +0.000 HD
ENDBRANCH  12  14
ENDBRANCH   6  12
BRANCH   1  16
ATOM     16  C   UNL     1       2.091   7.812  18.014  0.00  0.00    +0.000 C 
BRANCH  16  17
ATOM     17  C   UNL     1       3.546   7.445  17.758  0.00  0.00    +0.000 C 
BRANCH  17  18
ATOM     18  O   UNL     1       3.984   6.352  18.551  0.00  0.00    +0.000 OA
BRANCH  18  24
ATOM     19  C   UNL     1       2.821   4.107  18.409  0.00  0.00    +0.000 A 
ATOM     20  C   UNL     1       2.908   2.841  17.788  0.00  0.00    +0.000 A 
ATOM     21  C   UNL     1       3.900   2.533  16.854  0.00  0.00    +0.000 A 
ATOM     22  C   UNL     1       4.850   3.486  16.520  0.00  0.00    +0.000 A 
ATOM     23  C   UNL     1       4.805   4.739  17.124  0.00  0.00    +0.000 A 
ATOM     24  C   UNL     1       3.801   5.076  18.054  0.00  0.00    +0.000 A 
BRANCH  19  25
ATOM     25  C   UNL     1       1.721   4.386  19.422  0.00  0.00    +0.000 C 
BRANCH  25  27
ATOM     26  O   UNL     1       2.123   3.845  21.770  0.00  0.00    +0.000 OA
ATOM     27  C   UNL     1       2.006   4.670  20.880  0.00  0.00    +0.000 C 
BRANCH  27  28
ATOM     28  O   UNL     1       2.261   5.990  21.109  0.00  0.00    +0.000 OA
ATOM     29  H   UNL     1       1.633   6.611  20.685  0.00  0.00    +0.000 HD
ENDBRANCH  27  28
ENDBRANCH  25  27
ENDBRANCH  19  25
ENDBRANCH  18  24
ENDBRANCH  17  18
ENDBRANCH  16  17
ENDBRANCH   1  16
BRANCH   9  30
ATOM     30  C   UNL     1      -0.839   9.879  17.837  0.00  0.00    +0.000 C 
BRANCH  30  31
ATOM     31  C   UNL     1      -2.164  10.568  17.616  0.00  0.00    +0.000 A 
ATOM     32  C   UNL     1      -2.785  11.317  18.624  0.00  0.00    +0.000 A 
ATOM     33  C   UNL     1      -4.046  11.880  18.412  0.00  0.00    +0.000 A 
ATOM     34  C   UNL     1      -4.666  11.742  17.174  0.00  0.00    +0.000 A 
ATOM     35 CL   UNL     1      -6.251  12.368  16.939  0.00  0.00    +0.000 Cl
ATOM     36  C   UNL     1      -4.018  11.087  16.131  0.00  0.00    +0.000 A 
ATOM     37  C   UNL     1      -2.765  10.511  16.348  0.00  0.00    +0.000 A 
ENDBRANCH  30  31
ENDBRANCH   9  30
TORSDOF 11
ENDMDL
MODEL 9
REMARK VINA RESULT:      -8.6      3.115      4.655
REMARK  Name = 
REMARK  11 active torsions:
REMARK  status: ('A' for Active; 'I' for Inactive)
REMARK    1  A    between atoms: C_2  and  O_3
REMARK    2  A    between atoms: C_2  and  C_4
REMARK    3  A    between atoms: C_4  and  C_5
REMARK    4  A    between atoms: C_10  and  O_11
REMARK    5  A    between atoms: O_11  and  C_12
REMARK    6  A    between atoms: C_12  and  C_13
REMARK    7  A    between atoms: C_13  and  C_14
REMARK    8  A    between atoms: C_19  and  C_20
REMARK    9  A    between atoms: C_20  and  O_22
REMARK   10  A    between atoms: N_25  and  C_26
REMARK   11  A    between atoms: C_26  and  C_27
REMARK                            x       y       z     vdW  Elec       q    Type
REMARK                         _______ _______ _______ _____ _____    ______ ____
ROOT
ATOM      1  C   UNL     1       0.727   9.313  18.775  0.00  0.00    +0.000 C 
ATOM      2  O   UNL     1       0.003   9.625  17.587  0.00  0.00    +0.000 OA
ATOM      3  C   UNL     1      -1.189  10.242  17.825  0.00  0.00    +0.000 A 
ATOM      4  C   UNL     1      -2.224   9.928  16.962  0.00  0.00    +0.000 A 
ATOM      5  C   UNL     1      -3.480  10.492  17.152  0.00  0.00    +0.000 A 
ATOM      6  C   UNL     1      -3.708  11.409  18.191  0.00  0.00    +0.000 A 
ATOM      7  C   UNL     1      -2.637  11.769  19.045  0.00  0.00    +0.000 A 
ATOM      8  C   UNL     1      -1.367  11.172  18.854  0.00  0.00    +0.000 A 
ATOM      9  N   UNL     1      -0.278  11.371  19.768  0.00  0.00    +0.000 N 
ATOM     10  C   UNL     1       0.425  10.182  20.036  0.00  0.00    +0.000 C 
ATOM     11  O   UNL     1       0.844   9.907  21.163  0.00  0.00    +0.000 OA
ENDROOT
BRANCH   6  12
ATOM     12  C   UNL     1      -5.108  11.933  18.251  0.00  0.00    +0.000 C 
ATOM     13  O   UNL     1      -6.051  11.299  17.824  0.00  0.00    +0.000 OA
BRANCH  12  14
ATOM     14  O   UNL     1      -5.266  13.113  18.879  0.00  0.00    +0.000 OA
ATOM     15  H   UNL     1      -4.634  13.329  19.583  0.00  0.00    +0.000 HD
ENDBRANCH  12  14
ENDBRANCH   6  12
BRANCH   1  16
ATOM     16  C   UNL     1       2.218   9.331  18.364  0.00  0.00    +0.000 C 
BRANCH  16  17
ATOM     17  C   UNL     1       2.596   8.130  17.508  0.00  0.00    +0.000 C 
BRANCH  17  18
ATOM     18  O   UNL     1       3.530   7.274  18.147  0.00  0.00    +0.000 OA
BRANCH  18  24
ATOM     19  C   UNL     1       4.484   5.041  17.425  0.00  0.00    +0.000 A 
ATOM     20  C   UNL     1       4.117   3.703  17.156  0.00  0.00    +0.000 A 
ATOM     21  C   UNL     1       2.811   3.238  17.327  0.00  0.00    +0.000 A 
ATOM     22  C   UNL     1       1.823   4.107  17.765  0.00  0.00    +0.000 A 
ATOM     23  C   UNL     1       2.145   5.436  18.024  0.00  0.00    +0.000 A 
ATOM     24  C   UNL     1       3.460   5.920  17.876  0.00  0.00    +0.000 A 
BRANCH  19  25
ATOM     25  C   UNL     1       5.922   5.495  17.217  0.00  0.00    +0.000 C 
BRANCH  25  27
ATOM     26  O   UNL     1       7.285   4.763  19.106  0.00  0.00    +0.000 OA
ATOM     27  C   UNL     1       7.095   4.833  17.904  0.00  0.00    +0.000 C 
BRANCH  27  28
ATOM     28  O   UNL     1       7.903   4.174  17.026  0.00  0.00    +0.000 OA
ATOM     29  H   UNL     1       7.739   3.210  16.959  0.00  0.00    +0.000 HD
ENDBRANCH  27  28
ENDBRANCH  25  27
ENDBRANCH  19  25
ENDBRANCH  18  24
ENDBRANCH  17  18
ENDBRANCH  16  17
ENDBRANCH   1  16
BRANCH   9  30
ATOM     30  C   UNL     1       0.691  12.419  19.374  0.00  0.00    +0.000 C 
BRANCH  30  31
ATOM     31  C   UNL     1       0.256  13.826  19.707  0.00  0.00    +0.000 A 
ATOM     32  C   UNL     1       0.096  14.256  21.032  0.00  0.00    +0.000 A 
ATOM     33  C   UNL     1      -0.380  15.540  21.306  0.00  0.00    +0.000 A 
ATOM     34  C   UNL     1      -0.646  16.418  20.259  0.00  0.00    +0.000 A 
ATOM     35 CL   UNL     1      -1.306  17.970  20.593  0.00  0.00    +0.000 Cl
ATOM     36  C   UNL     1      -0.396  16.040  18.942  0.00  0.00    +0.000 A 
ATOM     37  C   UNL     1       0.064  14.751  18.668  0.00  0.00    +0.000 A 
ENDBRANCH  30  31
ENDBRANCH   9  30
TORSDOF 11
ENDMDL
