MODEL 1
REMARK VINA RESULT:      -8.4      0.000      0.000
REMARK  Name = 
REMARK  4 active torsions:
REMARK  status: ('A' for Active; 'I' for Inactive)
REMARK    1  A    between atoms: C_1  and  C_2
REMARK    2  A    between atoms: C_18  and  C_19
REMARK    3  A    between atoms: C_18  and  C_20
REMARK    4  A    between atoms: C_23  and  C_24
REMARK                            x       y       z     vdW  Elec       q    Type
REMARK                         _______ _______ _______ _____ _____    ______ ____
ROOT
ATOM      1  C   UNL     1       5.350   6.089  15.418  0.00  0.00    +0.000 C 
ATOM      2  C   UNL     1       4.585   5.877  16.667  0.00  0.00    +0.000 A 
ATOM      3  N   UNL     1       4.432   4.776  17.383  0.00  0.00    +0.000 NA
ATOM      4  C   UNL     1       3.691   5.214  18.436  0.00  0.00    +0.000 A 
ATOM      5  C   UNL     1       3.146   4.508  19.552  0.00  0.00    +0.000 A 
ATOM      6  C   UNL     1       2.466   5.276  20.481  0.00  0.00    +0.000 A 
ATOM      7  C   UNL     1       2.085   6.600  20.334  0.00  0.00    +0.000 A 
ATOM      8  C   UNL     1       1.140   7.096  21.226  0.00  0.00    +0.000 A 
ATOM      9  C   UNL     1       0.522   8.292  20.949  0.00  0.00    +0.000 A 
ATOM     10  C   UNL     1       0.907   9.093  19.857  0.00  0.00    +0.000 A 
ATOM     11  C   UNL     1       1.947   8.635  19.001  0.00  0.00    +0.000 A 
ATOM     12  C   UNL     1       2.499   7.309  19.194  0.00  0.00    +0.000 A 
ATOM     13  C   UNL     1       3.349   6.554  18.330  0.00  0.00    +0.000 A 
ATOM     14  O   UNL     1       3.937   6.982  17.159  0.00  0.00    +0.000 OA
ATOM     15  C   UNL     1       2.351   9.484  17.822  0.00  0.00    +0.000 C 
ATOM     16  C   UNL     1       2.137  10.985  17.996  0.00  0.00    +0.000 C 
ATOM     17  C   UNL     1       0.984  11.449  18.880  0.00  0.00    +0.000 C 
ATOM     18  C   UNL     1       0.125  10.375  19.574  0.00  0.00    +0.000 C 
ATOM     19  C   UNL     1      -1.101  10.037  18.695  0.00  0.00    +0.000 C 
ATOM     20  C   UNL     1      -0.412  11.011  20.886  0.00  0.00    +0.000 C 
ATOM     21  O   UNL     1       2.028   4.506  21.556  0.00  0.00    +0.000 OA
ATOM     22  C   UNL     1       1.973   3.168  21.018  0.00  0.00    +0.000 C 
ATOM     23  C   UNL     1       2.945   3.063  19.808  0.00  0.00    +0.000 C 
ATOM     24  C   UNL     1       4.140   2.188  20.140  0.00  0.00    +0.000 C 
ENDROOT
TORSDOF 0
ENDMDL
MODEL 2
REMARK VINA RESULT:      -7.6      5.290      8.172
REMARK  Name = 
REMARK  4 active torsions:
REMARK  status: ('A' for Active; 'I' for Inactive)
REMARK    1  A    between atoms: C_1  and  C_2
REMARK    2  A    between atoms: C_18  and  C_19
REMARK    3  A    between atoms: C_18  and  C_20
REMARK    4  A    between atoms: C_23  and  C_24
REMARK                            x       y       z     vdW  Elec       q    Type
REMARK                         _______ _______ _______ _____ _____    ______ ____
ROOT
ATOM      1  C   UNL     1      -3.558   9.994  14.349  0.00  0.00    +0.000 C 
ATOM      2  C   UNL     1      -3.110  10.357  15.711  0.00  0.00    +0.000 A 
ATOM      3  N   UNL     1      -1.965  10.092  16.319  0.00  0.00    +0.000 NA
ATOM      4  C   UNL     1      -2.113  10.732  17.509  0.00  0.00    +0.000 A 
ATOM      5  C   UNL     1      -1.249  10.802  18.645  0.00  0.00    +0.000 A 
ATOM      6  C   UNL     1      -1.691  11.588  19.695  0.00  0.00    +0.000 A 
ATOM      7  C   UNL     1      -2.958  12.130  19.841  0.00  0.00    +0.000 A 
ATOM      8  C   UNL     1      -3.307  12.610  21.099  0.00  0.00    +0.000 A 
ATOM      9  C   UNL     1      -4.627  12.885  21.367  0.00  0.00    +0.000 A 
ATOM     10  C   UNL     1      -5.617  12.819  20.369  0.00  0.00    +0.000 A 
ATOM     11  C   UNL     1      -5.244  12.428  19.053  0.00  0.00    +0.000 A 
ATOM     12  C   UNL     1      -3.887  11.990  18.797  0.00  0.00    +0.000 A 
ATOM     13  C   UNL     1      -3.358  11.329  17.646  0.00  0.00    +0.000 A 
ATOM     14  O   UNL     1      -4.010  11.072  16.461  0.00  0.00    +0.000 OA
ATOM     15  C   UNL     1      -6.306  12.342  17.986  0.00  0.00    +0.000 C 
ATOM     16  C   UNL     1      -7.496  13.279  18.175  0.00  0.00    +0.000 C 
ATOM     17  C   UNL     1      -7.906  13.643  19.598  0.00  0.00    +0.000 C 
ATOM     18  C   UNL     1      -7.072  13.072  20.761  0.00  0.00    +0.000 C 
ATOM     19  C   UNL     1      -7.701  11.749  21.255  0.00  0.00    +0.000 C 
ATOM     20  C   UNL     1      -7.175  14.092  21.929  0.00  0.00    +0.000 C 
ATOM     21  O   UNL     1      -0.754  11.637  20.724  0.00  0.00    +0.000 OA
ATOM     22  C   UNL     1       0.032  10.442  20.531  0.00  0.00    +0.000 C 
ATOM     23  C   UNL     1      -0.066  10.002  19.041  0.00  0.00    +0.000 C 
ATOM     24  C   UNL     1       1.254  10.211  18.321  0.00  0.00    +0.000 C 
ENDROOT
TORSDOF 0
ENDMDL
MODEL 3
REMARK VINA RESULT:      -7.4      1.296      3.883
REMARK  Name = 
REMARK  4 active torsions:
REMARK  status: ('A' for Active; 'I' for Inactive)
REMARK    1  A    between atoms: C_1  and  C_2
REMARK    2  A    between atoms: C_18  and  C_19
REMARK    3  A    between atoms: C_18  and  C_20
REMARK    4  A    between atoms: C_23  and  C_24
REMARK                            x       y       z     vdW  Elec       q    Type
REMARK                         _______ _______ _______ _____ _____    ______ ____
ROOT
ATOM      1  C   UNL     1       2.213   3.285  21.947  0.00  0.00    +0.000 C 
ATOM      2  C   UNL     1       2.582   4.208  20.851  0.00  0.00    +0.000 A 
ATOM      3  N   UNL     1       3.474   4.055  19.888  0.00  0.00    +0.000 NA
ATOM      4  C   UNL     1       3.314   5.193  19.159  0.00  0.00    +0.000 A 
ATOM      5  C   UNL     1       4.009   5.668  18.005  0.00  0.00    +0.000 A 
ATOM      6  C   UNL     1       3.560   6.866  17.478  0.00  0.00    +0.000 A 
ATOM      7  C   UNL     1       2.661   7.740  18.069  0.00  0.00    +0.000 A 
ATOM      8  C   UNL     1       2.583   9.026  17.545  0.00  0.00    +0.000 A 
ATOM      9  C   UNL     1       1.934  10.002  18.264  0.00  0.00    +0.000 A 
ATOM     10  C   UNL     1       1.237   9.711  19.452  0.00  0.00    +0.000 A 
ATOM     11  C   UNL     1       1.229   8.374  19.936  0.00  0.00    +0.000 A 
ATOM     12  C   UNL     1       2.034   7.369  19.269  0.00  0.00    +0.000 A 
ATOM     13  C   UNL     1       2.375   6.053  19.709  0.00  0.00    +0.000 A 
ATOM     14  O   UNL     1       1.902   5.401  20.826  0.00  0.00    +0.000 OA
ATOM     15  C   UNL     1       0.496   8.062  21.215  0.00  0.00    +0.000 C 
ATOM     16  C   UNL     1      -0.689   8.972  21.524  0.00  0.00    +0.000 C 
ATOM     17  C   UNL     1      -0.634  10.417  21.038  0.00  0.00    +0.000 C 
ATOM     18  C   UNL     1       0.601  10.862  20.230  0.00  0.00    +0.000 C 
ATOM     19  C   UNL     1       1.655  11.474  21.182  0.00  0.00    +0.000 C 
ATOM     20  C   UNL     1       0.129  11.996  19.279  0.00  0.00    +0.000 C 
ATOM     21  O   UNL     1       4.261   7.210  16.325  0.00  0.00    +0.000 OA
ATOM     22  C   UNL     1       5.505   6.490  16.453  0.00  0.00    +0.000 C 
ATOM     23  C   UNL     1       5.291   5.261  17.383  0.00  0.00    +0.000 C 
ATOM     24  C   UNL     1       5.364   3.963  16.601  0.00  0.00    +0.000 C 
ENDROOT
TORSDOF 0
ENDMDL
MODEL 4
REMARK VINA RESULT:      -7.1      4.428      7.502
REMARK  Name = 
REMARK  4 active torsions:
REMARK  status: ('A' for Active; 'I' for Inactive)
REMARK    1  A    between atoms: C_1  and  C_2
REMARK    2  A    between atoms: C_18  and  C_19
REMARK    3  A    between atoms: C_18  and  C_20
REMARK    4  A    between atoms: C_23  and  C_24
REMARK                            x       y       z     vdW  Elec       q    Type
REMARK                         _______ _______ _______ _____ _____    ______ ____
ROOT
ATOM      1  C   UNL     1      -4.179  11.137  16.162  0.00  0.00    +0.000 C 
ATOM      2  C   UNL     1      -3.184  11.114  17.257  0.00  0.00    +0.000 A 
ATOM      3  N   UNL     1      -2.044  10.448  17.343  0.00  0.00    +0.000 NA
ATOM      4  C   UNL     1      -1.546  10.878  18.534  0.00  0.00    +0.000 A 
ATOM      5  C   UNL     1      -0.359  10.508  19.237  0.00  0.00    +0.000 A 
ATOM      6  C   UNL     1      -0.123  11.179  20.424  0.00  0.00    +0.000 A 
ATOM      7  C   UNL     1      -1.013  12.005  21.092  0.00  0.00    +0.000 A 
ATOM      8  C   UNL     1      -0.718  12.324  22.414  0.00  0.00    +0.000 A 
ATOM      9  C   UNL     1      -1.695  12.889  23.199  0.00  0.00    +0.000 A 
ATOM     10  C   UNL     1      -2.943  13.272  22.673  0.00  0.00    +0.000 A 
ATOM     11  C   UNL     1      -3.209  13.040  21.295  0.00  0.00    +0.000 A 
ATOM     12  C   UNL     1      -2.247  12.309  20.495  0.00  0.00    +0.000 A 
ATOM     13  C   UNL     1      -2.402  11.751  19.189  0.00  0.00    +0.000 A 
ATOM     14  O   UNL     1      -3.480  11.896  18.345  0.00  0.00    +0.000 OA
ATOM     15  C   UNL     1      -4.551  13.436  20.732  0.00  0.00    +0.000 C 
ATOM     16  C   UNL     1      -5.233  14.606  21.435  0.00  0.00    +0.000 C 
ATOM     17  C   UNL     1      -4.969  14.802  22.925  0.00  0.00    +0.000 C 
ATOM     18  C   UNL     1      -4.001  13.828  23.624  0.00  0.00    +0.000 C 
ATOM     19  C   UNL     1      -4.796  12.654  24.241  0.00  0.00    +0.000 C 
ATOM     20  C   UNL     1      -3.352  14.610  24.799  0.00  0.00    +0.000 C 
ATOM     21  O   UNL     1       1.084  10.789  20.999  0.00  0.00    +0.000 OA
ATOM     22  C   UNL     1       1.326   9.483  20.435  0.00  0.00    +0.000 C 
ATOM     23  C   UNL     1       0.569   9.363  19.081  0.00  0.00    +0.000 C 
ATOM     24  C   UNL     1       1.537   9.339  17.912  0.00  0.00    +0.000 C 
ENDROOT
TORSDOF 0
ENDMDL
MODEL 5
REMARK VINA RESULT:      -7.0      4.897      7.845
REMARK  Name = 
REMARK  4 active torsions:
REMARK  status: ('A' for Active; 'I' for Inactive)
REMARK    1  A    between atoms: C_1  and  C_2
REMARK    2  A    between atoms: C_18  and  C_19
REMARK    3  A    between atoms: C_18  and  C_20
REMARK    4  A    between atoms: C_23  and  C_24
REMARK                            x       y       z     vdW  Elec       q    Type
REMARK                         _______ _______ _______ _____ _____    ______ ____
ROOT
ATOM      1  C   UNL     1      -3.770  10.391  15.194  0.00  0.00    +0.000 C 
ATOM      2  C   UNL     1      -3.080  10.648  16.477  0.00  0.00    +0.000 A 
ATOM      3  N   UNL     1      -1.904  10.215  16.901  0.00  0.00    +0.000 NA
ATOM      4  C   UNL     1      -1.786  10.831  18.108  0.00  0.00    +0.000 A 
ATOM      5  C   UNL     1      -0.762  10.749  19.101  0.00  0.00    +0.000 A 
ATOM      6  C   UNL     1      -0.934  11.552  20.216  0.00  0.00    +0.000 A 
ATOM      7  C   UNL     1      -2.080  12.252  20.557  0.00  0.00    +0.000 A 
ATOM      8  C   UNL     1      -2.171  12.733  21.859  0.00  0.00    +0.000 A 
ATOM      9  C   UNL     1      -3.388  13.171  22.327  0.00  0.00    +0.000 A 
ATOM     10  C   UNL     1      -4.515  13.268  21.489  0.00  0.00    +0.000 A 
ATOM     11  C   UNL     1      -4.397  12.874  20.128  0.00  0.00    +0.000 A 
ATOM     12  C   UNL     1      -3.164  12.269  19.664  0.00  0.00    +0.000 A 
ATOM     13  C   UNL     1      -2.905  11.582  18.439  0.00  0.00    +0.000 A 
ATOM     14  O   UNL     1      -3.754  11.451  17.362  0.00  0.00    +0.000 OA
ATOM     15  C   UNL     1      -5.607  12.962  19.233  0.00  0.00    +0.000 C 
ATOM     16  C   UNL     1      -6.618  14.041  19.610  0.00  0.00    +0.000 C 
ATOM     17  C   UNL     1      -6.760  14.410  21.083  0.00  0.00    +0.000 C 
ATOM     18  C   UNL     1      -5.848  13.697  22.100  0.00  0.00    +0.000 C 
ATOM     19  C   UNL     1      -6.570  12.453  22.667  0.00  0.00    +0.000 C 
ATOM     20  C   UNL     1      -5.638  14.684  23.281  0.00  0.00    +0.000 C 
ATOM     21  O   UNL     1       0.143  11.445  21.092  0.00  0.00    +0.000 OA
ATOM     22  C   UNL     1       0.723  10.164  20.767  0.00  0.00    +0.000 C 
ATOM     23  C   UNL     1       0.347   9.789  19.304  0.00  0.00    +0.000 C 
ATOM     24  C   UNL     1       1.562   9.845  18.396  0.00  0.00    +0.000 C 
ENDROOT
TORSDOF 0
ENDMDL
MODEL 6
REMARK VINA RESULT:      -6.9      6.993     10.333
REMARK  Name = 
REMARK  4 active torsions:
REMARK  status: ('A' for Active; 'I' for Inactive)
REMARK    1  A    between atoms: C_1  and  C_2
REMARK    2  A    between atoms: C_18  and  C_19
REMARK    3  A    between atoms: C_18  and  C_20
REMARK    4  A    between atoms: C_23  and  C_24
REMARK                            x       y       z     vdW  Elec       q    Type
REMARK                         _______ _______ _______ _____ _____    ______ ____
ROOT
ATOM      1  C   UNL     1      -1.687  14.931  24.660  0.00  0.00    +0.000 C 
ATOM      2  C   UNL     1      -2.803  14.338  23.889  0.00  0.00    +0.000 A 
ATOM      3  N   UNL     1      -4.049  14.102  24.261  0.00  0.00    +0.000 NA
ATOM      4  C   UNL     1      -4.607  13.618  23.119  0.00  0.00    +0.000 A 
ATOM      5  C   UNL     1      -5.924  13.131  22.857  0.00  0.00    +0.000 A 
ATOM      6  C   UNL     1      -6.180  12.747  21.552  0.00  0.00    +0.000 A 
ATOM      7  C   UNL     1      -5.244  12.589  20.543  0.00  0.00    +0.000 A 
ATOM      8  C   UNL     1      -5.641  11.893  19.406  0.00  0.00    +0.000 A 
ATOM      9  C   UNL     1      -4.685  11.462  18.517  0.00  0.00    +0.000 A 
ATOM     10  C   UNL     1      -3.329  11.814  18.655  0.00  0.00    +0.000 A 
ATOM     11  C   UNL     1      -2.935  12.614  19.763  0.00  0.00    +0.000 A 
ATOM     12  C   UNL     1      -3.907  12.945  20.785  0.00  0.00    +0.000 A 
ATOM     13  C   UNL     1      -3.693  13.508  22.081  0.00  0.00    +0.000 A 
ATOM     14  O   UNL     1      -2.506  13.978  22.599  0.00  0.00    +0.000 OA
ATOM     15  C   UNL     1      -1.481  12.980  19.921  0.00  0.00    +0.000 C 
ATOM     16  C   UNL     1      -0.686  13.065  18.621  0.00  0.00    +0.000 C 
ATOM     17  C   UNL     1      -1.098  12.160  17.465  0.00  0.00    +0.000 C 
ATOM     18  C   UNL     1      -2.317  11.239  17.666  0.00  0.00    +0.000 C 
ATOM     19  C   UNL     1      -1.848   9.853  18.168  0.00  0.00    +0.000 C 
ATOM     20  C   UNL     1      -2.953  11.027  16.264  0.00  0.00    +0.000 C 
ATOM     21  O   UNL     1      -7.503  12.346  21.388  0.00  0.00    +0.000 OA
ATOM     22  C   UNL     1      -7.915  11.973  22.720  0.00  0.00    +0.000 C 
ATOM     23  C   UNL     1      -7.025  12.718  23.758  0.00  0.00    +0.000 C 
ATOM     24  C   UNL     1      -7.820  13.774  24.503  0.00  0.00    +0.000 C 
ENDROOT
TORSDOF 0
ENDMDL
MODEL 7
REMARK VINA RESULT:      -6.8      2.498      6.010
REMARK  Name = 
REMARK  4 active torsions:
REMARK  status: ('A' for Active; 'I' for Inactive)
REMARK    1  A    between atoms: C_1  and  C_2
REMARK    2  A    between atoms: C_18  and  C_19
REMARK    3  A    between atoms: C_18  and  C_20
REMARK    4  A    between atoms: C_23  and  C_24
REMARK                            x       y       z     vdW  Elec       q    Type
REMARK                         _______ _______ _______ _____ _____    ______ ____
ROOT
ATOM      1  C   UNL     1       2.275  13.023  17.794  0.00  0.00    +0.000 C 
ATOM      2  C   UNL     1       1.789  11.959  18.700  0.00  0.00    +0.000 A 
ATOM      3  N   UNL     1       1.038  12.056  19.785  0.00  0.00    +0.000 NA
ATOM      4  C   UNL     1       0.873  10.754  20.142  0.00  0.00    +0.000 A 
ATOM      5  C   UNL     1       0.197  10.171  21.257  0.00  0.00    +0.000 A 
ATOM      6  C   UNL     1       0.182   8.787  21.300  0.00  0.00    +0.000 A 
ATOM      7  C   UNL     1       0.923   7.931  20.502  0.00  0.00    +0.000 A 
ATOM      8  C   UNL     1       1.018   6.603  20.905  0.00  0.00    +0.000 A 
ATOM      9  C   UNL     1       1.963   5.793  20.321  0.00  0.00    +0.000 A 
ATOM     10  C   UNL     1       2.749   6.229  19.238  0.00  0.00    +0.000 A 
ATOM     11  C   UNL     1       2.580   7.556  18.755  0.00  0.00    +0.000 A 
ATOM     12  C   UNL     1       1.698   8.465  19.459  0.00  0.00    +0.000 A 
ATOM     13  C   UNL     1       1.564   9.880  19.316  0.00  0.00    +0.000 A 
ATOM     14  O   UNL     1       2.169  10.682  18.373  0.00  0.00    +0.000 OA
ATOM     15  C   UNL     1       3.431   8.030  17.605  0.00  0.00    +0.000 C 
ATOM     16  C   UNL     1       3.888   6.939  16.640  0.00  0.00    +0.000 C 
ATOM     17  C   UNL     1       4.110   5.536  17.194  0.00  0.00    +0.000 C 
ATOM     18  C   UNL     1       3.825   5.293  18.689  0.00  0.00    +0.000 C 
ATOM     19  C   UNL     1       5.124   5.480  19.506  0.00  0.00    +0.000 C 
ATOM     20  C   UNL     1       3.405   3.804  18.828  0.00  0.00    +0.000 C 
ATOM     21  O   UNL     1      -0.549   8.319  22.389  0.00  0.00    +0.000 OA
ATOM     22  C   UNL     1      -0.528   9.425  23.317  0.00  0.00    +0.000 C 
ATOM     23  C   UNL     1      -0.294  10.747  22.530  0.00  0.00    +0.000 C 
ATOM     24  C   UNL     1      -1.542  11.611  22.528  0.00  0.00    +0.000 C 
ENDROOT
TORSDOF 0
ENDMDL
MODEL 8
REMARK VINA RESULT:      -6.6      5.693      8.598
REMARK  Name = 
REMARK  4 active torsions:
REMARK  status: ('A' for Active; 'I' for Inactive)
REMARK    1  A    between atoms: C_1  and  C_2
REMARK    2  A    between atoms: C_18  and  C_19
REMARK    3  A    between atoms: C_18  and  C_20
REMARK    4  A    between atoms: C_23  and  C_24
REMARK                            x       y       z     vdW  Elec       q    Type
REMARK                         _______ _______ _______ _____ _____    ______ ____
ROOT
ATOM      1  C   UNL     1      -3.656  10.793  15.475  0.00  0.00    +0.000 C 
ATOM      2  C   UNL     1      -3.150  11.126  16.825  0.00  0.00    +0.000 A 
ATOM      3  N   UNL     1      -1.953  10.920  17.349  0.00  0.00    +0.000 NA
ATOM      4  C   UNL     1      -2.070  11.493  18.577  0.00  0.00    +0.000 A 
ATOM      5  C   UNL     1      -1.143  11.576  19.661  0.00  0.00    +0.000 A 
ATOM      6  C   UNL     1      -1.573  12.278  20.773  0.00  0.00    +0.000 A 
ATOM      7  C   UNL     1      -2.863  12.718  21.021  0.00  0.00    +0.000 A 
ATOM      8  C   UNL     1      -3.166  13.114  22.319  0.00  0.00    +0.000 A 
ATOM      9  C   UNL     1      -4.483  13.278  22.679  0.00  0.00    +0.000 A 
ATOM     10  C   UNL     1      -5.527  13.184  21.740  0.00  0.00    +0.000 A 
ATOM     11  C   UNL     1      -5.211  12.881  20.387  0.00  0.00    +0.000 A 
ATOM     12  C   UNL     1      -3.845  12.557  20.029  0.00  0.00    +0.000 A 
ATOM     13  C   UNL     1      -3.343  11.990  18.817  0.00  0.00    +0.000 A 
ATOM     14  O   UNL     1      -4.049  11.738  17.661  0.00  0.00    +0.000 OA
ATOM     15  C   UNL     1      -6.329  12.765  19.383  0.00  0.00    +0.000 C 
ATOM     16  C   UNL     1      -7.568  13.601  19.688  0.00  0.00    +0.000 C 
ATOM     17  C   UNL     1      -7.913  13.869  21.150  0.00  0.00    +0.000 C 
ATOM     18  C   UNL     1      -6.968  13.310  22.231  0.00  0.00    +0.000 C 
ATOM     19  C   UNL     1      -7.469  11.923  22.696  0.00  0.00    +0.000 C 
ATOM     20  C   UNL     1      -7.069  14.266  23.452  0.00  0.00    +0.000 C 
ATOM     21  O   UNL     1      -0.579  12.351  21.745  0.00  0.00    +0.000 OA
ATOM     22  C   UNL     1       0.276  11.227  21.446  0.00  0.00    +0.000 C 
ATOM     23  C   UNL     1       0.116  10.849  19.945  0.00  0.00    +0.000 C 
ATOM     24  C   UNL     1       1.369  11.188  19.159  0.00  0.00    +0.000 C 
ENDROOT
TORSDOF 0
ENDMDL
MODEL 9
REMARK VINA RESULT:      -6.6      9.419     11.108
REMARK  Name = 
REMARK  4 active torsions:
REMARK  status: ('A' for Active; 'I' for Inactive)
REMARK    1  A    between atoms: C_1  and  C_2
REMARK    2  A    between atoms: C_18  and  C_19
REMARK    3  A    between atoms: C_18  and  C_20
REMARK    4  A    between atoms: C_23  and  C_24
REMARK                            x       y       z     vdW  Elec       q    Type
REMARK                         _______ _______ _______ _____ _____    ______ ____
ROOT
ATOM      1  C   UNL     1      11.005  18.414  19.885  0.00  0.00    +0.000 C 
ATOM      2  C   UNL     1      10.833  16.946  19.813  0.00  0.00    +0.000 A 
ATOM      3  N   UNL     1      11.134  16.111  18.832  0.00  0.00    +0.000 NA
ATOM      4  C   UNL     1      10.813  14.904  19.370  0.00  0.00    +0.000 A 
ATOM      5  C   UNL     1      10.859  13.591  18.808  0.00  0.00    +0.000 A 
ATOM      6  C   UNL     1      10.497  12.557  19.655  0.00  0.00    +0.000 A 
ATOM      7  C   UNL     1       9.902  12.683  20.900  0.00  0.00    +0.000 A 
ATOM      8  C   UNL     1       9.324  11.544  21.450  0.00  0.00    +0.000 A 
ATOM      9  C   UNL     1       8.482  11.676  22.529  0.00  0.00    +0.000 A 
ATOM     10  C   UNL     1       8.287  12.912  23.173  0.00  0.00    +0.000 A 
ATOM     11  C   UNL     1       8.959  14.062  22.675  0.00  0.00    +0.000 A 
ATOM     12  C   UNL     1       9.728  13.964  21.450  0.00  0.00    +0.000 A 
ATOM     13  C   UNL     1      10.268  15.011  20.641  0.00  0.00    +0.000 A 
ATOM     14  O   UNL     1      10.279  16.359  20.923  0.00  0.00    +0.000 OA
ATOM     15  C   UNL     1       8.740  15.390  23.353  0.00  0.00    +0.000 C 
ATOM     16  C   UNL     1       8.399  15.313  24.839  0.00  0.00    +0.000 C 
ATOM     17  C   UNL     1       7.634  14.093  25.339  0.00  0.00    +0.000 C 
ATOM     18  C   UNL     1       7.281  12.991  24.321  0.00  0.00    +0.000 C 
ATOM     19  C   UNL     1       5.870  13.246  23.742  0.00  0.00    +0.000 C 
ATOM     20  C   UNL     1       7.218  11.655  25.111  0.00  0.00    +0.000 C 
ATOM     21  O   UNL     1      10.632  11.318  19.033  0.00  0.00    +0.000 OA
ATOM     22  C   UNL     1      10.563  11.632  17.626  0.00  0.00    +0.000 C 
ATOM     23  C   UNL     1      10.984  13.114  17.411  0.00  0.00    +0.000 C 
ATOM     24  C   UNL     1      12.326  13.205  16.707  0.00  0.00    +0.000 C 
ENDROOT
TORSDOF 0
ENDMDL
