MODEL 1
REMARK VINA RESULT:      -6.7      0.000      0.000
REMARK  Name = 
REMARK  5 active torsions:
REMARK  status: ('A' for Active; 'I' for Inactive)
REMARK    1  A    between atoms: C_1  and  O_2
REMARK    2  A    between atoms: O_2  and  C_3
REMARK    3  A    between atoms: C_8  and  N_9
REMARK    4  A    between atoms: C_10  and  S_11
REMARK    5  A    between atoms: C_10  and  C_12
REMARK                            x       y       z     vdW  Elec       q    Type
REMARK                         _______ _______ _______ _____ _____    ______ ____
ROOT
ATOM      1  N   UNL     1       4.463   3.667  17.536  0.00  0.00    +0.000 NA
ATOM      2  C   UNL     1       3.676   4.435  18.230  0.00  0.00    +0.000 C 
ENDROOT
BRANCH   1   8
ATOM      3  C   UNL     1       6.698   4.468  16.862  0.00  0.00    +0.000 A 
ATOM      4  C   UNL     1       7.585   4.869  15.845  0.00  0.00    +0.000 A 
ATOM      5  C   UNL     1       7.183   4.917  14.514  0.00  0.00    +0.000 A 
ATOM      6  C   UNL     1       5.909   4.491  14.176  0.00  0.00    +0.000 A 
ATOM      7  C   UNL     1       5.041   4.030  15.172  0.00  0.00    +0.000 A 
ATOM      8  C   UNL     1       5.376   4.080  16.539  0.00  0.00    +0.000 A 
BRANCH   3  10
ATOM      9  C   UNL     1       7.405   5.704  18.786  0.00  0.00    +0.000 C 
ATOM     10  O   UNL     1       7.312   4.474  18.088  0.00  0.00    +0.000 OA
ENDBRANCH   3  10
ENDBRANCH   1   8
BRANCH   2  11
ATOM     11  C   UNL     1       2.836   3.821  19.330  0.00  0.00    +0.000 A 
ATOM     12  C   UNL     1       1.440   3.993  19.397  0.00  0.00    +0.000 A 
ATOM     13  C   UNL     1       0.698   3.467  20.455  0.00  0.00    +0.000 A 
ATOM     14  C   UNL     1       1.335   2.759  21.470  0.00  0.00    +0.000 A 
ATOM     15  C   UNL     1       2.717   2.578  21.422  0.00  0.00    +0.000 A 
ATOM     16  C   UNL     1       3.461   3.101  20.355  0.00  0.00    +0.000 A 
ENDBRANCH   2  11
BRANCH   2  17
ATOM     17  S   UNL     1       3.505   6.184  18.048  0.00  0.00    +0.000 S 
ATOM     18  H   UNL     1       3.613   6.222  16.716  0.00  0.00    +0.000 HD
ENDBRANCH   2  17
TORSDOF 4
ENDMDL
MODEL 2
REMARK VINA RESULT:      -6.7      0.094      1.171
REMARK  Name = 
REMARK  5 active torsions:
REMARK  status: ('A' for Active; 'I' for Inactive)
REMARK    1  A    between atoms: C_1  and  O_2
REMARK    2  A    between atoms: O_2  and  C_3
REMARK    3  A    between atoms: C_8  and  N_9
REMARK    4  A    between atoms: C_10  and  S_11
REMARK    5  A    between atoms: C_10  and  C_12
REMARK                            x       y       z     vdW  Elec       q    Type
REMARK                         _______ _______ _______ _____ _____    ______ ____
ROOT
ATOM      1  N   UNL     1       4.508   3.725  17.613  0.00  0.00    +0.000 NA
ATOM      2  C   UNL     1       3.728   4.511  18.296  0.00  0.00    +0.000 C 
ENDROOT
BRANCH   1   8
ATOM      3  C   UNL     1       6.735   4.480  16.866  0.00  0.00    +0.000 A 
ATOM      4  C   UNL     1       7.600   4.853  15.819  0.00  0.00    +0.000 A 
ATOM      5  C   UNL     1       7.162   4.890  14.500  0.00  0.00    +0.000 A 
ATOM      6  C   UNL     1       5.871   4.480  14.203  0.00  0.00    +0.000 A 
ATOM      7  C   UNL     1       5.025   4.047  15.230  0.00  0.00    +0.000 A 
ATOM      8  C   UNL     1       5.399   4.109  16.586  0.00  0.00    +0.000 A 
BRANCH   3  10
ATOM      9  C   UNL     1       7.497   5.725  18.763  0.00  0.00    +0.000 C 
ATOM     10  O   UNL     1       7.384   4.492  18.075  0.00  0.00    +0.000 OA
ENDBRANCH   3  10
ENDBRANCH   1   8
BRANCH   2  11
ATOM     11  C   UNL     1       2.914   3.929  19.432  0.00  0.00    +0.000 A 
ATOM     12  C   UNL     1       3.485   3.117  20.430  0.00  0.00    +0.000 A 
ATOM     13  C   UNL     1       2.700   2.543  21.431  0.00  0.00    +0.000 A 
ATOM     14  C   UNL     1       1.327   2.770  21.456  0.00  0.00    +0.000 A 
ATOM     15  C   UNL     1       0.742   3.572  20.477  0.00  0.00    +0.000 A 
ATOM     16  C   UNL     1       1.532   4.152  19.474  0.00  0.00    +0.000 A 
ENDBRANCH   2  11
BRANCH   2  17
ATOM     17  S   UNL     1       3.543   6.252  18.058  0.00  0.00    +0.000 S 
ATOM     18  H   UNL     1       3.491   6.589  19.350  0.00  0.00    +0.000 HD
ENDBRANCH   2  17
TORSDOF 4
ENDMDL
MODEL 3
REMARK VINA RESULT:      -6.6      1.516      6.189
REMARK  Name = 
REMARK  5 active torsions:
REMARK  status: ('A' for Active; 'I' for Inactive)
REMARK    1  A    between atoms: C_1  and  O_2
REMARK    2  A    between atoms: O_2  and  C_3
REMARK    3  A    between atoms: C_8  and  N_9
REMARK    4  A    between atoms: C_10  and  S_11
REMARK    5  A    between atoms: C_10  and  C_12
REMARK                            x       y       z     vdW  Elec       q    Type
REMARK                         _______ _______ _______ _____ _____    ______ ____
ROOT
ATOM      1  N   UNL     1       4.613   3.805  16.343  0.00  0.00    +0.000 NA
ATOM      2  C   UNL     1       5.161   4.800  15.710  0.00  0.00    +0.000 C 
ENDROOT
BRANCH   1   8
ATOM      3  C   UNL     1       4.358   3.949  18.794  0.00  0.00    +0.000 A 
ATOM      4  C   UNL     1       3.520   4.035  19.921  0.00  0.00    +0.000 A 
ATOM      5  C   UNL     1       2.135   4.036  19.793  0.00  0.00    +0.000 A 
ATOM      6  C   UNL     1       1.573   4.027  18.526  0.00  0.00    +0.000 A 
ATOM      7  C   UNL     1       2.400   4.006  17.397  0.00  0.00    +0.000 A 
ATOM      8  C   UNL     1       3.799   3.887  17.495  0.00  0.00    +0.000 A 
BRANCH   3  10
ATOM      9  C   UNL     1       6.291   5.255  19.330  0.00  0.00    +0.000 C 
ATOM     10  O   UNL     1       5.682   3.989  19.153  0.00  0.00    +0.000 OA
ENDBRANCH   3  10
ENDBRANCH   1   8
BRANCH   2  11
ATOM     11  C   UNL     1       5.920   4.526  14.429  0.00  0.00    +0.000 A 
ATOM     12  C   UNL     1       7.131   5.174  14.118  0.00  0.00    +0.000 A 
ATOM     13  C   UNL     1       7.779   4.947  12.902  0.00  0.00    +0.000 A 
ATOM     14  C   UNL     1       7.230   4.070  11.972  0.00  0.00    +0.000 A 
ATOM     15  C   UNL     1       6.032   3.418  12.262  0.00  0.00    +0.000 A 
ATOM     16  C   UNL     1       5.384   3.641  13.486  0.00  0.00    +0.000 A 
ENDBRANCH   2  11
BRANCH   2  17
ATOM     17  S   UNL     1       5.077   6.502  16.179  0.00  0.00    +0.000 S 
ATOM     18  H   UNL     1       3.746   6.585  16.258  0.00  0.00    +0.000 HD
ENDBRANCH   2  17
TORSDOF 4
ENDMDL
MODEL 4
REMARK VINA RESULT:      -6.5      1.504      6.125
REMARK  Name = 
REMARK  5 active torsions:
REMARK  status: ('A' for Active; 'I' for Inactive)
REMARK    1  A    between atoms: C_1  and  O_2
REMARK    2  A    between atoms: O_2  and  C_3
REMARK    3  A    between atoms: C_8  and  N_9
REMARK    4  A    between atoms: C_10  and  S_11
REMARK    5  A    between atoms: C_10  and  C_12
REMARK                            x       y       z     vdW  Elec       q    Type
REMARK                         _______ _______ _______ _____ _____    ______ ____
ROOT
ATOM      1  N   UNL     1       4.579   3.811  16.325  0.00  0.00    +0.000 NA
ATOM      2  C   UNL     1       5.119   4.811  15.693  0.00  0.00    +0.000 C 
ENDROOT
BRANCH   1   8
ATOM      3  C   UNL     1       4.421   3.944  18.785  0.00  0.00    +0.000 A 
ATOM      4  C   UNL     1       3.628   4.017  19.946  0.00  0.00    +0.000 A 
ATOM      5  C   UNL     1       2.239   4.004  19.873  0.00  0.00    +0.000 A 
ATOM      6  C   UNL     1       1.627   3.994  18.629  0.00  0.00    +0.000 A 
ATOM      7  C   UNL     1       2.408   3.985  17.468  0.00  0.00    +0.000 A 
ATOM      8  C   UNL     1       3.811   3.880  17.510  0.00  0.00    +0.000 A 
BRANCH   3  10
ATOM      9  C   UNL     1       6.331   5.259  19.380  0.00  0.00    +0.000 C 
ATOM     10  O   UNL     1       5.758   3.996  19.091  0.00  0.00    +0.000 OA
ENDBRANCH   3  10
ENDBRANCH   1   8
BRANCH   2  11
ATOM     11  C   UNL     1       5.824   4.553  14.379  0.00  0.00    +0.000 A 
ATOM     12  C   UNL     1       5.323   3.652  13.420  0.00  0.00    +0.000 A 
ATOM     13  C   UNL     1       6.025   3.387  12.242  0.00  0.00    +0.000 A 
ATOM     14  C   UNL     1       7.242   4.016  11.999  0.00  0.00    +0.000 A 
ATOM     15  C   UNL     1       7.755   4.912  12.937  0.00  0.00    +0.000 A 
ATOM     16  C   UNL     1       7.047   5.183  14.117  0.00  0.00    +0.000 A 
ENDBRANCH   2  11
BRANCH   2  17
ATOM     17  S   UNL     1       5.082   6.503  16.202  0.00  0.00    +0.000 S 
ATOM     18  H   UNL     1       4.541   6.998  15.085  0.00  0.00    +0.000 HD
ENDBRANCH   2  17
TORSDOF 4
ENDMDL
MODEL 5
REMARK VINA RESULT:      -6.4      3.199      3.731
REMARK  Name = 
REMARK  5 active torsions:
REMARK  status: ('A' for Active; 'I' for Inactive)
REMARK    1  A    between atoms: C_1  and  O_2
REMARK    2  A    between atoms: O_2  and  C_3
REMARK    3  A    between atoms: C_8  and  N_9
REMARK    4  A    between atoms: C_10  and  S_11
REMARK    5  A    between atoms: C_10  and  C_12
REMARK                            x       y       z     vdW  Elec       q    Type
REMARK                         _______ _______ _______ _____ _____    ______ ____
ROOT
ATOM      1  N   UNL     1       4.357   6.992  17.496  0.00  0.00    +0.000 NA
ATOM      2  C   UNL     1       3.227   6.645  18.040  0.00  0.00    +0.000 C 
ENDROOT
BRANCH   1   8
ATOM      3  C   UNL     1       6.278   5.444  17.558  0.00  0.00    +0.000 A 
ATOM      4  C   UNL     1       7.172   4.595  16.877  0.00  0.00    +0.000 A 
ATOM      5  C   UNL     1       7.110   4.438  15.497  0.00  0.00    +0.000 A 
ATOM      6  C   UNL     1       6.100   5.071  14.789  0.00  0.00    +0.000 A 
ATOM      7  C   UNL     1       5.167   5.865  15.465  0.00  0.00    +0.000 A 
ATOM      8  C   UNL     1       5.273   6.138  16.842  0.00  0.00    +0.000 A 
BRANCH   3  10
ATOM      9  C   UNL     1       7.810   5.737  19.373  0.00  0.00    +0.000 C 
ATOM     10  O   UNL     1       6.507   5.427  18.910  0.00  0.00    +0.000 OA
ENDBRANCH   3  10
ENDBRANCH   1   8
BRANCH   2  11
ATOM     11  C   UNL     1       2.326   7.721  18.607  0.00  0.00    +0.000 A 
ATOM     12  C   UNL     1       1.877   8.811  17.837  0.00  0.00    +0.000 A 
ATOM     13  C   UNL     1       1.096   9.821  18.402  0.00  0.00    +0.000 A 
ATOM     14  C   UNL     1       0.749   9.763  19.748  0.00  0.00    +0.000 A 
ATOM     15  C   UNL     1       1.184   8.692  20.528  0.00  0.00    +0.000 A 
ATOM     16  C   UNL     1       1.963   7.675  19.959  0.00  0.00    +0.000 A 
ENDBRANCH   2  11
BRANCH   2  17
ATOM     17  S   UNL     1       2.592   5.000  18.156  0.00  0.00    +0.000 S 
ATOM     18  H   UNL     1       2.046   4.949  16.937  0.00  0.00    +0.000 HD
ENDBRANCH   2  17
TORSDOF 4
ENDMDL
MODEL 6
REMARK VINA RESULT:      -6.3      2.147      6.424
REMARK  Name = 
REMARK  5 active torsions:
REMARK  status: ('A' for Active; 'I' for Inactive)
REMARK    1  A    between atoms: C_1  and  O_2
REMARK    2  A    between atoms: O_2  and  C_3
REMARK    3  A    between atoms: C_8  and  N_9
REMARK    4  A    between atoms: C_10  and  S_11
REMARK    5  A    between atoms: C_10  and  C_12
REMARK                            x       y       z     vdW  Elec       q    Type
REMARK                         _______ _______ _______ _____ _____    ______ ____
ROOT
ATOM      1  N   UNL     1       4.504   4.739  16.245  0.00  0.00    +0.000 NA
ATOM      2  C   UNL     1       5.777   4.697  15.982  0.00  0.00    +0.000 C 
ENDROOT
BRANCH   1   8
ATOM      3  C   UNL     1       3.755   3.945  18.459  0.00  0.00    +0.000 A 
ATOM      4  C   UNL     1       3.167   4.219  19.708  0.00  0.00    +0.000 A 
ATOM      5  C   UNL     1       2.706   5.492  20.026  0.00  0.00    +0.000 A 
ATOM      6  C   UNL     1       2.900   6.526  19.124  0.00  0.00    +0.000 A 
ATOM      7  C   UNL     1       3.541   6.277  17.906  0.00  0.00    +0.000 A 
ATOM      8  C   UNL     1       3.912   4.980  17.506  0.00  0.00    +0.000 A 
BRANCH   3  10
ATOM      9  C   UNL     1       3.174   1.624  18.527  0.00  0.00    +0.000 C 
ATOM     10  O   UNL     1       4.154   2.636  18.373  0.00  0.00    +0.000 OA
ENDBRANCH   3  10
ENDBRANCH   1   8
BRANCH   2  11
ATOM     11  C   UNL     1       6.224   4.527  14.546  0.00  0.00    +0.000 A 
ATOM     12  C   UNL     1       5.577   3.651  13.654  0.00  0.00    +0.000 A 
ATOM     13  C   UNL     1       6.047   3.468  12.353  0.00  0.00    +0.000 A 
ATOM     14  C   UNL     1       7.175   4.156  11.916  0.00  0.00    +0.000 A 
ATOM     15  C   UNL     1       7.830   5.029  12.784  0.00  0.00    +0.000 A 
ATOM     16  C   UNL     1       7.354   5.217  14.089  0.00  0.00    +0.000 A 
ENDBRANCH   2  11
BRANCH   2  17
ATOM     17  S   UNL     1       7.086   4.862  17.158  0.00  0.00    +0.000 S 
ATOM     18  H   UNL     1       6.346   5.345  18.161  0.00  0.00    +0.000 HD
ENDBRANCH   2  17
TORSDOF 4
ENDMDL
MODEL 7
REMARK VINA RESULT:      -6.3      2.127      6.432
REMARK  Name = 
REMARK  5 active torsions:
REMARK  status: ('A' for Active; 'I' for Inactive)
REMARK    1  A    between atoms: C_1  and  O_2
REMARK    2  A    between atoms: O_2  and  C_3
REMARK    3  A    between atoms: C_8  and  N_9
REMARK    4  A    between atoms: C_10  and  S_11
REMARK    5  A    between atoms: C_10  and  C_12
REMARK                            x       y       z     vdW  Elec       q    Type
REMARK                         _______ _______ _______ _____ _____    ______ ____
ROOT
ATOM      1  N   UNL     1       4.539   4.743  16.312  0.00  0.00    +0.000 NA
ATOM      2  C   UNL     1       5.818   4.753  16.076  0.00  0.00    +0.000 C 
ENDROOT
BRANCH   1   8
ATOM      3  C   UNL     1       3.769   4.030  18.546  0.00  0.00    +0.000 A 
ATOM      4  C   UNL     1       3.141   4.341  19.767  0.00  0.00    +0.000 A 
ATOM      5  C   UNL     1       2.626   5.610  20.011  0.00  0.00    +0.000 A 
ATOM      6  C   UNL     1       2.802   6.606  19.063  0.00  0.00    +0.000 A 
ATOM      7  C   UNL     1       3.481   6.322  17.873  0.00  0.00    +0.000 A 
ATOM      8  C   UNL     1       3.910   5.022  17.546  0.00  0.00    +0.000 A 
BRANCH   3  10
ATOM      9  C   UNL     1       3.269   1.696  18.361  0.00  0.00    +0.000 C 
ATOM     10  O   UNL     1       4.218   2.734  18.534  0.00  0.00    +0.000 OA
ENDBRANCH   3  10
ENDBRANCH   1   8
BRANCH   2  11
ATOM     11  C   UNL     1       6.304   4.527  14.660  0.00  0.00    +0.000 A 
ATOM     12  C   UNL     1       7.404   5.221  14.121  0.00  0.00    +0.000 A 
ATOM     13  C   UNL     1       7.793   5.038  12.793  0.00  0.00    +0.000 A 
ATOM     14  C   UNL     1       7.090   4.159  11.975  0.00  0.00    +0.000 A 
ATOM     15  C   UNL     1       5.997   3.462  12.490  0.00  0.00    +0.000 A 
ATOM     16  C   UNL     1       5.611   3.641  13.826  0.00  0.00    +0.000 A 
ENDBRANCH   2  11
BRANCH   2  17
ATOM     17  S   UNL     1       7.092   5.053  17.264  0.00  0.00    +0.000 S 
ATOM     18  H   UNL     1       6.500   6.079  17.883  0.00  0.00    +0.000 HD
ENDBRANCH   2  17
TORSDOF 4
ENDMDL
MODEL 8
REMARK VINA RESULT:      -6.3      2.167      6.458
REMARK  Name = 
REMARK  5 active torsions:
REMARK  status: ('A' for Active; 'I' for Inactive)
REMARK    1  A    between atoms: C_1  and  O_2
REMARK    2  A    between atoms: O_2  and  C_3
REMARK    3  A    between atoms: C_8  and  N_9
REMARK    4  A    between atoms: C_10  and  S_11
REMARK    5  A    between atoms: C_10  and  C_12
REMARK                            x       y       z     vdW  Elec       q    Type
REMARK                         _______ _______ _______ _____ _____    ______ ____
ROOT
ATOM      1  N   UNL     1       4.693   4.403  16.345  0.00  0.00    +0.000 NA
ATOM      2  C   UNL     1       5.963   4.477  16.073  0.00  0.00    +0.000 C 
ENDROOT
BRANCH   1   8
ATOM      3  C   UNL     1       3.723   5.818  18.119  0.00  0.00    +0.000 A 
ATOM      4  C   UNL     1       3.124   5.929  19.388  0.00  0.00    +0.000 A 
ATOM      5  C   UNL     1       2.908   4.809  20.184  0.00  0.00    +0.000 A 
ATOM      6  C   UNL     1       3.219   3.554  19.686  0.00  0.00    +0.000 A 
ATOM      7  C   UNL     1       3.756   3.429  18.400  0.00  0.00    +0.000 A 
ATOM      8  C   UNL     1       4.095   4.549  17.617  0.00  0.00    +0.000 A 
BRANCH   3  10
ATOM      9  C   UNL     1       2.819   8.009  17.783  0.00  0.00    +0.000 C 
ATOM     10  O   UNL     1       3.816   7.041  17.504  0.00  0.00    +0.000 OA
ENDBRANCH   3  10
ENDBRANCH   1   8
BRANCH   2  11
ATOM     11  C   UNL     1       6.410   4.395  14.629  0.00  0.00    +0.000 A 
ATOM     12  C   UNL     1       7.454   5.188  14.118  0.00  0.00    +0.000 A 
ATOM     13  C   UNL     1       7.806   5.137  12.768  0.00  0.00    +0.000 A 
ATOM     14  C   UNL     1       7.119   4.293  11.900  0.00  0.00    +0.000 A 
ATOM     15  C   UNL     1       6.081   3.499  12.387  0.00  0.00    +0.000 A 
ATOM     16  C   UNL     1       5.733   3.546  13.745  0.00  0.00    +0.000 A 
ENDBRANCH   2  11
BRANCH   2  17
ATOM     17  S   UNL     1       7.264   4.710  17.246  0.00  0.00    +0.000 S 
ATOM     18  H   UNL     1       7.871   3.536  17.053  0.00  0.00    +0.000 HD
ENDBRANCH   2  17
TORSDOF 4
ENDMDL
MODEL 9
REMARK VINA RESULT:      -6.2      2.089      6.393
REMARK  Name = 
REMARK  5 active torsions:
REMARK  status: ('A' for Active; 'I' for Inactive)
REMARK    1  A    between atoms: C_1  and  O_2
REMARK    2  A    between atoms: O_2  and  C_3
REMARK    3  A    between atoms: C_8  and  N_9
REMARK    4  A    between atoms: C_10  and  S_11
REMARK    5  A    between atoms: C_10  and  C_12
REMARK                            x       y       z     vdW  Elec       q    Type
REMARK                         _______ _______ _______ _____ _____    ______ ____
ROOT
ATOM      1  N   UNL     1       4.600   4.031  16.331  0.00  0.00    +0.000 NA
ATOM      2  C   UNL     1       5.828   4.314  16.011  0.00  0.00    +0.000 C 
ENDROOT
BRANCH   1   8
ATOM      3  C   UNL     1       3.644   5.305  18.216  0.00  0.00    +0.000 A 
ATOM      4  C   UNL     1       3.078   5.319  19.505  0.00  0.00    +0.000 A 
ATOM      5  C   UNL     1       2.914   4.146  20.235  0.00  0.00    +0.000 A 
ATOM      6  C   UNL     1       3.244   2.934  19.650  0.00  0.00    +0.000 A 
ATOM      7  C   UNL     1       3.747   2.904  18.345  0.00  0.00    +0.000 A 
ATOM      8  C   UNL     1       4.035   4.080  17.625  0.00  0.00    +0.000 A 
BRANCH   3  10
ATOM      9  C   UNL     1       2.729   7.514  18.113  0.00  0.00    +0.000 C 
ATOM     10  O   UNL     1       3.687   6.566  17.678  0.00  0.00    +0.000 OA
ENDBRANCH   3  10
ENDBRANCH   1   8
BRANCH   2  11
ATOM     11  C   UNL     1       6.227   4.302  14.551  0.00  0.00    +0.000 A 
ATOM     12  C   UNL     1       5.578   3.492  13.599  0.00  0.00    +0.000 A 
ATOM     13  C   UNL     1       6.006   3.455  12.271  0.00  0.00    +0.000 A 
ATOM     14  C   UNL     1       7.091   4.226  11.866  0.00  0.00    +0.000 A 
ATOM     15  C   UNL     1       7.747   5.034  12.793  0.00  0.00    +0.000 A 
ATOM     16  C   UNL     1       7.314   5.076  14.126  0.00  0.00    +0.000 A 
ENDBRANCH   2  11
BRANCH   2  17
ATOM     17  S   UNL     1       7.116   4.766  17.134  0.00  0.00    +0.000 S 
ATOM     18  H   UNL     1       7.418   5.941  16.572  0.00  0.00    +0.000 HD
ENDBRANCH   2  17
TORSDOF 4
ENDMDL
