MODEL 1
REMARK VINA RESULT:      -7.0      0.000      0.000
REMARK  Name = 
REMARK  15 active torsions:
REMARK  status: ('A' for Active; 'I' for Inactive)
REMARK    1  A    between atoms: C_1  and  O_2
REMARK    2  A    between atoms: O_2  and  C_3
REMARK    3  A    between atoms: C_3  and  C_5
REMARK    4  A    between atoms: C_7  and  N_8
REMARK    5  A    between atoms: C_9  and  C_10
REMARK    6  A    between atoms: C_10  and  O_12
REMARK    7  A    between atoms: O_12  and  C_13
REMARK    8  A    between atoms: C_14  and  C_15
REMARK    9  A    between atoms: C_15  and  O_16
REMARK   10  A    between atoms: O_16  and  C_17
REMARK   11  A    between atoms: C_17  and  C_19
REMARK   12  A    between atoms: C_19  and  N_20
REMARK   13  A    between atoms: N_20  and  S_21
REMARK   14  A    between atoms: S_21  and  C_24
REMARK   15  A    between atoms: C_27  and  C_28
REMARK                            x       y       z     vdW  Elec       q    Type
REMARK                         _______ _______ _______ _____ _____    ______ ____
ROOT
ATOM      1  C   UNL     1       2.548   6.631  18.039  0.00  0.00    +0.000 C 
ENDROOT
BRANCH   1   6
ATOM      2  C   UNL     1       4.911   5.714  17.717  0.00  0.00    +0.000 A 
ATOM      3  S   UNL     1       5.913   4.416  18.190  0.00  0.00    +0.000 S 
ATOM      4  C   UNL     1       4.694   3.682  19.115  0.00  0.00    +0.000 A 
ATOM      5  C   UNL     1       3.504   4.401  19.102  0.00  0.00    +0.000 A 
ATOM      6  C   UNL     1       3.642   5.618  18.284  0.00  0.00    +0.000 A 
BRANCH   4   7
ATOM      7  N   UNL     1       4.978   2.515  19.730  0.00  0.00    +0.000 N 
ATOM      8  H   UNL     1       4.577   2.309  20.640  0.00  0.00    +0.000 HD
ATOM      9  H   UNL     1       5.242   1.696  19.185  0.00  0.00    +0.000 HD
ENDBRANCH   4   7
BRANCH   2  10
ATOM     10  C   UNL     1       5.418   6.718  16.790  0.00  0.00    +0.000 C 
ATOM     11  O   UNL     1       5.248   6.711  15.575  0.00  0.00    +0.000 OA
BRANCH  10  13
ATOM     12  C   UNL     1       7.528   7.557  17.427  0.00  0.00    +0.000 C 
ATOM     13  O   UNL     1       6.109   7.689  17.456  0.00  0.00    +0.000 OA
ENDBRANCH  10  13
ENDBRANCH   2  10
BRANCH   5  14
ATOM     14  C   UNL     1       2.277   3.967  19.801  0.00  0.00    +0.000 C 
ATOM     15  O   UNL     1       1.179   3.903  19.263  0.00  0.00    +0.000 OA
BRANCH  14  16
ATOM     16  O   UNL     1       2.484   3.600  21.105  0.00  0.00    +0.000 OA
ATOM     17  C   UNL     1       1.484   2.734  21.644  0.00  0.00    +0.000 C 
ENDBRANCH  14  16
ENDBRANCH   5  14
ENDBRANCH   1   6
BRANCH   1  18
ATOM     18  O   UNL     1       2.717   7.877  18.744  0.00  0.00    +0.000 OA
BRANCH  18  19
ATOM     19  C   UNL     1       1.843   8.098  19.762  0.00  0.00    +0.000 C 
ATOM     20  O   UNL     1       1.630   7.326  20.687  0.00  0.00    +0.000 OA
BRANCH  19  21
ATOM     21  C   UNL     1       1.093   9.402  19.559  0.00  0.00    +0.000 C 
BRANCH  21  22
ATOM     22  N   UNL     1       0.064   9.577  20.600  0.00  0.00    +0.000 NA
ATOM     23  H   UNL     1      -0.363   8.735  20.989  0.00  0.00    +0.000 HD
BRANCH  22  24
ATOM     24  S   UNL     1       0.341  10.731  21.786  0.00  0.00    +0.000 S 
ATOM     25  O   UNL     1       0.550  10.002  23.017  0.00  0.00    +0.000 OA
ATOM     26  O   UNL     1       1.323  11.660  21.273  0.00  0.00    +0.000 OA
BRANCH  24  27
ATOM     27  C   UNL     1      -1.223  11.551  21.910  0.00  0.00    +0.000 A 
ATOM     28  C   UNL     1      -1.866  11.621  23.147  0.00  0.00    +0.000 A 
ATOM     29  C   UNL     1      -3.110  12.248  23.243  0.00  0.00    +0.000 A 
ATOM     30  C   UNL     1      -3.710  12.811  22.108  0.00  0.00    +0.000 A 
ATOM     31  C   UNL     1      -5.065  13.451  22.188  0.00  0.00    +0.000 C 
ATOM     32  C   UNL     1      -3.036  12.763  20.879  0.00  0.00    +0.000 A 
ATOM     33  C   UNL     1      -1.793  12.137  20.777  0.00  0.00    +0.000 A 
ENDBRANCH  24  27
ENDBRANCH  22  24
ENDBRANCH  21  22
ENDBRANCH  19  21
ENDBRANCH  18  19
ENDBRANCH   1  18
TORSDOF 12
ENDMDL
MODEL 2
REMARK VINA RESULT:      -7.0      1.421      3.972
REMARK  Name = 
REMARK  15 active torsions:
REMARK  status: ('A' for Active; 'I' for Inactive)
REMARK    1  A    between atoms: C_1  and  O_2
REMARK    2  A    between atoms: O_2  and  C_3
REMARK    3  A    between atoms: C_3  and  C_5
REMARK    4  A    between atoms: C_7  and  N_8
REMARK    5  A    between atoms: C_9  and  C_10
REMARK    6  A    between atoms: C_10  and  O_12
REMARK    7  A    between atoms: O_12  and  C_13
REMARK    8  A    between atoms: C_14  and  C_15
REMARK    9  A    between atoms: C_15  and  O_16
REMARK   10  A    between atoms: O_16  and  C_17
REMARK   11  A    between atoms: C_17  and  C_19
REMARK   12  A    between atoms: C_19  and  N_20
REMARK   13  A    between atoms: N_20  and  S_21
REMARK   14  A    between atoms: S_21  and  C_24
REMARK   15  A    between atoms: C_27  and  C_28
REMARK                            x       y       z     vdW  Elec       q    Type
REMARK                         _______ _______ _______ _____ _____    ______ ____
ROOT
ATOM      1  C   UNL     1       2.736   6.809  17.836  0.00  0.00    +0.000 C 
ENDROOT
BRANCH   1   6
ATOM      2  C   UNL     1       3.411   4.658  19.039  0.00  0.00    +0.000 A 
ATOM      3  S   UNL     1       4.752   3.630  19.279  0.00  0.00    +0.000 S 
ATOM      4  C   UNL     1       5.787   4.598  18.346  0.00  0.00    +0.000 A 
ATOM      5  C   UNL     1       5.148   5.715  17.819  0.00  0.00    +0.000 A 
ATOM      6  C   UNL     1       3.731   5.738  18.219  0.00  0.00    +0.000 A 
BRANCH   4   7
ATOM      7  N   UNL     1       7.077   4.218  18.226  0.00  0.00    +0.000 N 
ATOM      8  H   UNL     1       7.794   4.910  18.030  0.00  0.00    +0.000 HD
ATOM      9  H   UNL     1       7.411   3.376  18.692  0.00  0.00    +0.000 HD
ENDBRANCH   4   7
BRANCH   2  10
ATOM     10  C   UNL     1       2.147   4.365  19.702  0.00  0.00    +0.000 C 
ATOM     11  O   UNL     1       1.116   4.011  19.140  0.00  0.00    +0.000 OA
BRANCH  10  13
ATOM     12  C   UNL     1       2.132   3.335  21.824  0.00  0.00    +0.000 C 
ATOM     13  O   UNL     1       2.260   4.527  21.054  0.00  0.00    +0.000 OA
ENDBRANCH  10  13
ENDBRANCH   2  10
BRANCH   5  14
ATOM     14  C   UNL     1       5.828   6.736  16.996  0.00  0.00    +0.000 C 
ATOM     15  O   UNL     1       6.707   7.474  17.423  0.00  0.00    +0.000 OA
BRANCH  14  16
ATOM     16  O   UNL     1       5.415   6.758  15.689  0.00  0.00    +0.000 OA
ATOM     17  C   UNL     1       5.645   5.543  14.973  0.00  0.00    +0.000 C 
ENDBRANCH  14  16
ENDBRANCH   5  14
ENDBRANCH   1   6
BRANCH   1  18
ATOM     18  O   UNL     1       2.357   7.688  18.914  0.00  0.00    +0.000 OA
BRANCH  18  19
ATOM     19  C   UNL     1       1.776   8.859  18.539  0.00  0.00    +0.000 C 
ATOM     20  O   UNL     1       1.898   9.385  17.441  0.00  0.00    +0.000 OA
BRANCH  19  21
ATOM     21  C   UNL     1       1.016   9.482  19.696  0.00  0.00    +0.000 C 
BRANCH  21  22
ATOM     22  N   UNL     1      -0.219  10.129  19.218  0.00  0.00    +0.000 NA
ATOM     23  H   UNL     1      -1.106   9.669  19.429  0.00  0.00    +0.000 HD
BRANCH  22  24
ATOM     24  S   UNL     1      -0.339  11.796  19.370  0.00  0.00    +0.000 S 
ATOM     25  O   UNL     1       0.978  12.262  19.745  0.00  0.00    +0.000 OA
ATOM     26  O   UNL     1      -1.021  12.295  18.197  0.00  0.00    +0.000 OA
BRANCH  24  27
ATOM     27  C   UNL     1      -1.394  11.987  20.779  0.00  0.00    +0.000 A 
ATOM     28  C   UNL     1      -2.623  12.633  20.632  0.00  0.00    +0.000 A 
ATOM     29  C   UNL     1      -3.448  12.805  21.747  0.00  0.00    +0.000 A 
ATOM     30  C   UNL     1      -3.051  12.328  23.003  0.00  0.00    +0.000 A 
ATOM     31  C   UNL     1      -3.908  12.543  24.216  0.00  0.00    +0.000 C 
ATOM     32  C   UNL     1      -1.829  11.651  23.127  0.00  0.00    +0.000 A 
ATOM     33  C   UNL     1      -1.000  11.477  22.018  0.00  0.00    +0.000 A 
ENDBRANCH  24  27
ENDBRANCH  22  24
ENDBRANCH  21  22
ENDBRANCH  19  21
ENDBRANCH  18  19
ENDBRANCH   1  18
TORSDOF 12
ENDMDL
MODEL 3
REMARK VINA RESULT:      -6.9      1.430      3.865
REMARK  Name = 
REMARK  15 active torsions:
REMARK  status: ('A' for Active; 'I' for Inactive)
REMARK    1  A    between atoms: C_1  and  O_2
REMARK    2  A    between atoms: O_2  and  C_3
REMARK    3  A    between atoms: C_3  and  C_5
REMARK    4  A    between atoms: C_7  and  N_8
REMARK    5  A    between atoms: C_9  and  C_10
REMARK    6  A    between atoms: C_10  and  O_12
REMARK    7  A    between atoms: O_12  and  C_13
REMARK    8  A    between atoms: C_14  and  C_15
REMARK    9  A    between atoms: C_15  and  O_16
REMARK   10  A    between atoms: O_16  and  C_17
REMARK   11  A    between atoms: C_17  and  C_19
REMARK   12  A    between atoms: C_19  and  N_20
REMARK   13  A    between atoms: N_20  and  S_21
REMARK   14  A    between atoms: S_21  and  C_24
REMARK   15  A    between atoms: C_27  and  C_28
REMARK                            x       y       z     vdW  Elec       q    Type
REMARK                         _______ _______ _______ _____ _____    ______ ____
ROOT
ATOM      1  C   UNL     1       3.123   6.731  18.634  0.00  0.00    +0.000 C 
ENDROOT
BRANCH   1   6
ATOM      2  C   UNL     1       3.112   4.184  18.421  0.00  0.00    +0.000 A 
ATOM      3  S   UNL     1       3.871   2.915  17.570  0.00  0.00    +0.000 S 
ATOM      4  C   UNL     1       4.897   3.966  16.719  0.00  0.00    +0.000 A 
ATOM      5  C   UNL     1       4.687   5.301  17.045  0.00  0.00    +0.000 A 
ATOM      6  C   UNL     1       3.613   5.429  18.044  0.00  0.00    +0.000 A 
BRANCH   4   7
ATOM      7  N   UNL     1       5.790   3.427  15.862  0.00  0.00    +0.000 N 
ATOM      8  H   UNL     1       5.482   2.761  15.160  0.00  0.00    +0.000 HD
ATOM      9  H   UNL     1       6.647   3.927  15.631  0.00  0.00    +0.000 HD
ENDBRANCH   4   7
BRANCH   2  10
ATOM     10  C   UNL     1       2.108   3.878  19.432  0.00  0.00    +0.000 C 
ATOM     11  O   UNL     1       0.954   3.529  19.204  0.00  0.00    +0.000 OA
BRANCH  10  13
ATOM     12  C   UNL     1       2.557   2.862  21.512  0.00  0.00    +0.000 C 
ATOM     13  O   UNL     1       2.624   4.023  20.688  0.00  0.00    +0.000 OA
ENDBRANCH  10  13
ENDBRANCH   2  10
BRANCH   5  14
ATOM     14  C   UNL     1       5.466   6.417  16.470  0.00  0.00    +0.000 C 
ATOM     15  O   UNL     1       5.423   6.733  15.288  0.00  0.00    +0.000 OA
BRANCH  14  16
ATOM     16  O   UNL     1       6.217   7.100  17.392  0.00  0.00    +0.000 OA
ATOM     17  C   UNL     1       7.389   6.411  17.831  0.00  0.00    +0.000 C 
ENDBRANCH  14  16
ENDBRANCH   5  14
ENDBRANCH   1   6
BRANCH   1  18
ATOM     18  O   UNL     1       2.508   7.624  17.686  0.00  0.00    +0.000 OA
BRANCH  18  19
ATOM     19  C   UNL     1       1.939   8.741  18.216  0.00  0.00    +0.000 C 
ATOM     20  O   UNL     1       1.803   9.806  17.631  0.00  0.00    +0.000 OA
BRANCH  19  21
ATOM     21  C   UNL     1       1.567   8.521  19.671  0.00  0.00    +0.000 C 
BRANCH  21  22
ATOM     22  N   UNL     1       0.921   9.723  20.230  0.00  0.00    +0.000 NA
ATOM     23  H   UNL     1       0.305  10.256  19.616  0.00  0.00    +0.000 HD
BRANCH  22  24
ATOM     24  S   UNL     1       0.306   9.627  21.788  0.00  0.00    +0.000 S 
ATOM     25  O   UNL     1      -0.529   8.447  21.820  0.00  0.00    +0.000 OA
ATOM     26  O   UNL     1       1.408   9.808  22.706  0.00  0.00    +0.000 OA
BRANCH  24  27
ATOM     27  C   UNL     1      -0.759  11.038  21.877  0.00  0.00    +0.000 A 
ATOM     28  C   UNL     1      -0.848  11.901  20.784  0.00  0.00    +0.000 A 
ATOM     29  C   UNL     1      -1.671  13.028  20.861  0.00  0.00    +0.000 A 
ATOM     30  C   UNL     1      -2.409  13.289  22.023  0.00  0.00    +0.000 A 
ATOM     31  C   UNL     1      -3.264  14.518  22.134  0.00  0.00    +0.000 C 
ATOM     32  C   UNL     1      -2.335  12.394  23.100  0.00  0.00    +0.000 A 
ATOM     33  C   UNL     1      -1.515  11.268  23.030  0.00  0.00    +0.000 A 
ENDBRANCH  24  27
ENDBRANCH  22  24
ENDBRANCH  21  22
ENDBRANCH  19  21
ENDBRANCH  18  19
ENDBRANCH   1  18
TORSDOF 12
ENDMDL
MODEL 4
REMARK VINA RESULT:      -6.9      0.945      1.527
REMARK  Name = 
REMARK  15 active torsions:
REMARK  status: ('A' for Active; 'I' for Inactive)
REMARK    1  A    between atoms: C_1  and  O_2
REMARK    2  A    between atoms: O_2  and  C_3
REMARK    3  A    between atoms: C_3  and  C_5
REMARK    4  A    between atoms: C_7  and  N_8
REMARK    5  A    between atoms: C_9  and  C_10
REMARK    6  A    between atoms: C_10  and  O_12
REMARK    7  A    between atoms: O_12  and  C_13
REMARK    8  A    between atoms: C_14  and  C_15
REMARK    9  A    between atoms: C_15  and  O_16
REMARK   10  A    between atoms: O_16  and  C_17
REMARK   11  A    between atoms: C_17  and  C_19
REMARK   12  A    between atoms: C_19  and  N_20
REMARK   13  A    between atoms: N_20  and  S_21
REMARK   14  A    between atoms: S_21  and  C_24
REMARK   15  A    between atoms: C_27  and  C_28
REMARK                            x       y       z     vdW  Elec       q    Type
REMARK                         _______ _______ _______ _____ _____    ______ ____
ROOT
ATOM      1  C   UNL     1       2.932   6.895  17.682  0.00  0.00    +0.000 C 
ENDROOT
BRANCH   1   6
ATOM      2  C   UNL     1       5.148   5.649  17.419  0.00  0.00    +0.000 A 
ATOM      3  S   UNL     1       5.989   4.287  18.009  0.00  0.00    +0.000 S 
ATOM      4  C   UNL     1       4.714   3.817  19.026  0.00  0.00    +0.000 A 
ATOM      5  C   UNL     1       3.626   4.680  18.957  0.00  0.00    +0.000 A 
ATOM      6  C   UNL     1       3.894   5.778  18.014  0.00  0.00    +0.000 A 
BRANCH   4   7
ATOM      7  N   UNL     1       4.865   2.691  19.756  0.00  0.00    +0.000 N 
ATOM      8  H   UNL     1       4.623   1.789  19.355  0.00  0.00    +0.000 HD
ATOM      9  H   UNL     1       5.549   2.654  20.509  0.00  0.00    +0.000 HD
ENDBRANCH   4   7
BRANCH   2  10
ATOM     10  C   UNL     1       5.750   6.478  16.383  0.00  0.00    +0.000 C 
ATOM     11  O   UNL     1       5.162   6.937  15.409  0.00  0.00    +0.000 OA
BRANCH  10  13
ATOM     12  C   UNL     1       7.359   7.819  17.467  0.00  0.00    +0.000 C 
ATOM     13  O   UNL     1       7.074   6.693  16.642  0.00  0.00    +0.000 OA
ENDBRANCH  10  13
ENDBRANCH   2  10
BRANCH   5  14
ATOM     14  C   UNL     1       2.375   4.483  19.718  0.00  0.00    +0.000 C 
ATOM     15  O   UNL     1       2.258   4.752  20.907  0.00  0.00    +0.000 OA
BRANCH  14  16
ATOM     16  O   UNL     1       1.336   4.009  18.961  0.00  0.00    +0.000 OA
ATOM     17  C   UNL     1       1.142   2.596  19.036  0.00  0.00    +0.000 C 
ENDBRANCH  14  16
ENDBRANCH   5  14
ENDBRANCH   1   6
BRANCH   1  18
ATOM     18  O   UNL     1       2.634   7.775  18.784  0.00  0.00    +0.000 OA
BRANCH  18  19
ATOM     19  C   UNL     1       1.896   8.875  18.472  0.00  0.00    +0.000 C 
ATOM     20  O   UNL     1       2.047   9.562  17.471  0.00  0.00    +0.000 OA
BRANCH  19  21
ATOM     21  C   UNL     1       0.907   9.195  19.578  0.00  0.00    +0.000 C 
BRANCH  21  22
ATOM     22  N   UNL     1       0.723  10.653  19.704  0.00  0.00    +0.000 NA
ATOM     23  H   UNL     1      -0.034  11.081  19.168  0.00  0.00    +0.000 HD
BRANCH  22  24
ATOM     24  S   UNL     1       0.853  11.328  21.234  0.00  0.00    +0.000 S 
ATOM     25  O   UNL     1       1.197  10.243  22.126  0.00  0.00    +0.000 OA
ATOM     26  O   UNL     1       1.673  12.513  21.121  0.00  0.00    +0.000 OA
BRANCH  24  27
ATOM     27  C   UNL     1      -0.812  11.809  21.595  0.00  0.00    +0.000 A 
ATOM     28  C   UNL     1      -1.621  12.304  20.570  0.00  0.00    +0.000 A 
ATOM     29  C   UNL     1      -2.928  12.705  20.857  0.00  0.00    +0.000 A 
ATOM     30  C   UNL     1      -3.430  12.606  22.162  0.00  0.00    +0.000 A 
ATOM     31  C   UNL     1      -4.818  13.072  22.492  0.00  0.00    +0.000 C 
ATOM     32  C   UNL     1      -2.616  12.074  23.173  0.00  0.00    +0.000 A 
ATOM     33  C   UNL     1      -1.310  11.673  22.893  0.00  0.00    +0.000 A 
ENDBRANCH  24  27
ENDBRANCH  22  24
ENDBRANCH  21  22
ENDBRANCH  19  21
ENDBRANCH  18  19
ENDBRANCH   1  18
TORSDOF 12
ENDMDL
MODEL 5
REMARK VINA RESULT:      -6.9      2.798      4.565
REMARK  Name = 
REMARK  15 active torsions:
REMARK  status: ('A' for Active; 'I' for Inactive)
REMARK    1  A    between atoms: C_1  and  O_2
REMARK    2  A    between atoms: O_2  and  C_3
REMARK    3  A    between atoms: C_3  and  C_5
REMARK    4  A    between atoms: C_7  and  N_8
REMARK    5  A    between atoms: C_9  and  C_10
REMARK    6  A    between atoms: C_10  and  O_12
REMARK    7  A    between atoms: O_12  and  C_13
REMARK    8  A    between atoms: C_14  and  C_15
REMARK    9  A    between atoms: C_15  and  O_16
REMARK   10  A    between atoms: O_16  and  C_17
REMARK   11  A    between atoms: C_17  and  C_19
REMARK   12  A    between atoms: C_19  and  N_20
REMARK   13  A    between atoms: N_20  and  S_21
REMARK   14  A    between atoms: S_21  and  C_24
REMARK   15  A    between atoms: C_27  and  C_28
REMARK                            x       y       z     vdW  Elec       q    Type
REMARK                         _______ _______ _______ _____ _____    ______ ____
ROOT
ATOM      1  C   UNL     1       4.211   5.061  19.598  0.00  0.00    +0.000 C 
ENDROOT
BRANCH   1   6
ATOM      2  C   UNL     1       4.270   3.895  17.324  0.00  0.00    +0.000 A 
ATOM      3  S   UNL     1       5.301   3.623  15.993  0.00  0.00    +0.000 S 
ATOM      4  C   UNL     1       6.593   4.472  16.693  0.00  0.00    +0.000 A 
ATOM      5  C   UNL     1       6.278   4.994  17.943  0.00  0.00    +0.000 A 
ATOM      6  C   UNL     1       4.890   4.664  18.307  0.00  0.00    +0.000 A 
BRANCH   4   7
ATOM      7  N   UNL     1       7.755   4.541  16.009  0.00  0.00    +0.000 N 
ATOM      8  H   UNL     1       8.482   5.185  16.306  0.00  0.00    +0.000 HD
ATOM      9  H   UNL     1       8.086   3.739  15.476  0.00  0.00    +0.000 HD
ENDBRANCH   4   7
BRANCH   2  10
ATOM     10  C   UNL     1       2.938   3.305  17.340  0.00  0.00    +0.000 C 
ATOM     11  O   UNL     1       2.005   3.637  16.615  0.00  0.00    +0.000 OA
BRANCH  10  13
ATOM     12  C   UNL     1       1.550   2.043  18.770  0.00  0.00    +0.000 C 
ATOM     13  O   UNL     1       2.859   2.310  18.272  0.00  0.00    +0.000 OA
ENDBRANCH  10  13
ENDBRANCH   2  10
BRANCH   5  14
ATOM     14  C   UNL     1       7.232   5.750  18.780  0.00  0.00    +0.000 C 
ATOM     15  O   UNL     1       7.397   5.540  19.975  0.00  0.00    +0.000 OA
BRANCH  14  16
ATOM     16  O   UNL     1       7.953   6.687  18.087  0.00  0.00    +0.000 OA
ATOM     17  C   UNL     1       7.202   7.832  17.678  0.00  0.00    +0.000 C 
ENDBRANCH  14  16
ENDBRANCH   5  14
ENDBRANCH   1   6
BRANCH   1  18
ATOM     18  O   UNL     1       3.748   6.425  19.636  0.00  0.00    +0.000 OA
BRANCH  18  19
ATOM     19  C   UNL     1       2.599   6.674  18.951  0.00  0.00    +0.000 C 
ATOM     20  O   UNL     1       1.606   5.958  18.960  0.00  0.00    +0.000 OA
BRANCH  19  21
ATOM     21  C   UNL     1       2.736   7.922  18.098  0.00  0.00    +0.000 C 
BRANCH  21  22
ATOM     22  N   UNL     1       1.425   8.573  17.917  0.00  0.00    +0.000 NA
ATOM     23  H   UNL     1       0.603   7.971  17.857  0.00  0.00    +0.000 HD
BRANCH  22  24
ATOM     24  S   UNL     1       1.111   9.960  18.808  0.00  0.00    +0.000 S 
ATOM     25  O   UNL     1       1.104   9.554  20.196  0.00  0.00    +0.000 OA
ATOM     26  O   UNL     1       1.988  11.001  18.321  0.00  0.00    +0.000 OA
BRANCH  24  27
ATOM     27  C   UNL     1      -0.556  10.349  18.355  0.00  0.00    +0.000 A 
ATOM     28  C   UNL     1      -1.156   9.667  17.294  0.00  0.00    +0.000 A 
ATOM     29  C   UNL     1      -2.463   9.988  16.921  0.00  0.00    +0.000 A 
ATOM     30  C   UNL     1      -3.173  10.981  17.609  0.00  0.00    +0.000 A 
ATOM     31  C   UNL     1      -4.563  11.365  17.192  0.00  0.00    +0.000 C 
ATOM     32  C   UNL     1      -2.568  11.633  18.694  0.00  0.00    +0.000 A 
ATOM     33  C   UNL     1      -1.263  11.318  19.071  0.00  0.00    +0.000 A 
ENDBRANCH  24  27
ENDBRANCH  22  24
ENDBRANCH  21  22
ENDBRANCH  19  21
ENDBRANCH  18  19
ENDBRANCH   1  18
TORSDOF 12
ENDMDL
MODEL 6
REMARK VINA RESULT:      -6.8      2.166      4.390
REMARK  Name = 
REMARK  15 active torsions:
REMARK  status: ('A' for Active; 'I' for Inactive)
REMARK    1  A    between atoms: C_1  and  O_2
REMARK    2  A    between atoms: O_2  and  C_3
REMARK    3  A    between atoms: C_3  and  C_5
REMARK    4  A    between atoms: C_7  and  N_8
REMARK    5  A    between atoms: C_9  and  C_10
REMARK    6  A    between atoms: C_10  and  O_12
REMARK    7  A    between atoms: O_12  and  C_13
REMARK    8  A    between atoms: C_14  and  C_15
REMARK    9  A    between atoms: C_15  and  O_16
REMARK   10  A    between atoms: O_16  and  C_17
REMARK   11  A    between atoms: C_17  and  C_19
REMARK   12  A    between atoms: C_19  and  N_20
REMARK   13  A    between atoms: N_20  and  S_21
REMARK   14  A    between atoms: S_21  and  C_24
REMARK   15  A    between atoms: C_27  and  C_28
REMARK                            x       y       z     vdW  Elec       q    Type
REMARK                         _______ _______ _______ _____ _____    ______ ____
ROOT
ATOM      1  C   UNL     1       2.537   6.552  17.892  0.00  0.00    +0.000 C 
ENDROOT
BRANCH   1   6
ATOM      2  C   UNL     1       3.457   4.570  19.216  0.00  0.00    +0.000 A 
ATOM      3  S   UNL     1       4.889   3.671  19.447  0.00  0.00    +0.000 S 
ATOM      4  C   UNL     1       5.783   4.632  18.371  0.00  0.00    +0.000 A 
ATOM      5  C   UNL     1       5.025   5.648  17.801  0.00  0.00    +0.000 A 
ATOM      6  C   UNL     1       3.637   5.597  18.292  0.00  0.00    +0.000 A 
BRANCH   4   7
ATOM      7  N   UNL     1       7.090   4.342  18.196  0.00  0.00    +0.000 N 
ATOM      8  H   UNL     1       7.431   4.065  17.280  0.00  0.00    +0.000 HD
ATOM      9  H   UNL     1       7.794   4.750  18.808  0.00  0.00    +0.000 HD
ENDBRANCH   4   7
BRANCH   2  10
ATOM     10  C   UNL     1       2.264   4.239  19.985  0.00  0.00    +0.000 C 
ATOM     11  O   UNL     1       1.685   4.996  20.758  0.00  0.00    +0.000 OA
BRANCH  10  13
ATOM     12  C   UNL     1       0.911   2.826  18.668  0.00  0.00    +0.000 C 
ATOM     13  O   UNL     1       1.858   2.961  19.725  0.00  0.00    +0.000 OA
ENDBRANCH  10  13
ENDBRANCH   2  10
BRANCH   5  14
ATOM     14  C   UNL     1       5.568   6.643  16.854  0.00  0.00    +0.000 C 
ATOM     15  O   UNL     1       6.395   7.491  17.164  0.00  0.00    +0.000 OA
BRANCH  14  16
ATOM     16  O   UNL     1       5.092   6.507  15.575  0.00  0.00    +0.000 OA
ATOM     17  C   UNL     1       5.546   5.336  14.894  0.00  0.00    +0.000 C 
ENDBRANCH  14  16
ENDBRANCH   5  14
ENDBRANCH   1   6
BRANCH   1  18
ATOM     18  O   UNL     1       2.345   7.657  18.797  0.00  0.00    +0.000 OA
BRANCH  18  19
ATOM     19  C   UNL     1       2.015   8.842  18.214  0.00  0.00    +0.000 C 
ATOM     20  O   UNL     1       2.504   9.277  17.180  0.00  0.00    +0.000 OA
BRANCH  19  21
ATOM     21  C   UNL     1       1.014   9.603  19.063  0.00  0.00    +0.000 C 
BRANCH  21  22
ATOM     22  N   UNL     1       0.308  10.614  18.253  0.00  0.00    +0.000 NA
ATOM     23  H   UNL     1      -0.289  10.279  17.496  0.00  0.00    +0.000 HD
BRANCH  22  24
ATOM     24  S   UNL     1      -0.385  11.914  19.056  0.00  0.00    +0.000 S 
ATOM     25  O   UNL     1      -0.119  11.708  20.462  0.00  0.00    +0.000 OA
ATOM     26  O   UNL     1       0.023  13.120  18.370  0.00  0.00    +0.000 OA
BRANCH  24  27
ATOM     27  C   UNL     1      -2.117  11.659  18.796  0.00  0.00    +0.000 A 
ATOM     28  C   UNL     1      -2.539  10.761  17.813  0.00  0.00    +0.000 A 
ATOM     29  C   UNL     1      -3.905  10.575  17.591  0.00  0.00    +0.000 A 
ATOM     30  C   UNL     1      -4.849  11.276  18.352  0.00  0.00    +0.000 A 
ATOM     31  C   UNL     1      -6.320  11.117  18.096  0.00  0.00    +0.000 C 
ATOM     32  C   UNL     1      -4.410  12.148  19.359  0.00  0.00    +0.000 A 
ATOM     33  C   UNL     1      -3.047  12.340  19.585  0.00  0.00    +0.000 A 
ENDBRANCH  24  27
ENDBRANCH  22  24
ENDBRANCH  21  22
ENDBRANCH  19  21
ENDBRANCH  18  19
ENDBRANCH   1  18
TORSDOF 12
ENDMDL
MODEL 7
REMARK VINA RESULT:      -6.8      1.547      2.084
REMARK  Name = 
REMARK  15 active torsions:
REMARK  status: ('A' for Active; 'I' for Inactive)
REMARK    1  A    between atoms: C_1  and  O_2
REMARK    2  A    between atoms: O_2  and  C_3
REMARK    3  A    between atoms: C_3  and  C_5
REMARK    4  A    between atoms: C_7  and  N_8
REMARK    5  A    between atoms: C_9  and  C_10
REMARK    6  A    between atoms: C_10  and  O_12
REMARK    7  A    between atoms: O_12  and  C_13
REMARK    8  A    between atoms: C_14  and  C_15
REMARK    9  A    between atoms: C_15  and  O_16
REMARK   10  A    between atoms: O_16  and  C_17
REMARK   11  A    between atoms: C_17  and  C_19
REMARK   12  A    between atoms: C_19  and  N_20
REMARK   13  A    between atoms: N_20  and  S_21
REMARK   14  A    between atoms: S_21  and  C_24
REMARK   15  A    between atoms: C_27  and  C_28
REMARK                            x       y       z     vdW  Elec       q    Type
REMARK                         _______ _______ _______ _____ _____    ______ ____
ROOT
ATOM      1  C   UNL     1       2.972   7.043  17.772  0.00  0.00    +0.000 C 
ENDROOT
BRANCH   1   6
ATOM      2  C   UNL     1       5.244   5.877  17.707  0.00  0.00    +0.000 A 
ATOM      3  S   UNL     1       6.061   4.513  18.327  0.00  0.00    +0.000 S 
ATOM      4  C   UNL     1       4.697   3.958  19.172  0.00  0.00    +0.000 A 
ATOM      5  C   UNL     1       3.595   4.791  19.019  0.00  0.00    +0.000 A 
ATOM      6  C   UNL     1       3.929   5.940  18.161  0.00  0.00    +0.000 A 
BRANCH   4   7
ATOM      7  N   UNL     1       4.805   2.804  19.865  0.00  0.00    +0.000 N 
ATOM      8  H   UNL     1       5.048   1.943  19.383  0.00  0.00    +0.000 HD
ATOM      9  H   UNL     1       5.035   2.819  20.856  0.00  0.00    +0.000 HD
ENDBRANCH   4   7
BRANCH   2  10
ATOM     10  C   UNL     1       5.930   6.771  16.782  0.00  0.00    +0.000 C 
ATOM     11  O   UNL     1       6.828   7.551  17.084  0.00  0.00    +0.000 OA
BRANCH  10  13
ATOM     12  C   UNL     1       5.676   5.349  14.918  0.00  0.00    +0.000 C 
ATOM     13  O   UNL     1       5.444   6.623  15.514  0.00  0.00    +0.000 OA
ENDBRANCH  10  13
ENDBRANCH   2  10
BRANCH   5  14
ATOM     14  C   UNL     1       2.275   4.522  19.624  0.00  0.00    +0.000 C 
ATOM     15  O   UNL     1       1.990   4.806  20.781  0.00  0.00    +0.000 OA
BRANCH  14  16
ATOM     16  O   UNL     1       1.373   3.959  18.758  0.00  0.00    +0.000 OA
ATOM     17  C   UNL     1       1.055   2.594  19.036  0.00  0.00    +0.000 C 
ENDBRANCH  14  16
ENDBRANCH   5  14
ENDBRANCH   1   6
BRANCH   1  18
ATOM     18  O   UNL     1       2.560   7.891  18.862  0.00  0.00    +0.000 OA
BRANCH  18  19
ATOM     19  C   UNL     1       1.858   9.002  18.508  0.00  0.00    +0.000 C 
ATOM     20  O   UNL     1       2.037   9.650  17.486  0.00  0.00    +0.000 OA
BRANCH  19  21
ATOM     21  C   UNL     1       0.871   9.388  19.595  0.00  0.00    +0.000 C 
BRANCH  21  22
ATOM     22  N   UNL     1       0.935  10.836  19.863  0.00  0.00    +0.000 NA
ATOM     23  H   UNL     1       1.841  11.295  19.767  0.00  0.00    +0.000 HD
BRANCH  22  24
ATOM     24  S   UNL     1      -0.308  11.796  19.270  0.00  0.00    +0.000 S 
ATOM     25  O   UNL     1       0.287  13.076  18.955  0.00  0.00    +0.000 OA
ATOM     26  O   UNL     1      -1.025  11.023  18.281  0.00  0.00    +0.000 OA
BRANCH  24  27
ATOM     27  C   UNL     1      -1.342  12.022  20.690  0.00  0.00    +0.000 A 
ATOM     28  C   UNL     1      -0.893  11.593  21.940  0.00  0.00    +0.000 A 
ATOM     29  C   UNL     1      -1.717  11.750  23.058  0.00  0.00    +0.000 A 
ATOM     30  C   UNL     1      -2.981  12.339  22.930  0.00  0.00    +0.000 A 
ATOM     31  C   UNL     1      -3.893  12.476  24.114  0.00  0.00    +0.000 C 
ATOM     32  C   UNL     1      -3.403  12.796  21.672  0.00  0.00    +0.000 A 
ATOM     33  C   UNL     1      -2.586  12.642  20.552  0.00  0.00    +0.000 A 
ENDBRANCH  24  27
ENDBRANCH  22  24
ENDBRANCH  21  22
ENDBRANCH  19  21
ENDBRANCH  18  19
ENDBRANCH   1  18
TORSDOF 12
ENDMDL
MODEL 8
REMARK VINA RESULT:      -6.8      1.051      1.852
REMARK  Name = 
REMARK  15 active torsions:
REMARK  status: ('A' for Active; 'I' for Inactive)
REMARK    1  A    between atoms: C_1  and  O_2
REMARK    2  A    between atoms: O_2  and  C_3
REMARK    3  A    between atoms: C_3  and  C_5
REMARK    4  A    between atoms: C_7  and  N_8
REMARK    5  A    between atoms: C_9  and  C_10
REMARK    6  A    between atoms: C_10  and  O_12
REMARK    7  A    between atoms: O_12  and  C_13
REMARK    8  A    between atoms: C_14  and  C_15
REMARK    9  A    between atoms: C_15  and  O_16
REMARK   10  A    between atoms: O_16  and  C_17
REMARK   11  A    between atoms: C_17  and  C_19
REMARK   12  A    between atoms: C_19  and  N_20
REMARK   13  A    between atoms: N_20  and  S_21
REMARK   14  A    between atoms: S_21  and  C_24
REMARK   15  A    between atoms: C_27  and  C_28
REMARK                            x       y       z     vdW  Elec       q    Type
REMARK                         _______ _______ _______ _____ _____    ______ ____
ROOT
ATOM      1  C   UNL     1       2.956   6.993  18.002  0.00  0.00    +0.000 C 
ENDROOT
BRANCH   1   6
ATOM      2  C   UNL     1       5.204   5.819  17.689  0.00  0.00    +0.000 A 
ATOM      3  S   UNL     1       6.066   4.435  18.190  0.00  0.00    +0.000 S 
ATOM      4  C   UNL     1       4.785   3.861  19.145  0.00  0.00    +0.000 A 
ATOM      5  C   UNL     1       3.679   4.703  19.120  0.00  0.00    +0.000 A 
ATOM      6  C   UNL     1       3.938   5.875  18.267  0.00  0.00    +0.000 A 
BRANCH   4   7
ATOM      7  N   UNL     1       4.950   2.687  19.791  0.00  0.00    +0.000 N 
ATOM      8  H   UNL     1       5.856   2.444  20.180  0.00  0.00    +0.000 HD
ATOM      9  H   UNL     1       4.157   2.230  20.237  0.00  0.00    +0.000 HD
ENDBRANCH   4   7
BRANCH   2  10
ATOM     10  C   UNL     1       5.805   6.737  16.729  0.00  0.00    +0.000 C 
ATOM     11  O   UNL     1       6.683   7.555  16.983  0.00  0.00    +0.000 OA
BRANCH  10  13
ATOM     12  C   UNL     1       5.626   5.350  14.830  0.00  0.00    +0.000 C 
ATOM     13  O   UNL     1       5.265   6.562  15.487  0.00  0.00    +0.000 OA
ENDBRANCH  10  13
ENDBRANCH   2  10
BRANCH   5  14
ATOM     14  C   UNL     1       2.421   4.423  19.841  0.00  0.00    +0.000 C 
ATOM     15  O   UNL     1       2.319   4.447  21.061  0.00  0.00    +0.000 OA
BRANCH  14  16
ATOM     16  O   UNL     1       1.355   4.170  19.016  0.00  0.00    +0.000 OA
ATOM     17  C   UNL     1       1.274   2.824  18.545  0.00  0.00    +0.000 C 
ENDBRANCH  14  16
ENDBRANCH   5  14
ENDBRANCH   1   6
BRANCH   1  18
ATOM     18  O   UNL     1       2.507   7.687  19.182  0.00  0.00    +0.000 OA
BRANCH  18  19
ATOM     19  C   UNL     1       1.658   8.728  18.963  0.00  0.00    +0.000 C 
ATOM     20  O   UNL     1       1.558   9.344  17.910  0.00  0.00    +0.000 OA
BRANCH  19  21
ATOM     21  C   UNL     1       0.902   9.087  20.229  0.00  0.00    +0.000 C 
BRANCH  21  22
ATOM     22  N   UNL     1      -0.171  10.055  19.936  0.00  0.00    +0.000 NA
ATOM     23  H   UNL     1      -1.134   9.756  20.098  0.00  0.00    +0.000 HD
BRANCH  22  24
ATOM     24  S   UNL     1       0.066  11.649  20.402  0.00  0.00    +0.000 S 
ATOM     25  O   UNL     1       1.171  11.637  21.333  0.00  0.00    +0.000 OA
ATOM     26  O   UNL     1       0.087  12.457  19.203  0.00  0.00    +0.000 OA
BRANCH  24  27
ATOM     27  C   UNL     1      -1.404  12.014  21.319  0.00  0.00    +0.000 A 
ATOM     28  C   UNL     1      -2.503  12.570  20.662  0.00  0.00    +0.000 A 
ATOM     29  C   UNL     1      -3.655  12.879  21.389  0.00  0.00    +0.000 A 
ATOM     30  C   UNL     1      -3.714  12.627  22.766  0.00  0.00    +0.000 A 
ATOM     31  C   UNL     1      -4.931  12.993  23.566  0.00  0.00    +0.000 C 
ATOM     32  C   UNL     1      -2.614  12.036  23.405  0.00  0.00    +0.000 A 
ATOM     33  C   UNL     1      -1.460  11.727  22.685  0.00  0.00    +0.000 A 
ENDBRANCH  24  27
ENDBRANCH  22  24
ENDBRANCH  21  22
ENDBRANCH  19  21
ENDBRANCH  18  19
ENDBRANCH   1  18
TORSDOF 12
ENDMDL
MODEL 9
REMARK VINA RESULT:      -6.8      2.627      3.553
REMARK  Name = 
REMARK  15 active torsions:
REMARK  status: ('A' for Active; 'I' for Inactive)
REMARK    1  A    between atoms: C_1  and  O_2
REMARK    2  A    between atoms: O_2  and  C_3
REMARK    3  A    between atoms: C_3  and  C_5
REMARK    4  A    between atoms: C_7  and  N_8
REMARK    5  A    between atoms: C_9  and  C_10
REMARK    6  A    between atoms: C_10  and  O_12
REMARK    7  A    between atoms: O_12  and  C_13
REMARK    8  A    between atoms: C_14  and  C_15
REMARK    9  A    between atoms: C_15  and  O_16
REMARK   10  A    between atoms: O_16  and  C_17
REMARK   11  A    between atoms: C_17  and  C_19
REMARK   12  A    between atoms: C_19  and  N_20
REMARK   13  A    between atoms: N_20  and  S_21
REMARK   14  A    between atoms: S_21  and  C_24
REMARK   15  A    between atoms: C_27  and  C_28
REMARK                            x       y       z     vdW  Elec       q    Type
REMARK                         _______ _______ _______ _____ _____    ______ ____
ROOT
ATOM      1  C   UNL     1       2.624   6.685  17.941  0.00  0.00    +0.000 C 
ENDROOT
BRANCH   1   6
ATOM      2  C   UNL     1       4.950   5.671  17.641  0.00  0.00    +0.000 A 
ATOM      3  S   UNL     1       5.916   4.369  18.175  0.00  0.00    +0.000 S 
ATOM      4  C   UNL     1       4.688   3.733  19.158  0.00  0.00    +0.000 A 
ATOM      5  C   UNL     1       3.522   4.489  19.119  0.00  0.00    +0.000 A 
ATOM      6  C   UNL     1       3.688   5.651  18.229  0.00  0.00    +0.000 A 
BRANCH   4   7
ATOM      7  N   UNL     1       4.943   2.594  19.837  0.00  0.00    +0.000 N 
ATOM      8  H   UNL     1       4.973   1.705  19.346  0.00  0.00    +0.000 HD
ATOM      9  H   UNL     1       5.475   2.621  20.705  0.00  0.00    +0.000 HD
ENDBRANCH   4   7
BRANCH   2  10
ATOM     10  C   UNL     1       5.475   6.601  16.649  0.00  0.00    +0.000 C 
ATOM     11  O   UNL     1       5.368   6.476  15.433  0.00  0.00    +0.000 OA
BRANCH  10  13
ATOM     12  C   UNL     1       7.499   7.480  17.480  0.00  0.00    +0.000 C 
ATOM     13  O   UNL     1       6.102   7.652  17.254  0.00  0.00    +0.000 OA
ENDBRANCH  10  13
ENDBRANCH   2  10
BRANCH   5  14
ATOM     14  C   UNL     1       2.293   4.139  19.860  0.00  0.00    +0.000 C 
ATOM     15  O   UNL     1       2.205   4.176  21.081  0.00  0.00    +0.000 OA
BRANCH  14  16
ATOM     16  O   UNL     1       1.236   3.807  19.052  0.00  0.00    +0.000 OA
ATOM     17  C   UNL     1       1.209   2.438  18.643  0.00  0.00    +0.000 C 
ENDBRANCH  14  16
ENDBRANCH   5  14
ENDBRANCH   1   6
BRANCH   1  18
ATOM     18  O   UNL     1       2.488   7.702  18.953  0.00  0.00    +0.000 OA
BRANCH  18  19
ATOM     19  C   UNL     1       1.877   8.850  18.551  0.00  0.00    +0.000 C 
ATOM     20  O   UNL     1       2.051   9.399  17.472  0.00  0.00    +0.000 OA
BRANCH  19  21
ATOM     21  C   UNL     1       1.006   9.416  19.659  0.00  0.00    +0.000 C 
BRANCH  21  22
ATOM     22  N   UNL     1       0.365  10.671  19.225  0.00  0.00    +0.000 NA
ATOM     23  H   UNL     1      -0.492  10.598  18.674  0.00  0.00    +0.000 HD
BRANCH  22  24
ATOM     24  S   UNL     1       0.281  11.929  20.332  0.00  0.00    +0.000 S 
ATOM     25  O   UNL     1      -1.109  12.326  20.386  0.00  0.00    +0.000 OA
ATOM     26  O   UNL     1       1.005  11.520  21.515  0.00  0.00    +0.000 OA
BRANCH  24  27
ATOM     27  C   UNL     1       1.176  13.225  19.523  0.00  0.00    +0.000 A 
ATOM     28  C   UNL     1       0.696  14.534  19.588  0.00  0.00    +0.000 A 
ATOM     29  C   UNL     1       1.389  15.554  18.932  0.00  0.00    +0.000 A 
ATOM     30  C   UNL     1       2.561  15.271  18.219  0.00  0.00    +0.000 A 
ATOM     31  C   UNL     1       3.292  16.351  17.475  0.00  0.00    +0.000 C 
ATOM     32  C   UNL     1       3.049  13.957  18.192  0.00  0.00    +0.000 A 
ATOM     33  C   UNL     1       2.361  12.933  18.844  0.00  0.00    +0.000 A 
ENDBRANCH  24  27
ENDBRANCH  22  24
ENDBRANCH  21  22
ENDBRANCH  19  21
ENDBRANCH  18  19
ENDBRANCH   1  18
TORSDOF 12
ENDMDL
