MODEL 1
REMARK VINA RESULT:      -7.7      0.000      0.000
REMARK  Name = 
REMARK  3 active torsions:
REMARK  status: ('A' for Active; 'I' for Inactive)
REMARK    1  A    between atoms: C_1  and  C_2
REMARK    2  A    between atoms: C_5  and  C_6
REMARK    3  A    between atoms: N_10  and  N_11
REMARK                            x       y       z     vdW  Elec       q    Type
REMARK                         _______ _______ _______ _____ _____    ______ ____
ROOT
ATOM      1  C   UNL     1       2.611   5.833  19.903  0.00  0.00    +0.000 A 
ATOM      2  C   UNL     1       2.128   4.925  20.826  0.00  0.00    +0.000 A 
ATOM      3  S   UNL     1       2.973   3.438  20.666  0.00  0.00    +0.000 S 
ATOM      4  C   UNL     1       3.970   4.139  19.443  0.00  0.00    +0.000 A 
ATOM      5  N   UNL     1       5.012   3.440  18.917  0.00  0.00    +0.000 N 
ATOM      6  N   UNL     1       3.645   5.370  19.121  0.00  0.00    +0.000 NA
ATOM      7  H   UNL     1       5.121   2.493  19.264  0.00  0.00    +0.000 HD
ENDROOT
BRANCH   1  12
ATOM      8  C   UNL     1       0.367  11.103  19.234  0.00  0.00    +0.000 C 
ATOM      9  C   UNL     1       0.991   9.750  19.396  0.00  0.00    +0.000 A 
ATOM     10  C   UNL     1       1.670   9.132  18.339  0.00  0.00    +0.000 A 
ATOM     11  C   UNL     1       2.228   7.861  18.495  0.00  0.00    +0.000 A 
ATOM     12  C   UNL     1       2.108   7.183  19.714  0.00  0.00    +0.000 A 
ATOM     13  C   UNL     1       1.429   7.804  20.772  0.00  0.00    +0.000 A 
ATOM     14  C   UNL     1       0.880   9.078  20.618  0.00  0.00    +0.000 A 
ENDBRANCH   1  12
BRANCH   5  15
ATOM     15  N   UNL     1       6.102   4.100  18.426  0.00  0.00    +0.000 NA
ATOM     16  C   UNL     1       6.150   4.355  17.160  0.00  0.00    +0.000 C 
ATOM     17  C   UNL     1       7.374   5.000  16.566  0.00  0.00    +0.000 C 
ATOM     18  C   UNL     1       7.138   4.781  15.078  0.00  0.00    +0.000 C 
ATOM     19  C   UNL     1       5.622   4.830  14.928  0.00  0.00    +0.000 C 
ATOM     20  C   UNL     1       5.092   4.062  16.132  0.00  0.00    +0.000 C 
ENDBRANCH   5  15
TORSDOF 2
ENDMDL
MODEL 2
REMARK VINA RESULT:      -7.7      0.168      1.118
REMARK  Name = 
REMARK  3 active torsions:
REMARK  status: ('A' for Active; 'I' for Inactive)
REMARK    1  A    between atoms: C_1  and  C_2
REMARK    2  A    between atoms: C_5  and  C_6
REMARK    3  A    between atoms: N_10  and  N_11
REMARK                            x       y       z     vdW  Elec       q    Type
REMARK                         _______ _______ _______ _____ _____    ______ ____
ROOT
ATOM      1  C   UNL     1       2.597   5.816  19.862  0.00  0.00    +0.000 A 
ATOM      2  C   UNL     1       2.136   4.920  20.806  0.00  0.00    +0.000 A 
ATOM      3  S   UNL     1       3.016   3.450  20.682  0.00  0.00    +0.000 S 
ATOM      4  C   UNL     1       3.995   4.144  19.442  0.00  0.00    +0.000 A 
ATOM      5  N   UNL     1       5.054   3.457  18.932  0.00  0.00    +0.000 N 
ATOM      6  N   UNL     1       3.642   5.358  19.090  0.00  0.00    +0.000 NA
ATOM      7  H   UNL     1       5.185   2.522  19.302  0.00  0.00    +0.000 HD
ENDROOT
BRANCH   1  12
ATOM      8  C   UNL     1       0.721  11.182  18.891  0.00  0.00    +0.000 C 
ATOM      9  C   UNL     1       1.167   9.776  19.157  0.00  0.00    +0.000 A 
ATOM     10  C   UNL     1       1.004   9.188  20.418  0.00  0.00    +0.000 A 
ATOM     11  C   UNL     1       1.444   7.884  20.659  0.00  0.00    +0.000 A 
ATOM     12  C   UNL     1       2.062   7.149  19.640  0.00  0.00    +0.000 A 
ATOM     13  C   UNL     1       2.222   7.738  18.378  0.00  0.00    +0.000 A 
ATOM     14  C   UNL     1       1.774   9.038  18.135  0.00  0.00    +0.000 A 
ENDBRANCH   1  12
BRANCH   5  15
ATOM     15  N   UNL     1       6.128   4.130  18.424  0.00  0.00    +0.000 NA
ATOM     16  C   UNL     1       6.162   4.369  17.155  0.00  0.00    +0.000 C 
ATOM     17  C   UNL     1       7.370   5.028  16.544  0.00  0.00    +0.000 C 
ATOM     18  C   UNL     1       7.128   4.784  15.060  0.00  0.00    +0.000 C 
ATOM     19  C   UNL     1       5.611   4.803  14.921  0.00  0.00    +0.000 C 
ATOM     20  C   UNL     1       5.103   4.041  16.139  0.00  0.00    +0.000 C 
ENDBRANCH   5  15
TORSDOF 2
ENDMDL
MODEL 3
REMARK VINA RESULT:      -7.7      1.959      7.104
REMARK  Name = 
REMARK  3 active torsions:
REMARK  status: ('A' for Active; 'I' for Inactive)
REMARK    1  A    between atoms: C_1  and  C_2
REMARK    2  A    between atoms: C_5  and  C_6
REMARK    3  A    between atoms: N_10  and  N_11
REMARK                            x       y       z     vdW  Elec       q    Type
REMARK                         _______ _______ _______ _____ _____    ______ ____
ROOT
ATOM      1  C   UNL     1       3.204   5.183  18.680  0.00  0.00    +0.000 A 
ATOM      2  C   UNL     1       2.611   4.086  19.274  0.00  0.00    +0.000 A 
ATOM      3  S   UNL     1       1.708   4.591  20.645  0.00  0.00    +0.000 S 
ATOM      4  C   UNL     1       2.105   6.235  20.296  0.00  0.00    +0.000 A 
ATOM      5  N   UNL     1       1.565   7.246  21.029  0.00  0.00    +0.000 N 
ATOM      6  N   UNL     1       2.917   6.391  19.277  0.00  0.00    +0.000 NA
ATOM      7  H   UNL     1       0.964   6.957  21.794  0.00  0.00    +0.000 HD
ENDROOT
BRANCH   1  12
ATOM      8  C   UNL     1       6.851   4.844  14.226  0.00  0.00    +0.000 C 
ATOM      9  C   UNL     1       5.875   4.957  15.358  0.00  0.00    +0.000 A 
ATOM     10  C   UNL     1       5.455   6.205  15.833  0.00  0.00    +0.000 A 
ATOM     11  C   UNL     1       4.562   6.297  16.904  0.00  0.00    +0.000 A 
ATOM     12  C   UNL     1       4.080   5.137  17.521  0.00  0.00    +0.000 A 
ATOM     13  C   UNL     1       4.500   3.888  17.043  0.00  0.00    +0.000 A 
ATOM     14  C   UNL     1       5.385   3.796  15.967  0.00  0.00    +0.000 A 
ENDBRANCH   1  12
BRANCH   5  15
ATOM     15  N   UNL     1       1.385   8.479  20.469  0.00  0.00    +0.000 NA
ATOM     16  C   UNL     1       0.636   9.333  21.086  0.00  0.00    +0.000 C 
ATOM     17  C   UNL     1       0.341  10.669  20.457  0.00  0.00    +0.000 C 
ATOM     18  C   UNL     1      -0.810  11.161  21.325  0.00  0.00    +0.000 C 
ATOM     19  C   UNL     1      -0.520  10.574  22.700  0.00  0.00    +0.000 C 
ATOM     20  C   UNL     1      -0.037   9.157  22.419  0.00  0.00    +0.000 C 
ENDBRANCH   5  15
TORSDOF 2
ENDMDL
MODEL 4
REMARK VINA RESULT:      -7.7      1.966      7.052
REMARK  Name = 
REMARK  3 active torsions:
REMARK  status: ('A' for Active; 'I' for Inactive)
REMARK    1  A    between atoms: C_1  and  C_2
REMARK    2  A    between atoms: C_5  and  C_6
REMARK    3  A    between atoms: N_10  and  N_11
REMARK                            x       y       z     vdW  Elec       q    Type
REMARK                         _______ _______ _______ _____ _____    ______ ____
ROOT
ATOM      1  C   UNL     1       3.069   4.987  18.682  0.00  0.00    +0.000 A 
ATOM      2  C   UNL     1       2.271   3.936  19.088  0.00  0.00    +0.000 A 
ATOM      3  S   UNL     1       1.312   4.425  20.426  0.00  0.00    +0.000 S 
ATOM      4  C   UNL     1       1.968   6.018  20.310  0.00  0.00    +0.000 A 
ATOM      5  N   UNL     1       1.501   7.016  21.108  0.00  0.00    +0.000 N 
ATOM      6  N   UNL     1       2.894   6.156  19.390  0.00  0.00    +0.000 NA
ATOM      7  H   UNL     1       0.791   6.743  21.778  0.00  0.00    +0.000 HD
ENDROOT
BRANCH   1  12
ATOM      8  C   UNL     1       6.768   4.918  14.257  0.00  0.00    +0.000 C 
ATOM      9  C   UNL     1       5.837   4.912  15.432  0.00  0.00    +0.000 A 
ATOM     10  C   UNL     1       5.422   3.713  16.024  0.00  0.00    +0.000 A 
ATOM     11  C   UNL     1       4.536   3.720  17.105  0.00  0.00    +0.000 A 
ATOM     12  C   UNL     1       4.044   4.932  17.605  0.00  0.00    +0.000 A 
ATOM     13  C   UNL     1       4.463   6.131  17.012  0.00  0.00    +0.000 A 
ATOM     14  C   UNL     1       5.355   6.124  15.939  0.00  0.00    +0.000 A 
ENDBRANCH   1  12
BRANCH   5  15
ATOM     15  N   UNL     1       1.553   8.314  20.684  0.00  0.00    +0.000 NA
ATOM     16  C   UNL     1       0.773   9.177  21.245  0.00  0.00    +0.000 C 
ATOM     17  C   UNL     1       0.736  10.597  20.745  0.00  0.00    +0.000 C 
ATOM     18  C   UNL     1      -0.521  11.123  21.425  0.00  0.00    +0.000 C 
ATOM     19  C   UNL     1      -0.578  10.364  22.745  0.00  0.00    +0.000 C 
ATOM     20  C   UNL     1      -0.176   8.939  22.387  0.00  0.00    +0.000 C 
ENDBRANCH   5  15
TORSDOF 2
ENDMDL
MODEL 5
REMARK VINA RESULT:      -7.4      3.374      5.092
REMARK  Name = 
REMARK  3 active torsions:
REMARK  status: ('A' for Active; 'I' for Inactive)
REMARK    1  A    between atoms: C_1  and  C_2
REMARK    2  A    between atoms: C_5  and  C_6
REMARK    3  A    between atoms: N_10  and  N_11
REMARK                            x       y       z     vdW  Elec       q    Type
REMARK                         _______ _______ _______ _____ _____    ______ ____
ROOT
ATOM      1  C   UNL     1       0.787   9.635  19.908  0.00  0.00    +0.000 A 
ATOM      2  C   UNL     1       1.098  10.038  18.624  0.00  0.00    +0.000 A 
ATOM      3  S   UNL     1       2.173   8.904  17.909  0.00  0.00    +0.000 S 
ATOM      4  C   UNL     1       2.076   7.924  19.327  0.00  0.00    +0.000 A 
ATOM      5  N   UNL     1       2.686   6.708  19.368  0.00  0.00    +0.000 N 
ATOM      6  N   UNL     1       1.357   8.442  20.295  0.00  0.00    +0.000 NA
ATOM      7  H   UNL     1       3.216   6.458  18.540  0.00  0.00    +0.000 HD
ENDROOT
BRANCH   1  12
ATOM      8  C   UNL     1      -2.703  12.305  23.643  0.00  0.00    +0.000 C 
ATOM      9  C   UNL     1      -1.775  11.650  22.664  0.00  0.00    +0.000 A 
ATOM     10  C   UNL     1      -1.677  12.103  21.342  0.00  0.00    +0.000 A 
ATOM     11  C   UNL     1      -0.825  11.470  20.434  0.00  0.00    +0.000 A 
ATOM     12  C   UNL     1      -0.061  10.367  20.834  0.00  0.00    +0.000 A 
ATOM     13  C   UNL     1      -0.159   9.917  22.158  0.00  0.00    +0.000 A 
ATOM     14  C   UNL     1      -1.003  10.555  23.068  0.00  0.00    +0.000 A 
ENDBRANCH   1  12
BRANCH   5  15
ATOM     15  N   UNL     1       2.188   5.718  20.165  0.00  0.00    +0.000 NA
ATOM     16  C   UNL     1       1.851   4.597  19.618  0.00  0.00    +0.000 C 
ATOM     17  C   UNL     1       1.214   3.514  20.448  0.00  0.00    +0.000 C 
ATOM     18  C   UNL     1       0.685   2.579  19.368  0.00  0.00    +0.000 C 
ATOM     19  C   UNL     1       1.685   2.720  18.228  0.00  0.00    +0.000 C 
ATOM     20  C   UNL     1       1.999   4.210  18.173  0.00  0.00    +0.000 C 
ENDBRANCH   5  15
TORSDOF 2
ENDMDL
MODEL 6
REMARK VINA RESULT:      -7.4      5.058      7.576
REMARK  Name = 
REMARK  3 active torsions:
REMARK  status: ('A' for Active; 'I' for Inactive)
REMARK    1  A    between atoms: C_1  and  C_2
REMARK    2  A    between atoms: C_5  and  C_6
REMARK    3  A    between atoms: N_10  and  N_11
REMARK                            x       y       z     vdW  Elec       q    Type
REMARK                         _______ _______ _______ _____ _____    ______ ____
ROOT
ATOM      1  C   UNL     1       7.036   5.443  16.927  0.00  0.00    +0.000 A 
ATOM      2  C   UNL     1       6.820   4.792  18.125  0.00  0.00    +0.000 A 
ATOM      3  S   UNL     1       7.498   5.710  19.409  0.00  0.00    +0.000 S 
ATOM      4  C   UNL     1       7.951   6.941  18.286  0.00  0.00    +0.000 A 
ATOM      5  N   UNL     1       8.501   8.105  18.724  0.00  0.00    +0.000 N 
ATOM      6  N   UNL     1       7.687   6.653  17.033  0.00  0.00    +0.000 NA
ATOM      7  H   UNL     1       8.653   8.167  19.725  0.00  0.00    +0.000 HD
ENDROOT
BRANCH   1  12
ATOM      8  C   UNL     1       5.450   3.217  11.849  0.00  0.00    +0.000 C 
ATOM      9  C   UNL     1       5.864   3.837  13.150  0.00  0.00    +0.000 A 
ATOM     10  C   UNL     1       7.050   4.572  13.258  0.00  0.00    +0.000 A 
ATOM     11  C   UNL     1       7.437   5.126  14.481  0.00  0.00    +0.000 A 
ATOM     12  C   UNL     1       6.642   4.945  15.619  0.00  0.00    +0.000 A 
ATOM     13  C   UNL     1       5.454   4.210  15.508  0.00  0.00    +0.000 A 
ATOM     14  C   UNL     1       5.063   3.665  14.284  0.00  0.00    +0.000 A 
ENDBRANCH   1  12
BRANCH   5  15
ATOM     15  N   UNL     1       8.340   9.254  18.002  0.00  0.00    +0.000 NA
ATOM     16  C   UNL     1       8.874  10.342  18.448  0.00  0.00    +0.000 C 
ATOM     17  C   UNL     1       8.643  11.645  17.729  0.00  0.00    +0.000 C 
ATOM     18  C   UNL     1       9.133  12.650  18.764  0.00  0.00    +0.000 C 
ATOM     19  C   UNL     1      10.254  11.920  19.494  0.00  0.00    +0.000 C 
ATOM     20  C   UNL     1       9.734  10.499  19.672  0.00  0.00    +0.000 C 
ENDBRANCH   5  15
TORSDOF 2
ENDMDL
MODEL 7
REMARK VINA RESULT:      -7.4      3.343      5.070
REMARK  Name = 
REMARK  3 active torsions:
REMARK  status: ('A' for Active; 'I' for Inactive)
REMARK    1  A    between atoms: C_1  and  C_2
REMARK    2  A    between atoms: C_5  and  C_6
REMARK    3  A    between atoms: N_10  and  N_11
REMARK                            x       y       z     vdW  Elec       q    Type
REMARK                         _______ _______ _______ _____ _____    ______ ____
ROOT
ATOM      1  C   UNL     1       0.836   9.470  19.909  0.00  0.00    +0.000 A 
ATOM      2  C   UNL     1       1.138   9.876  18.624  0.00  0.00    +0.000 A 
ATOM      3  S   UNL     1       2.243   8.768  17.916  0.00  0.00    +0.000 S 
ATOM      4  C   UNL     1       2.170   7.791  19.337  0.00  0.00    +0.000 A 
ATOM      5  N   UNL     1       2.812   6.592  19.384  0.00  0.00    +0.000 N 
ATOM      6  N   UNL     1       1.436   8.294  20.302  0.00  0.00    +0.000 NA
ATOM      7  H   UNL     1       3.349   6.353  18.558  0.00  0.00    +0.000 HD
ENDROOT
BRANCH   1  12
ATOM      8  C   UNL     1      -2.475  12.532  23.504  0.00  0.00    +0.000 C 
ATOM      9  C   UNL     1      -1.638  11.699  22.580  0.00  0.00    +0.000 A 
ATOM     10  C   UNL     1      -0.958  10.565  23.040  0.00  0.00    +0.000 A 
ATOM     11  C   UNL     1      -0.164   9.810  22.174  0.00  0.00    +0.000 A 
ATOM     12  C   UNL     1      -0.032  10.184  20.831  0.00  0.00    +0.000 A 
ATOM     13  C   UNL     1      -0.716  11.318  20.372  0.00  0.00    +0.000 A 
ATOM     14  C   UNL     1      -1.517  12.067  21.236  0.00  0.00    +0.000 A 
ENDBRANCH   1  12
BRANCH   5  15
ATOM     15  N   UNL     1       2.339   5.592  20.185  0.00  0.00    +0.000 NA
ATOM     16  C   UNL     1       1.933   4.498  19.630  0.00  0.00    +0.000 C 
ATOM     17  C   UNL     1       1.322   3.408  20.471  0.00  0.00    +0.000 C 
ATOM     18  C   UNL     1       0.694   2.522  19.403  0.00  0.00    +0.000 C 
ATOM     19  C   UNL     1       1.621   2.669  18.202  0.00  0.00    +0.000 C 
ATOM     20  C   UNL     1       1.974   4.150  18.168  0.00  0.00    +0.000 C 
ENDBRANCH   5  15
TORSDOF 2
ENDMDL
MODEL 8
REMARK VINA RESULT:      -7.2      1.669      2.046
REMARK  Name = 
REMARK  3 active torsions:
REMARK  status: ('A' for Active; 'I' for Inactive)
REMARK    1  A    between atoms: C_1  and  C_2
REMARK    2  A    between atoms: C_5  and  C_6
REMARK    3  A    between atoms: N_10  and  N_11
REMARK                            x       y       z     vdW  Elec       q    Type
REMARK                         _______ _______ _______ _____ _____    ______ ____
ROOT
ATOM      1  C   UNL     1       3.457   5.568  18.493  0.00  0.00    +0.000 A 
ATOM      2  C   UNL     1       3.376   4.511  19.378  0.00  0.00    +0.000 A 
ATOM      3  S   UNL     1       4.242   3.167  18.751  0.00  0.00    +0.000 S 
ATOM      4  C   UNL     1       4.728   4.117  17.394  0.00  0.00    +0.000 A 
ATOM      5  N   UNL     1       5.597   3.615  16.475  0.00  0.00    +0.000 N 
ATOM      6  N   UNL     1       4.217   5.325  17.369  0.00  0.00    +0.000 NA
ATOM      7  H   UNL     1       5.890   2.656  16.631  0.00  0.00    +0.000 HD
ENDROOT
BRANCH   1  12
ATOM      8  C   UNL     1       0.662  10.554  19.252  0.00  0.00    +0.000 C 
ATOM      9  C   UNL     1       1.426   9.281  19.044  0.00  0.00    +0.000 A 
ATOM     10  C   UNL     1       2.070   9.011  17.831  0.00  0.00    +0.000 A 
ATOM     11  C   UNL     1       2.761   7.811  17.642  0.00  0.00    +0.000 A 
ATOM     12  C   UNL     1       2.810   6.858  18.666  0.00  0.00    +0.000 A 
ATOM     13  C   UNL     1       2.166   7.131  19.881  0.00  0.00    +0.000 A 
ATOM     14  C   UNL     1       1.485   8.334  20.072  0.00  0.00    +0.000 A 
ENDBRANCH   1  12
BRANCH   5  15
ATOM     15  N   UNL     1       6.411   4.455  15.771  0.00  0.00    +0.000 NA
ATOM     16  C   UNL     1       6.484   4.312  14.489  0.00  0.00    +0.000 C 
ATOM     17  C   UNL     1       7.438   5.158  13.688  0.00  0.00    +0.000 C 
ATOM     18  C   UNL     1       7.442   4.425  12.353  0.00  0.00    +0.000 C 
ATOM     19  C   UNL     1       6.036   3.850  12.237  0.00  0.00    +0.000 C 
ATOM     20  C   UNL     1       5.711   3.343  13.637  0.00  0.00    +0.000 C 
ENDBRANCH   5  15
TORSDOF 2
ENDMDL
MODEL 9
REMARK VINA RESULT:      -7.2      1.519      2.146
REMARK  Name = 
REMARK  3 active torsions:
REMARK  status: ('A' for Active; 'I' for Inactive)
REMARK    1  A    between atoms: C_1  and  C_2
REMARK    2  A    between atoms: C_5  and  C_6
REMARK    3  A    between atoms: N_10  and  N_11
REMARK                            x       y       z     vdW  Elec       q    Type
REMARK                         _______ _______ _______ _____ _____    ______ ____
ROOT
ATOM      1  C   UNL     1       3.438   5.615  18.718  0.00  0.00    +0.000 A 
ATOM      2  C   UNL     1       3.431   4.602  19.657  0.00  0.00    +0.000 A 
ATOM      3  S   UNL     1       4.386   3.289  19.094  0.00  0.00    +0.000 S 
ATOM      4  C   UNL     1       4.803   4.200  17.688  0.00  0.00    +0.000 A 
ATOM      5  N   UNL     1       5.703   3.712  16.791  0.00  0.00    +0.000 N 
ATOM      6  N   UNL     1       4.210   5.368  17.604  0.00  0.00    +0.000 NA
ATOM      7  H   UNL     1       6.061   2.784  16.994  0.00  0.00    +0.000 HD
ENDROOT
BRANCH   1  12
ATOM      8  C   UNL     1       0.756  10.707  19.079  0.00  0.00    +0.000 C 
ATOM      9  C   UNL     1       1.414   9.363  18.997  0.00  0.00    +0.000 A 
ATOM     10  C   UNL     1       1.426   8.492  20.093  0.00  0.00    +0.000 A 
ATOM     11  C   UNL     1       2.062   7.251  20.011  0.00  0.00    +0.000 A 
ATOM     12  C   UNL     1       2.705   6.865  18.829  0.00  0.00    +0.000 A 
ATOM     13  C   UNL     1       2.691   7.737  17.732  0.00  0.00    +0.000 A 
ATOM     14  C   UNL     1       2.047   8.973  17.811  0.00  0.00    +0.000 A 
ENDBRANCH   1  12
BRANCH   5  15
ATOM     15  N   UNL     1       6.456   4.568  16.040  0.00  0.00    +0.000 NA
ATOM     16  C   UNL     1       6.503   4.389  14.761  0.00  0.00    +0.000 C 
ATOM     17  C   UNL     1       7.393   5.255  13.911  0.00  0.00    +0.000 C 
ATOM     18  C   UNL     1       7.400   4.482  12.599  0.00  0.00    +0.000 C 
ATOM     19  C   UNL     1       6.022   3.835  12.537  0.00  0.00    +0.000 C 
ATOM     20  C   UNL     1       5.758   3.357  13.960  0.00  0.00    +0.000 C 
ENDBRANCH   5  15
TORSDOF 2
ENDMDL
