MODEL 1
REMARK VINA RESULT:      -6.7      0.000      0.000
REMARK  Name = 
REMARK  5 active torsions:
REMARK  status: ('A' for Active; 'I' for Inactive)
REMARK    1  A    between atoms: C_1  and  C_2
REMARK    2  A    between atoms: C_4  and  C_5
REMARK    3  A    between atoms: C_5  and  C_6
REMARK    4  A    between atoms: C_10  and  C_11
REMARK    5  A    between atoms: C_19  and  C_20
REMARK                            x       y       z     vdW  Elec       q    Type
REMARK                         _______ _______ _______ _____ _____    ______ ____
ROOT
ATOM      1  C   UNL     1       7.190   5.155  16.538  0.00  0.00    +0.000 C 
ATOM      2  O   UNL     1       7.764   4.084  16.758  0.00  0.00    +0.000 OA
ATOM      3  N   UNL     1       6.344   5.695  17.487  0.00  0.00    +0.000 N 
ATOM      4  C   UNL     1       6.345   5.145  18.836  0.00  0.00    +0.000 C 
ATOM      5  C   UNL     1       4.910   5.347  19.309  0.00  0.00    +0.000 C 
ATOM      6  C   UNL     1       4.610   6.747  18.732  0.00  0.00    +0.000 C 
ATOM      7  C   UNL     1       5.451   6.859  17.432  0.00  0.00    +0.000 C 
ATOM      8  C   UNL     1       4.524   6.969  16.226  0.00  0.00    +0.000 C 
ENDROOT
BRANCH   5   9
ATOM      9  C   UNL     1       3.924   4.266  18.868  0.00  0.00    +0.000 A 
ATOM     10  C   UNL     1       4.249   2.895  18.847  0.00  0.00    +0.000 A 
ATOM     11  C   UNL     1       3.297   1.930  18.512  0.00  0.00    +0.000 A 
ATOM     12  C   UNL     1       2.009   2.325  18.187  0.00  0.00    +0.000 A 
ATOM     13  F   UNL     1       1.094   1.399  17.877  0.00  0.00    +0.000 F 
ATOM     14  C   UNL     1       1.657   3.669  18.190  0.00  0.00    +0.000 A 
ATOM     15  C   UNL     1       2.608   4.635  18.535  0.00  0.00    +0.000 A 
ENDBRANCH   5   9
BRANCH   1  16
ATOM     16  C   UNL     1       7.338   5.874  15.210  0.00  0.00    +0.000 C 
BRANCH  16  20
ATOM     17  C   UNL     1       5.509   2.434  11.899  0.00  0.00    +0.000 C 
ATOM     18  C   UNL     1       6.161   3.507  12.668  0.00  0.00    +0.000 A 
ATOM     19  C   UNL     1       6.003   4.008  13.936  0.00  0.00    +0.000 A 
ATOM     20  C   UNL     1       7.009   4.999  14.048  0.00  0.00    +0.000 A 
ATOM     21  N   UNL     1       7.690   5.122  12.901  0.00  0.00    +0.000 NA
ATOM     22  O   UNL     1       7.163   4.179  12.042  0.00  0.00    +0.000 OA
ENDBRANCH  16  20
ENDBRANCH   1  16
TORSDOF 3
ENDMDL
MODEL 2
REMARK VINA RESULT:      -6.7      3.057      4.780
REMARK  Name = 
REMARK  5 active torsions:
REMARK  status: ('A' for Active; 'I' for Inactive)
REMARK    1  A    between atoms: C_1  and  C_2
REMARK    2  A    between atoms: C_4  and  C_5
REMARK    3  A    between atoms: C_5  and  C_6
REMARK    4  A    between atoms: C_10  and  C_11
REMARK    5  A    between atoms: C_19  and  C_20
REMARK                            x       y       z     vdW  Elec       q    Type
REMARK                         _______ _______ _______ _____ _____    ______ ____
ROOT
ATOM      1  C   UNL     1       4.949   4.198  16.585  0.00  0.00    +0.000 C 
ATOM      2  O   UNL     1       4.458   4.827  15.642  0.00  0.00    +0.000 OA
ATOM      3  N   UNL     1       4.129   3.623  17.536  0.00  0.00    +0.000 N 
ATOM      4  C   UNL     1       2.698   3.528  17.278  0.00  0.00    +0.000 C 
ATOM      5  C   UNL     1       2.073   3.632  18.664  0.00  0.00    +0.000 C 
ATOM      6  C   UNL     1       3.062   2.783  19.491  0.00  0.00    +0.000 C 
ATOM      7  C   UNL     1       4.444   2.952  18.803  0.00  0.00    +0.000 C 
ATOM      8  C   UNL     1       5.407   3.665  19.747  0.00  0.00    +0.000 C 
ENDROOT
BRANCH   5   9
ATOM      9  C   UNL     1       1.885   5.056  19.187  0.00  0.00    +0.000 A 
ATOM     10  C   UNL     1       1.467   5.340  20.502  0.00  0.00    +0.000 A 
ATOM     11  C   UNL     1       1.381   6.654  20.967  0.00  0.00    +0.000 A 
ATOM     12  C   UNL     1       1.707   7.700  20.120  0.00  0.00    +0.000 A 
ATOM     13  F   UNL     1       1.636   8.959  20.569  0.00  0.00    +0.000 F 
ATOM     14  C   UNL     1       2.116   7.456  18.815  0.00  0.00    +0.000 A 
ATOM     15  C   UNL     1       2.211   6.140  18.351  0.00  0.00    +0.000 A 
ENDBRANCH   5   9
BRANCH   1  16
ATOM     16  C   UNL     1       6.451   4.092  16.769  0.00  0.00    +0.000 C 
BRANCH  16  20
ATOM     17  C   UNL     1       8.446   8.408  18.650  0.00  0.00    +0.000 C 
ATOM     18  C   UNL     1       7.951   7.242  17.898  0.00  0.00    +0.000 A 
ATOM     19  C   UNL     1       7.393   6.040  18.254  0.00  0.00    +0.000 A 
ATOM     20  C   UNL     1       7.090   5.416  17.019  0.00  0.00    +0.000 A 
ATOM     21  N   UNL     1       7.490   6.174  15.989  0.00  0.00    +0.000 NA
ATOM     22  O   UNL     1       8.020   7.321  16.543  0.00  0.00    +0.000 OA
ENDBRANCH  16  20
ENDBRANCH   1  16
TORSDOF 3
ENDMDL
MODEL 3
REMARK VINA RESULT:      -6.6      3.238      5.043
REMARK  Name = 
REMARK  5 active torsions:
REMARK  status: ('A' for Active; 'I' for Inactive)
REMARK    1  A    between atoms: C_1  and  C_2
REMARK    2  A    between atoms: C_4  and  C_5
REMARK    3  A    between atoms: C_5  and  C_6
REMARK    4  A    between atoms: C_10  and  C_11
REMARK    5  A    between atoms: C_19  and  C_20
REMARK                            x       y       z     vdW  Elec       q    Type
REMARK                         _______ _______ _______ _____ _____    ______ ____
ROOT
ATOM      1  C   UNL     1       5.453   4.895  16.630  0.00  0.00    +0.000 C 
ATOM      2  O   UNL     1       5.059   5.638  15.726  0.00  0.00    +0.000 OA
ATOM      3  N   UNL     1       4.542   4.191  17.394  0.00  0.00    +0.000 N 
ATOM      4  C   UNL     1       3.155   4.117  16.957  0.00  0.00    +0.000 C 
ATOM      5  C   UNL     1       2.370   4.029  18.261  0.00  0.00    +0.000 C 
ATOM      6  C   UNL     1       3.278   3.087  19.081  0.00  0.00    +0.000 C 
ATOM      7  C   UNL     1       4.725   3.360  18.591  0.00  0.00    +0.000 C 
ATOM      8  C   UNL     1       5.553   3.950  19.727  0.00  0.00    +0.000 C 
ENDROOT
BRANCH   5   9
ATOM      9  C   UNL     1       2.087   5.369  18.940  0.00  0.00    +0.000 A 
ATOM     10  C   UNL     1       1.656   5.474  20.277  0.00  0.00    +0.000 A 
ATOM     11  C   UNL     1       1.482   6.718  20.887  0.00  0.00    +0.000 A 
ATOM     12  C   UNL     1       1.731   7.873  20.164  0.00  0.00    +0.000 A 
ATOM     13  F   UNL     1       1.574   9.065  20.751  0.00  0.00    +0.000 F 
ATOM     14  C   UNL     1       2.149   7.806  18.841  0.00  0.00    +0.000 A 
ATOM     15  C   UNL     1       2.333   6.560  18.232  0.00  0.00    +0.000 A 
ENDBRANCH   5   9
BRANCH   1  16
ATOM     16  C   UNL     1       6.926   4.780  16.975  0.00  0.00    +0.000 C 
BRANCH  16  20
ATOM     17  C   UNL     1       8.469   9.512  18.145  0.00  0.00    +0.000 C 
ATOM     18  C   UNL     1       8.089   8.094  18.030  0.00  0.00    +0.000 A 
ATOM     19  C   UNL     1       7.431   7.353  17.081  0.00  0.00    +0.000 A 
ATOM     20  C   UNL     1       7.468   6.029  17.583  0.00  0.00    +0.000 A 
ATOM     21  N   UNL     1       8.064   5.988  18.782  0.00  0.00    +0.000 NA
ATOM     22  O   UNL     1       8.460   7.282  19.055  0.00  0.00    +0.000 OA
ENDBRANCH  16  20
ENDBRANCH   1  16
TORSDOF 3
ENDMDL
MODEL 4
REMARK VINA RESULT:      -6.6      2.834      3.839
REMARK  Name = 
REMARK  5 active torsions:
REMARK  status: ('A' for Active; 'I' for Inactive)
REMARK    1  A    between atoms: C_1  and  C_2
REMARK    2  A    between atoms: C_4  and  C_5
REMARK    3  A    between atoms: C_5  and  C_6
REMARK    4  A    between atoms: C_10  and  C_11
REMARK    5  A    between atoms: C_19  and  C_20
REMARK                            x       y       z     vdW  Elec       q    Type
REMARK                         _______ _______ _______ _____ _____    ______ ____
ROOT
ATOM      1  C   UNL     1       4.912   4.270  16.586  0.00  0.00    +0.000 C 
ATOM      2  O   UNL     1       4.157   4.390  15.617  0.00  0.00    +0.000 OA
ATOM      3  N   UNL     1       4.392   4.165  17.862  0.00  0.00    +0.000 N 
ATOM      4  C   UNL     1       2.966   3.925  18.030  0.00  0.00    +0.000 C 
ATOM      5  C   UNL     1       2.633   4.627  19.342  0.00  0.00    +0.000 C 
ATOM      6  C   UNL     1       3.878   4.271  20.183  0.00  0.00    +0.000 C 
ATOM      7  C   UNL     1       5.051   4.149  19.174  0.00  0.00    +0.000 C 
ATOM      8  C   UNL     1       6.083   5.237  19.448  0.00  0.00    +0.000 C 
ENDROOT
BRANCH   5   9
ATOM      9  C   UNL     1       2.368   6.128  19.225  0.00  0.00    +0.000 A 
ATOM     10  C   UNL     1       2.500   6.836  18.015  0.00  0.00    +0.000 A 
ATOM     11  C   UNL     1       2.174   8.192  17.930  0.00  0.00    +0.000 A 
ATOM     12  C   UNL     1       1.719   8.856  19.056  0.00  0.00    +0.000 A 
ATOM     13  F   UNL     1       1.396  10.152  18.973  0.00  0.00    +0.000 F 
ATOM     14  C   UNL     1       1.584   8.190  20.268  0.00  0.00    +0.000 A 
ATOM     15  C   UNL     1       1.901   6.830  20.351  0.00  0.00    +0.000 A 
ENDBRANCH   5   9
BRANCH   1  16
ATOM     16  C   UNL     1       6.421   4.299  16.423  0.00  0.00    +0.000 C 
BRANCH  16  20
ATOM     17  C   UNL     1       7.256   4.278  11.379  0.00  0.00    +0.000 C 
ATOM     18  C   UNL     1       7.137   4.489  12.831  0.00  0.00    +0.000 A 
ATOM     19  C   UNL     1       6.439   3.865  13.835  0.00  0.00    +0.000 A 
ATOM     20  C   UNL     1       6.836   4.545  15.012  0.00  0.00    +0.000 A 
ATOM     21  N   UNL     1       7.678   5.547  14.725  0.00  0.00    +0.000 NA
ATOM     22  O   UNL     1       7.872   5.503  13.360  0.00  0.00    +0.000 OA
ENDBRANCH  16  20
ENDBRANCH   1  16
TORSDOF 3
ENDMDL
MODEL 5
REMARK VINA RESULT:      -6.6      3.285      5.134
REMARK  Name = 
REMARK  5 active torsions:
REMARK  status: ('A' for Active; 'I' for Inactive)
REMARK    1  A    between atoms: C_1  and  C_2
REMARK    2  A    between atoms: C_4  and  C_5
REMARK    3  A    between atoms: C_5  and  C_6
REMARK    4  A    between atoms: C_10  and  C_11
REMARK    5  A    between atoms: C_19  and  C_20
REMARK                            x       y       z     vdW  Elec       q    Type
REMARK                         _______ _______ _______ _____ _____    ______ ____
ROOT
ATOM      1  C   UNL     1       5.413   4.978  16.602  0.00  0.00    +0.000 C 
ATOM      2  O   UNL     1       4.995   5.631  15.640  0.00  0.00    +0.000 OA
ATOM      3  N   UNL     1       4.523   4.384  17.475  0.00  0.00    +0.000 N 
ATOM      4  C   UNL     1       3.116   4.302  17.110  0.00  0.00    +0.000 C 
ATOM      5  C   UNL     1       2.390   4.376  18.449  0.00  0.00    +0.000 C 
ATOM      6  C   UNL     1       3.313   3.503  19.326  0.00  0.00    +0.000 C 
ATOM      7  C   UNL     1       4.742   3.682  18.746  0.00  0.00    +0.000 C 
ATOM      8  C   UNL     1       5.634   4.368  19.776  0.00  0.00    +0.000 C 
ENDROOT
BRANCH   5   9
ATOM      9  C   UNL     1       2.168   5.788  18.990  0.00  0.00    +0.000 A 
ATOM     10  C   UNL     1       2.292   6.942  18.191  0.00  0.00    +0.000 A 
ATOM     11  C   UNL     1       2.006   8.210  18.701  0.00  0.00    +0.000 A 
ATOM     12  C   UNL     1       1.599   8.340  20.019  0.00  0.00    +0.000 A 
ATOM     13  F   UNL     1       1.314   9.554  20.505  0.00  0.00    +0.000 F 
ATOM     14  C   UNL     1       1.474   7.224  20.836  0.00  0.00    +0.000 A 
ATOM     15  C   UNL     1       1.751   5.952  20.323  0.00  0.00    +0.000 A 
ENDBRANCH   5   9
BRANCH   1  16
ATOM     16  C   UNL     1       6.897   4.860  16.894  0.00  0.00    +0.000 C 
BRANCH  16  20
ATOM     17  C   UNL     1       8.459   9.570  18.130  0.00  0.00    +0.000 C 
ATOM     18  C   UNL     1       8.083   8.153  17.992  0.00  0.00    +0.000 A 
ATOM     19  C   UNL     1       7.392   7.433  17.049  0.00  0.00    +0.000 A 
ATOM     20  C   UNL     1       7.456   6.096  17.513  0.00  0.00    +0.000 A 
ATOM     21  N   UNL     1       8.098   6.028  18.687  0.00  0.00    +0.000 NA
ATOM     22  O   UNL     1       8.497   7.316  18.979  0.00  0.00    +0.000 OA
ENDBRANCH  16  20
ENDBRANCH   1  16
TORSDOF 3
ENDMDL
MODEL 6
REMARK VINA RESULT:      -6.6      0.999      1.061
REMARK  Name = 
REMARK  5 active torsions:
REMARK  status: ('A' for Active; 'I' for Inactive)
REMARK    1  A    between atoms: C_1  and  C_2
REMARK    2  A    between atoms: C_4  and  C_5
REMARK    3  A    between atoms: C_5  and  C_6
REMARK    4  A    between atoms: C_10  and  C_11
REMARK    5  A    between atoms: C_19  and  C_20
REMARK                            x       y       z     vdW  Elec       q    Type
REMARK                         _______ _______ _______ _____ _____    ______ ____
ROOT
ATOM      1  C   UNL     1       6.191   5.148  16.936  0.00  0.00    +0.000 C 
ATOM      2  O   UNL     1       6.729   4.043  17.053  0.00  0.00    +0.000 OA
ATOM      3  N   UNL     1       5.409   5.650  17.959  0.00  0.00    +0.000 N 
ATOM      4  C   UNL     1       5.444   5.004  19.263  0.00  0.00    +0.000 C 
ATOM      5  C   UNL     1       4.040   5.225  19.814  0.00  0.00    +0.000 C 
ATOM      6  C   UNL     1       3.774   6.674  19.352  0.00  0.00    +0.000 C 
ATOM      7  C   UNL     1       4.564   6.848  18.027  0.00  0.00    +0.000 C 
ATOM      8  C   UNL     1       3.592   7.081  16.875  0.00  0.00    +0.000 C 
ENDROOT
BRANCH   5   9
ATOM      9  C   UNL     1       2.992   4.218  19.342  0.00  0.00    +0.000 A 
ATOM     10  C   UNL     1       3.221   3.311  18.289  0.00  0.00    +0.000 A 
ATOM     11  C   UNL     1       2.268   2.353  17.937  0.00  0.00    +0.000 A 
ATOM     12  C   UNL     1       1.070   2.296  18.630  0.00  0.00    +0.000 A 
ATOM     13  F   UNL     1       0.161   1.371  18.300  0.00  0.00    +0.000 F 
ATOM     14  C   UNL     1       0.808   3.180  19.669  0.00  0.00    +0.000 A 
ATOM     15  C   UNL     1       1.767   4.133  20.028  0.00  0.00    +0.000 A 
ENDBRANCH   5   9
BRANCH   1  16
ATOM     16  C   UNL     1       6.312   5.956  15.658  0.00  0.00    +0.000 C 
BRANCH  16  20
ATOM     17  C   UNL     1       5.697   2.569  11.877  0.00  0.00    +0.000 C 
ATOM     18  C   UNL     1       6.058   3.625  12.838  0.00  0.00    +0.000 A 
ATOM     19  C   UNL     1       5.475   4.123  13.976  0.00  0.00    +0.000 A 
ATOM     20  C   UNL     1       6.395   5.093  14.444  0.00  0.00    +0.000 A 
ATOM     21  N   UNL     1       7.437   5.207  13.609  0.00  0.00    +0.000 NA
ATOM     22  O   UNL     1       7.227   4.280  12.610  0.00  0.00    +0.000 OA
ENDBRANCH  16  20
ENDBRANCH   1  16
TORSDOF 3
ENDMDL
MODEL 7
REMARK VINA RESULT:      -6.5      2.760      3.761
REMARK  Name = 
REMARK  5 active torsions:
REMARK  status: ('A' for Active; 'I' for Inactive)
REMARK    1  A    between atoms: C_1  and  C_2
REMARK    2  A    between atoms: C_4  and  C_5
REMARK    3  A    between atoms: C_5  and  C_6
REMARK    4  A    between atoms: C_10  and  C_11
REMARK    5  A    between atoms: C_19  and  C_20
REMARK                            x       y       z     vdW  Elec       q    Type
REMARK                         _______ _______ _______ _____ _____    ______ ____
ROOT
ATOM      1  C   UNL     1       4.940   4.258  16.583  0.00  0.00    +0.000 C 
ATOM      2  O   UNL     1       4.175   4.359  15.619  0.00  0.00    +0.000 OA
ATOM      3  N   UNL     1       4.433   4.085  17.856  0.00  0.00    +0.000 N 
ATOM      4  C   UNL     1       3.025   3.753  18.022  0.00  0.00    +0.000 C 
ATOM      5  C   UNL     1       2.656   4.397  19.354  0.00  0.00    +0.000 C 
ATOM      6  C   UNL     1       3.924   4.093  20.181  0.00  0.00    +0.000 C 
ATOM      7  C   UNL     1       5.098   4.071  19.165  0.00  0.00    +0.000 C 
ATOM      8  C   UNL     1       6.063   5.212  19.468  0.00  0.00    +0.000 C 
ENDROOT
BRANCH   5   9
ATOM      9  C   UNL     1       2.300   5.881  19.281  0.00  0.00    +0.000 A 
ATOM     10  C   UNL     1       1.898   6.628  20.406  0.00  0.00    +0.000 A 
ATOM     11  C   UNL     1       1.655   8.000  20.316  0.00  0.00    +0.000 A 
ATOM     12  C   UNL     1       1.805   8.641  19.097  0.00  0.00    +0.000 A 
ATOM     13  F   UNL     1       1.583   9.958  19.013  0.00  0.00    +0.000 F 
ATOM     14  C   UNL     1       2.192   7.934  17.966  0.00  0.00    +0.000 A 
ATOM     15  C   UNL     1       2.445   6.561  18.058  0.00  0.00    +0.000 A 
ENDBRANCH   5   9
BRANCH   1  16
ATOM     16  C   UNL     1       6.443   4.383  16.416  0.00  0.00    +0.000 C 
BRANCH  16  20
ATOM     17  C   UNL     1       7.221   4.127  11.369  0.00  0.00    +0.000 C 
ATOM     18  C   UNL     1       7.121   4.404  12.812  0.00  0.00    +0.000 A 
ATOM     19  C   UNL     1       6.427   3.834  13.849  0.00  0.00    +0.000 A 
ATOM     20  C   UNL     1       6.846   4.561  14.991  0.00  0.00    +0.000 A 
ATOM     21  N   UNL     1       7.697   5.538  14.650  0.00  0.00    +0.000 NA
ATOM     22  O   UNL     1       7.874   5.431  13.286  0.00  0.00    +0.000 OA
ENDBRANCH  16  20
ENDBRANCH   1  16
TORSDOF 3
ENDMDL
MODEL 8
REMARK VINA RESULT:      -6.5      4.220      6.226
REMARK  Name = 
REMARK  5 active torsions:
REMARK  status: ('A' for Active; 'I' for Inactive)
REMARK    1  A    between atoms: C_1  and  C_2
REMARK    2  A    between atoms: C_4  and  C_5
REMARK    3  A    between atoms: C_5  and  C_6
REMARK    4  A    between atoms: C_10  and  C_11
REMARK    5  A    between atoms: C_19  and  C_20
REMARK                            x       y       z     vdW  Elec       q    Type
REMARK                         _______ _______ _______ _____ _____    ______ ____
ROOT
ATOM      1  C   UNL     1       7.614   8.224  17.764  0.00  0.00    +0.000 C 
ATOM      2  O   UNL     1       7.011   9.165  17.238  0.00  0.00    +0.000 OA
ATOM      3  N   UNL     1       7.192   6.926  17.551  0.00  0.00    +0.000 N 
ATOM      4  C   UNL     1       6.219   6.657  16.502  0.00  0.00    +0.000 C 
ATOM      5  C   UNL     1       5.438   5.459  17.030  0.00  0.00    +0.000 C 
ATOM      6  C   UNL     1       6.577   4.629  17.661  0.00  0.00    +0.000 C 
ATOM      7  C   UNL     1       7.633   5.659  18.147  0.00  0.00    +0.000 C 
ATOM      8  C   UNL     1       7.743   5.606  19.668  0.00  0.00    +0.000 C 
ENDROOT
BRANCH   5   9
ATOM      9  C   UNL     1       4.305   5.798  17.997  0.00  0.00    +0.000 A 
ATOM     10  C   UNL     1       4.010   5.020  19.134  0.00  0.00    +0.000 A 
ATOM     11  C   UNL     1       3.016   5.404  20.037  0.00  0.00    +0.000 A 
ATOM     12  C   UNL     1       2.301   6.569  19.810  0.00  0.00    +0.000 A 
ATOM     13  F   UNL     1       1.356   6.943  20.681  0.00  0.00    +0.000 F 
ATOM     14  C   UNL     1       2.560   7.355  18.695  0.00  0.00    +0.000 A 
ATOM     15  C   UNL     1       3.562   6.976  17.796  0.00  0.00    +0.000 A 
ENDBRANCH   5   9
BRANCH   1  16
ATOM     16  C   UNL     1       8.782   8.458  18.703  0.00  0.00    +0.000 C 
BRANCH  16  20
ATOM     17  C   UNL     1       9.954  13.417  18.280  0.00  0.00    +0.000 C 
ATOM     18  C   UNL     1       9.575  12.038  18.631  0.00  0.00    +0.000 A 
ATOM     19  C   UNL     1       9.349  10.894  17.907  0.00  0.00    +0.000 A 
ATOM     20  C   UNL     1       9.084   9.906  18.888  0.00  0.00    +0.000 A 
ATOM     21  N   UNL     1       9.098  10.438  20.118  0.00  0.00    +0.000 NA
ATOM     22  O   UNL     1       9.416  11.770  19.954  0.00  0.00    +0.000 OA
ENDBRANCH  16  20
ENDBRANCH   1  16
TORSDOF 3
ENDMDL
MODEL 9
REMARK VINA RESULT:      -6.5      4.247      6.309
REMARK  Name = 
REMARK  5 active torsions:
REMARK  status: ('A' for Active; 'I' for Inactive)
REMARK    1  A    between atoms: C_1  and  C_2
REMARK    2  A    between atoms: C_4  and  C_5
REMARK    3  A    between atoms: C_5  and  C_6
REMARK    4  A    between atoms: C_10  and  C_11
REMARK    5  A    between atoms: C_19  and  C_20
REMARK                            x       y       z     vdW  Elec       q    Type
REMARK                         _______ _______ _______ _____ _____    ______ ____
ROOT
ATOM      1  C   UNL     1       7.634   8.310  17.761  0.00  0.00    +0.000 C 
ATOM      2  O   UNL     1       7.015   9.256  17.265  0.00  0.00    +0.000 OA
ATOM      3  N   UNL     1       7.205   7.014  17.550  0.00  0.00    +0.000 N 
ATOM      4  C   UNL     1       6.196   6.756  16.531  0.00  0.00    +0.000 C 
ATOM      5  C   UNL     1       5.433   5.553  17.074  0.00  0.00    +0.000 C 
ATOM      6  C   UNL     1       6.591   4.717  17.659  0.00  0.00    +0.000 C 
ATOM      7  C   UNL     1       7.663   5.741  18.120  0.00  0.00    +0.000 C 
ATOM      8  C   UNL     1       7.824   5.674  19.635  0.00  0.00    +0.000 C 
ENDROOT
BRANCH   5   9
ATOM      9  C   UNL     1       4.332   5.884  18.082  0.00  0.00    +0.000 A 
ATOM     10  C   UNL     1       3.459   6.979  17.930  0.00  0.00    +0.000 A 
ATOM     11  C   UNL     1       2.416   7.205  18.831  0.00  0.00    +0.000 A 
ATOM     12  C   UNL     1       2.238   6.340  19.898  0.00  0.00    +0.000 A 
ATOM     13  F   UNL     1       1.232   6.550  20.755  0.00  0.00    +0.000 F 
ATOM     14  C   UNL     1       3.085   5.255  20.082  0.00  0.00    +0.000 A 
ATOM     15  C   UNL     1       4.124   5.023  19.175  0.00  0.00    +0.000 A 
ENDBRANCH   5   9
BRANCH   1  16
ATOM     16  C   UNL     1       8.833   8.534  18.663  0.00  0.00    +0.000 C 
BRANCH  16  20
ATOM     17  C   UNL     1      10.054  13.489  18.336  0.00  0.00    +0.000 C 
ATOM     18  C   UNL     1       9.645  12.111  18.656  0.00  0.00    +0.000 A 
ATOM     19  C   UNL     1       9.467  10.969  17.916  0.00  0.00    +0.000 A 
ATOM     20  C   UNL     1       9.127   9.981  18.872  0.00  0.00    +0.000 A 
ATOM     21  N   UNL     1       9.053  10.511  20.101  0.00  0.00    +0.000 NA
ATOM     22  O   UNL     1       9.387  11.842  19.963  0.00  0.00    +0.000 OA
ENDBRANCH  16  20
ENDBRANCH   1  16
TORSDOF 3
ENDMDL
