MODEL 1
REMARK VINA RESULT:      -8.3      0.000      0.000
REMARK  Name = 
REMARK  3 active torsions:
REMARK  status: ('A' for Active; 'I' for Inactive)
REMARK    1  A    between atoms: C_1  and  C_2
REMARK    2  A    between atoms: C_8  and  C_9
REMARK    3  A    between atoms: N_11  and  C_12
REMARK                            x       y       z     vdW  Elec       q    Type
REMARK                         _______ _______ _______ _____ _____    ______ ____
ROOT
ATOM      1  C   UNL     1       2.839   6.666  19.432  0.00  0.00    +0.000 C 
ATOM      2  O   UNL     1       3.442   7.125  18.461  0.00  0.00    +0.000 OA
ATOM      3  N   UNL     1       1.945   7.369  20.223  0.00  0.00    +0.000 N 
ATOM      4  H   UNL     1       1.731   6.949  21.119  0.00  0.00    +0.000 HD
ENDROOT
BRANCH   1  12
ATOM      5  C   UNL     1       1.269   4.170  17.505  0.00  0.00    +0.000 C 
ATOM      6  C   UNL     1       2.266   3.580  18.503  0.00  0.00    +0.000 C 
ATOM      7  C   UNL     1       1.958   2.108  18.771  0.00  0.00    +0.000 C 
ATOM      8  C   UNL     1       2.346   1.890  20.218  0.00  0.00    +0.000 C 
ATOM      9  C   UNL     1       2.203   3.260  20.824  0.00  0.00    +0.000 C 
ATOM     10  O   UNL     1       2.239   3.501  22.020  0.00  0.00    +0.000 OA
ATOM     11  N   UNL     1       2.209   4.224  19.805  0.00  0.00    +0.000 N 
ATOM     12  C   UNL     1       3.211   5.284  19.991  0.00  0.00    +0.000 C 
ATOM     13  C   UNL     1       4.510   4.768  19.366  0.00  0.00    +0.000 C 
ATOM     14  S   UNL     1       3.974   3.832  17.896  0.00  0.00    +0.000 S 
ENDBRANCH   1  12
BRANCH   3  15
ATOM     15  C   UNL     1       1.400   8.653  19.934  0.00  0.00    +0.000 A 
ATOM     16  C   UNL     1       1.566   9.218  18.660  0.00  0.00    +0.000 A 
ATOM     17  C   UNL     1       1.068  10.478  18.354  0.00  0.00    +0.000 A 
ATOM     18  C   UNL     1       0.382  11.198  19.320  0.00  0.00    +0.000 A 
ATOM     19  C   UNL     1       0.171  10.664  20.596  0.00  0.00    +0.000 A 
ATOM     20  C   UNL     1      -0.531  11.427  21.543  0.00  0.00    +0.000 A 
ATOM     21  C   UNL     1      -0.768  10.939  22.824  0.00  0.00    +0.000 A 
ATOM     22  C   UNL     1      -0.308   9.677  23.172  0.00  0.00    +0.000 A 
ATOM     23  C   UNL     1       0.400   8.907  22.240  0.00  0.00    +0.000 A 
ATOM     24  C   UNL     1       0.663   9.372  20.928  0.00  0.00    +0.000 A 
ENDBRANCH   3  15
TORSDOF 2
ENDMDL
MODEL 2
REMARK VINA RESULT:      -7.8      1.152      1.194
REMARK  Name = 
REMARK  3 active torsions:
REMARK  status: ('A' for Active; 'I' for Inactive)
REMARK    1  A    between atoms: C_1  and  C_2
REMARK    2  A    between atoms: C_8  and  C_9
REMARK    3  A    between atoms: N_11  and  C_12
REMARK                            x       y       z     vdW  Elec       q    Type
REMARK                         _______ _______ _______ _____ _____    ______ ____
ROOT
ATOM      1  C   UNL     1       1.962   6.025  20.130  0.00  0.00    +0.000 C 
ATOM      2  O   UNL     1       0.778   5.708  20.244  0.00  0.00    +0.000 OA
ATOM      3  N   UNL     1       2.422   7.256  19.688  0.00  0.00    +0.000 N 
ATOM      4  H   UNL     1       3.394   7.283  19.405  0.00  0.00    +0.000 HD
ENDROOT
BRANCH   1  12
ATOM      5  C   UNL     1       1.701   3.724  17.477  0.00  0.00    +0.000 C 
ATOM      6  C   UNL     1       2.972   3.506  18.299  0.00  0.00    +0.000 C 
ATOM      7  C   UNL     1       3.510   2.091  18.102  0.00  0.00    +0.000 C 
ATOM      8  C   UNL     1       4.126   1.723  19.435  0.00  0.00    +0.000 C 
ATOM      9  C   UNL     1       3.365   2.577  20.414  0.00  0.00    +0.000 C 
ATOM     10  O   UNL     1       3.415   2.458  21.628  0.00  0.00    +0.000 OA
ATOM     11  N   UNL     1       2.745   3.633  19.729  0.00  0.00    +0.000 N 
ATOM     12  C   UNL     1       3.064   4.963  20.269  0.00  0.00    +0.000 C 
ATOM     13  C   UNL     1       4.355   5.413  19.580  0.00  0.00    +0.000 C 
ATOM     14  S   UNL     1       4.211   4.785  17.875  0.00  0.00    +0.000 S 
ENDBRANCH   1  12
BRANCH   3  15
ATOM     15  C   UNL     1       1.634   8.428  19.505  0.00  0.00    +0.000 A 
ATOM     16  C   UNL     1       1.475   8.976  18.222  0.00  0.00    +0.000 A 
ATOM     17  C   UNL     1       0.734  10.132  18.015  0.00  0.00    +0.000 A 
ATOM     18  C   UNL     1       0.126  10.761  19.090  0.00  0.00    +0.000 A 
ATOM     19  C   UNL     1       0.237  10.236  20.383  0.00  0.00    +0.000 A 
ATOM     20  C   UNL     1      -0.397  10.904  21.443  0.00  0.00    +0.000 A 
ATOM     21  C   UNL     1      -0.318  10.422  22.745  0.00  0.00    +0.000 A 
ATOM     22  C   UNL     1       0.395   9.259  23.002  0.00  0.00    +0.000 A 
ATOM     23  C   UNL     1       1.038   8.585  21.955  0.00  0.00    +0.000 A 
ATOM     24  C   UNL     1       0.983   9.048  20.617  0.00  0.00    +0.000 A 
ENDBRANCH   3  15
TORSDOF 2
ENDMDL
MODEL 3
REMARK VINA RESULT:      -7.7      1.605      2.767
REMARK  Name = 
REMARK  3 active torsions:
REMARK  status: ('A' for Active; 'I' for Inactive)
REMARK    1  A    between atoms: C_1  and  C_2
REMARK    2  A    between atoms: C_8  and  C_9
REMARK    3  A    between atoms: N_11  and  C_12
REMARK                            x       y       z     vdW  Elec       q    Type
REMARK                         _______ _______ _______ _____ _____    ______ ____
ROOT
ATOM      1  C   UNL     1       2.170   6.366  20.299  0.00  0.00    +0.000 C 
ATOM      2  O   UNL     1       1.568   5.779  21.199  0.00  0.00    +0.000 OA
ATOM      3  N   UNL     1       1.964   7.686  19.927  0.00  0.00    +0.000 N 
ATOM      4  H   UNL     1       2.337   7.948  19.023  0.00  0.00    +0.000 HD
ENDROOT
BRANCH   1  12
ATOM      5  C   UNL     1       0.970   3.070  19.984  0.00  0.00    +0.000 C 
ATOM      6  C   UNL     1       2.096   3.366  18.992  0.00  0.00    +0.000 C 
ATOM      7  C   UNL     1       2.745   2.072  18.506  0.00  0.00    +0.000 C 
ATOM      8  C   UNL     1       4.200   2.428  18.288  0.00  0.00    +0.000 C 
ATOM      9  C   UNL     1       4.417   3.583  19.229  0.00  0.00    +0.000 C 
ATOM     10  O   UNL     1       5.506   4.058  19.510  0.00  0.00    +0.000 OA
ATOM     11  N   UNL     1       3.178   4.138  19.581  0.00  0.00    +0.000 N 
ATOM     12  C   UNL     1       3.080   5.585  19.339  0.00  0.00    +0.000 C 
ATOM     13  C   UNL     1       2.624   5.752  17.887  0.00  0.00    +0.000 C 
ATOM     14  S   UNL     1       1.454   4.381  17.611  0.00  0.00    +0.000 S 
ENDBRANCH   1  12
BRANCH   3  15
ATOM     15  C   UNL     1       1.199   8.649  20.645  0.00  0.00    +0.000 A 
ATOM     16  C   UNL     1       1.274   8.705  22.046  0.00  0.00    +0.000 A 
ATOM     17  C   UNL     1       0.522   9.617  22.776  0.00  0.00    +0.000 A 
ATOM     18  C   UNL     1      -0.318  10.500  22.117  0.00  0.00    +0.000 A 
ATOM     19  C   UNL     1      -0.407  10.496  20.720  0.00  0.00    +0.000 A 
ATOM     20  C   UNL     1      -1.269  11.408  20.092  0.00  0.00    +0.000 A 
ATOM     21  C   UNL     1      -1.390  11.445  18.707  0.00  0.00    +0.000 A 
ATOM     22  C   UNL     1      -0.645  10.568  17.931  0.00  0.00    +0.000 A 
ATOM     23  C   UNL     1       0.215   9.647  18.543  0.00  0.00    +0.000 A 
ATOM     24  C   UNL     1       0.362   9.578  19.951  0.00  0.00    +0.000 A 
ENDBRANCH   3  15
TORSDOF 2
ENDMDL
MODEL 4
REMARK VINA RESULT:      -7.6      1.745      2.227
REMARK  Name = 
REMARK  3 active torsions:
REMARK  status: ('A' for Active; 'I' for Inactive)
REMARK    1  A    between atoms: C_1  and  C_2
REMARK    2  A    between atoms: C_8  and  C_9
REMARK    3  A    between atoms: N_11  and  C_12
REMARK                            x       y       z     vdW  Elec       q    Type
REMARK                         _______ _______ _______ _____ _____    ______ ____
ROOT
ATOM      1  C   UNL     1       2.261   5.813  18.081  0.00  0.00    +0.000 C 
ATOM      2  O   UNL     1       1.238   5.792  17.395  0.00  0.00    +0.000 OA
ATOM      3  N   UNL     1       2.814   6.946  18.657  0.00  0.00    +0.000 N 
ATOM      4  H   UNL     1       3.773   6.855  18.966  0.00  0.00    +0.000 HD
ENDROOT
BRANCH   1  12
ATOM      5  C   UNL     1       1.483   4.037  21.021  0.00  0.00    +0.000 C 
ATOM      6  C   UNL     1       2.444   3.259  20.120  0.00  0.00    +0.000 C 
ATOM      7  C   UNL     1       3.203   2.203  20.920  0.00  0.00    +0.000 C 
ATOM      8  C   UNL     1       4.565   2.126  20.264  0.00  0.00    +0.000 C 
ATOM      9  C   UNL     1       4.728   3.489  19.647  0.00  0.00    +0.000 C 
ATOM     10  O   UNL     1       5.768   3.921  19.176  0.00  0.00    +0.000 OA
ATOM     11  N   UNL     1       3.471   4.103  19.532  0.00  0.00    +0.000 N 
ATOM     12  C   UNL     1       3.157   4.568  18.173  0.00  0.00    +0.000 C 
ATOM     13  C   UNL     1       2.526   3.380  17.442  0.00  0.00    +0.000 C 
ATOM     14  S   UNL     1       1.526   2.536  18.712  0.00  0.00    +0.000 S 
ENDBRANCH   1  12
BRANCH   3  15
ATOM     15  C   UNL     1       2.195   8.226  18.750  0.00  0.00    +0.000 A 
ATOM     16  C   UNL     1       2.342   9.157  17.711  0.00  0.00    +0.000 A 
ATOM     17  C   UNL     1       1.772  10.421  17.783  0.00  0.00    +0.000 A 
ATOM     18  C   UNL     1       1.031  10.778  18.899  0.00  0.00    +0.000 A 
ATOM     19  C   UNL     1       0.837   9.873  19.949  0.00  0.00    +0.000 A 
ATOM     20  C   UNL     1       0.079  10.275  21.060  0.00  0.00    +0.000 A 
ATOM     21  C   UNL     1      -0.144   9.412  22.127  0.00  0.00    +0.000 A 
ATOM     22  C   UNL     1       0.388   8.130  22.094  0.00  0.00    +0.000 A 
ATOM     23  C   UNL     1       1.153   7.717  20.995  0.00  0.00    +0.000 A 
ATOM     24  C   UNL     1       1.404   8.570  19.892  0.00  0.00    +0.000 A 
ENDBRANCH   3  15
TORSDOF 2
ENDMDL
MODEL 5
REMARK VINA RESULT:      -7.5      1.448      2.636
REMARK  Name = 
REMARK  3 active torsions:
REMARK  status: ('A' for Active; 'I' for Inactive)
REMARK    1  A    between atoms: C_1  and  C_2
REMARK    2  A    between atoms: C_8  and  C_9
REMARK    3  A    between atoms: N_11  and  C_12
REMARK                            x       y       z     vdW  Elec       q    Type
REMARK                         _______ _______ _______ _____ _____    ______ ____
ROOT
ATOM      1  C   UNL     1       1.896   5.953  20.605  0.00  0.00    +0.000 C 
ATOM      2  O   UNL     1       0.755   5.495  20.673  0.00  0.00    +0.000 OA
ATOM      3  N   UNL     1       2.225   7.298  20.684  0.00  0.00    +0.000 N 
ATOM      4  H   UNL     1       3.152   7.540  20.359  0.00  0.00    +0.000 HD
ENDROOT
BRANCH   1  12
ATOM      5  C   UNL     1       1.163   4.430  17.515  0.00  0.00    +0.000 C 
ATOM      6  C   UNL     1       2.606   4.173  17.951  0.00  0.00    +0.000 C 
ATOM      7  C   UNL     1       3.177   2.947  17.242  0.00  0.00    +0.000 C 
ATOM      8  C   UNL     1       4.119   2.322  18.249  0.00  0.00    +0.000 C 
ATOM      9  C   UNL     1       3.559   2.774  19.572  0.00  0.00    +0.000 C 
ATOM     10  O   UNL     1       3.907   2.343  20.660  0.00  0.00    +0.000 OA
ATOM     11  N   UNL     1       2.722   3.882  19.370  0.00  0.00    +0.000 N 
ATOM     12  C   UNL     1       3.069   5.050  20.194  0.00  0.00    +0.000 C 
ATOM     13  C   UNL     1       4.123   5.836  19.409  0.00  0.00    +0.000 C 
ATOM     14  S   UNL     1       3.617   5.672  17.665  0.00  0.00    +0.000 S 
ENDBRANCH   1  12
BRANCH   3  15
ATOM     15  C   UNL     1       1.351   8.352  21.075  0.00  0.00    +0.000 A 
ATOM     16  C   UNL     1       1.094   8.586  22.435  0.00  0.00    +0.000 A 
ATOM     17  C   UNL     1       0.227   9.590  22.847  0.00  0.00    +0.000 A 
ATOM     18  C   UNL     1      -0.397  10.390  21.903  0.00  0.00    +0.000 A 
ATOM     19  C   UNL     1      -0.152  10.209  20.537  0.00  0.00    +0.000 A 
ATOM     20  C   UNL     1      -0.803  11.043  19.614  0.00  0.00    +0.000 A 
ATOM     21  C   UNL     1      -0.591  10.904  18.247  0.00  0.00    +0.000 A 
ATOM     22  C   UNL     1       0.281   9.928  17.785  0.00  0.00    +0.000 A 
ATOM     23  C   UNL     1       0.934   9.084  18.693  0.00  0.00    +0.000 A 
ATOM     24  C   UNL     1       0.740   9.194  20.093  0.00  0.00    +0.000 A 
ENDBRANCH   3  15
TORSDOF 2
ENDMDL
MODEL 6
REMARK VINA RESULT:      -7.5      3.198      7.246
REMARK  Name = 
REMARK  3 active torsions:
REMARK  status: ('A' for Active; 'I' for Inactive)
REMARK    1  A    between atoms: C_1  and  C_2
REMARK    2  A    between atoms: C_8  and  C_9
REMARK    3  A    between atoms: N_11  and  C_12
REMARK                            x       y       z     vdW  Elec       q    Type
REMARK                         _______ _______ _______ _____ _____    ______ ____
ROOT
ATOM      1  C   UNL     1       0.773   9.436  19.001  0.00  0.00    +0.000 C 
ATOM      2  O   UNL     1       0.649   9.545  17.780  0.00  0.00    +0.000 OA
ATOM      3  N   UNL     1       1.490   8.440  19.646  0.00  0.00    +0.000 N 
ATOM      4  H   UNL     1       1.292   8.329  20.633  0.00  0.00    +0.000 HD
ENDROOT
BRANCH   1  12
ATOM      5  C   UNL     1       2.025  12.728  18.978  0.00  0.00    +0.000 C 
ATOM      6  C   UNL     1       0.705  12.623  19.743  0.00  0.00    +0.000 C 
ATOM      7  C   UNL     1       0.541  13.798  20.704  0.00  0.00    +0.000 C 
ATOM      8  C   UNL     1      -0.213  13.227  21.887  0.00  0.00    +0.000 C 
ATOM      9  C   UNL     1       0.145  11.765  21.850  0.00  0.00    +0.000 C 
ATOM     10  O   UNL     1      -0.100  10.965  22.739  0.00  0.00    +0.000 OA
ATOM     11  N   UNL     1       0.629  11.434  20.576  0.00  0.00    +0.000 N 
ATOM     12  C   UNL     1      -0.071  10.306  19.945  0.00  0.00    +0.000 C 
ATOM     13  C   UNL     1      -1.280  10.898  19.216  0.00  0.00    +0.000 C 
ATOM     14  S   UNL     1      -0.688  12.494  18.562  0.00  0.00    +0.000 S 
ENDBRANCH   1  12
BRANCH   3  15
ATOM     15  C   UNL     1       2.380   7.515  19.029  0.00  0.00    +0.000 A 
ATOM     16  C   UNL     1       3.170   7.916  17.941  0.00  0.00    +0.000 A 
ATOM     17  C   UNL     1       4.029   7.030  17.303  0.00  0.00    +0.000 A 
ATOM     18  C   UNL     1       4.121   5.721  17.748  0.00  0.00    +0.000 A 
ATOM     19  C   UNL     1       3.371   5.283  18.845  0.00  0.00    +0.000 A 
ATOM     20  C   UNL     1       3.496   3.950  19.265  0.00  0.00    +0.000 A 
ATOM     21  C   UNL     1       2.774   3.468  20.351  0.00  0.00    +0.000 A 
ATOM     22  C   UNL     1       1.916   4.319  21.035  0.00  0.00    +0.000 A 
ATOM     23  C   UNL     1       1.775   5.651  20.624  0.00  0.00    +0.000 A 
ATOM     24  C   UNL     1       2.493   6.176  19.520  0.00  0.00    +0.000 A 
ENDBRANCH   3  15
TORSDOF 2
ENDMDL
MODEL 7
REMARK VINA RESULT:      -7.5      3.003      7.290
REMARK  Name = 
REMARK  3 active torsions:
REMARK  status: ('A' for Active; 'I' for Inactive)
REMARK    1  A    between atoms: C_1  and  C_2
REMARK    2  A    between atoms: C_8  and  C_9
REMARK    3  A    between atoms: N_11  and  C_12
REMARK                            x       y       z     vdW  Elec       q    Type
REMARK                         _______ _______ _______ _____ _____    ______ ____
ROOT
ATOM      1  C   UNL     1       1.494   8.981  18.537  0.00  0.00    +0.000 C 
ATOM      2  O   UNL     1       1.566   9.418  17.388  0.00  0.00    +0.000 OA
ATOM      3  N   UNL     1       2.026   7.776  18.969  0.00  0.00    +0.000 N 
ATOM      4  H   UNL     1       1.672   7.435  19.854  0.00  0.00    +0.000 HD
ENDROOT
BRANCH   1  12
ATOM      5  C   UNL     1       2.111  12.448  18.509  0.00  0.00    +0.000 C 
ATOM      6  C   UNL     1       0.902  12.090  19.374  0.00  0.00    +0.000 C 
ATOM      7  C   UNL     1       0.606  13.200  20.380  0.00  0.00    +0.000 C 
ATOM      8  C   UNL     1       0.072  12.483  21.601  0.00  0.00    +0.000 C 
ATOM      9  C   UNL     1       0.689  11.114  21.494  0.00  0.00    +0.000 C 
ATOM     10  O   UNL     1       0.670  10.270  22.376  0.00  0.00    +0.000 OA
ATOM     11  N   UNL     1       1.117  10.896  20.176  0.00  0.00    +0.000 N 
ATOM     12  C   UNL     1       0.586   9.666  19.571  0.00  0.00    +0.000 C 
ATOM     13  C   UNL     1      -0.768  10.033  18.958  0.00  0.00    +0.000 C 
ATOM     14  S   UNL     1      -0.537  11.720  18.305  0.00  0.00    +0.000 S 
ENDBRANCH   1  12
BRANCH   3  15
ATOM     15  C   UNL     1       2.924   6.947  18.238  0.00  0.00    +0.000 A 
ATOM     16  C   UNL     1       4.059   7.505  17.629  0.00  0.00    +0.000 A 
ATOM     17  C   UNL     1       4.941   6.728  16.889  0.00  0.00    +0.000 A 
ATOM     18  C   UNL     1       4.709   5.368  16.751  0.00  0.00    +0.000 A 
ATOM     19  C   UNL     1       3.604   4.764  17.362  0.00  0.00    +0.000 A 
ATOM     20  C   UNL     1       3.408   3.384  17.198  0.00  0.00    +0.000 A 
ATOM     21  C   UNL     1       2.326   2.738  17.787  0.00  0.00    +0.000 A 
ATOM     22  C   UNL     1       1.427   3.467  18.552  0.00  0.00    +0.000 A 
ATOM     23  C   UNL     1       1.606   4.846  18.719  0.00  0.00    +0.000 A 
ATOM     24  C   UNL     1       2.694   5.539  18.132  0.00  0.00    +0.000 A 
ENDBRANCH   3  15
TORSDOF 2
ENDMDL
MODEL 8
REMARK VINA RESULT:      -7.5      1.742      2.211
REMARK  Name = 
REMARK  3 active torsions:
REMARK  status: ('A' for Active; 'I' for Inactive)
REMARK    1  A    between atoms: C_1  and  C_2
REMARK    2  A    between atoms: C_8  and  C_9
REMARK    3  A    between atoms: N_11  and  C_12
REMARK                            x       y       z     vdW  Elec       q    Type
REMARK                         _______ _______ _______ _____ _____    ______ ____
ROOT
ATOM      1  C   UNL     1       2.452   7.310  18.553  0.00  0.00    +0.000 C 
ATOM      2  O   UNL     1       3.090   7.944  17.711  0.00  0.00    +0.000 OA
ATOM      3  N   UNL     1       1.666   7.869  19.548  0.00  0.00    +0.000 N 
ATOM      4  H   UNL     1       1.417   7.249  20.308  0.00  0.00    +0.000 HD
ENDROOT
BRANCH   1  12
ATOM      5  C   UNL     1       4.983   6.261  16.339  0.00  0.00    +0.000 C 
ATOM      6  C   UNL     1       4.563   5.146  17.298  0.00  0.00    +0.000 C 
ATOM      7  C   UNL     1       4.945   3.778  16.738  0.00  0.00    +0.000 C 
ATOM      8  C   UNL     1       3.853   2.845  17.220  0.00  0.00    +0.000 C 
ATOM      9  C   UNL     1       2.675   3.763  17.410  0.00  0.00    +0.000 C 
ATOM     10  O   UNL     1       1.529   3.393  17.613  0.00  0.00    +0.000 OA
ATOM     11  N   UNL     1       3.125   5.089  17.500  0.00  0.00    +0.000 N 
ATOM     12  C   UNL     1       2.662   5.796  18.704  0.00  0.00    +0.000 C 
ATOM     13  C   UNL     1       3.678   5.487  19.806  0.00  0.00    +0.000 C 
ATOM     14  S   UNL     1       5.288   5.445  18.952  0.00  0.00    +0.000 S 
ENDBRANCH   1  12
BRANCH   3  15
ATOM     15  C   UNL     1       1.277   9.236  19.639  0.00  0.00    +0.000 A 
ATOM     16  C   UNL     1       1.589  10.129  18.601  0.00  0.00    +0.000 A 
ATOM     17  C   UNL     1       1.245  11.472  18.672  0.00  0.00    +0.000 A 
ATOM     18  C   UNL     1       0.572  11.952  19.785  0.00  0.00    +0.000 A 
ATOM     19  C   UNL     1       0.219  11.094  20.833  0.00  0.00    +0.000 A 
ATOM     20  C   UNL     1      -0.465  11.621  21.940  0.00  0.00    +0.000 A 
ATOM     21  C   UNL     1      -0.839  10.809  23.005  0.00  0.00    +0.000 A 
ATOM     22  C   UNL     1      -0.536   9.455  22.973  0.00  0.00    +0.000 A 
ATOM     23  C   UNL     1       0.151   8.916  21.878  0.00  0.00    +0.000 A 
ATOM     24  C   UNL     1       0.551   9.713  20.777  0.00  0.00    +0.000 A 
ENDBRANCH   3  15
TORSDOF 2
ENDMDL
MODEL 9
REMARK VINA RESULT:      -7.5      2.840      7.056
REMARK  Name = 
REMARK  3 active torsions:
REMARK  status: ('A' for Active; 'I' for Inactive)
REMARK    1  A    between atoms: C_1  and  C_2
REMARK    2  A    between atoms: C_8  and  C_9
REMARK    3  A    between atoms: N_11  and  C_12
REMARK                            x       y       z     vdW  Elec       q    Type
REMARK                         _______ _______ _______ _____ _____    ______ ____
ROOT
ATOM      1  C   UNL     1       2.006   8.939  18.422  0.00  0.00    +0.000 C 
ATOM      2  O   UNL     1       1.800   8.965  17.209  0.00  0.00    +0.000 OA
ATOM      3  N   UNL     1       2.410   7.825  19.141  0.00  0.00    +0.000 N 
ATOM      4  H   UNL     1       2.290   7.886  20.145  0.00  0.00    +0.000 HD
ENDROOT
BRANCH   1  12
ATOM      5  C   UNL     1      -1.271   9.939  17.609  0.00  0.00    +0.000 C 
ATOM      6  C   UNL     1      -0.742  10.666  18.846  0.00  0.00    +0.000 C 
ATOM      7  C   UNL     1      -1.519  11.958  19.090  0.00  0.00    +0.000 C 
ATOM      8  C   UNL     1      -0.502  12.915  19.676  0.00  0.00    +0.000 C 
ATOM      9  C   UNL     1       0.806  12.402  19.137  0.00  0.00    +0.000 C 
ATOM     10  O   UNL     1       1.871  12.993  19.213  0.00  0.00    +0.000 OA
ATOM     11  N   UNL     1       0.646  11.076  18.708  0.00  0.00    +0.000 N 
ATOM     12  C   UNL     1       1.608  10.136  19.301  0.00  0.00    +0.000 C 
ATOM     13  C   UNL     1       0.999   9.668  20.625  0.00  0.00    +0.000 C 
ATOM     14  S   UNL     1      -0.789   9.545  20.292  0.00  0.00    +0.000 S 
ENDBRANCH   1  12
BRANCH   3  15
ATOM     15  C   UNL     1       2.866   6.593  18.591  0.00  0.00    +0.000 A 
ATOM     16  C   UNL     1       3.834   6.592  17.574  0.00  0.00    +0.000 A 
ATOM     17  C   UNL     1       4.282   5.408  17.001  0.00  0.00    +0.000 A 
ATOM     18  C   UNL     1       3.773   4.196  17.440  0.00  0.00    +0.000 A 
ATOM     19  C   UNL     1       2.825   4.148  18.469  0.00  0.00    +0.000 A 
ATOM     20  C   UNL     1       2.338   2.899  18.885  0.00  0.00    +0.000 A 
ATOM     21  C   UNL     1       1.397   2.798  19.904  0.00  0.00    +0.000 A 
ATOM     22  C   UNL     1       0.932   3.951  20.523  0.00  0.00    +0.000 A 
ATOM     23  C   UNL     1       1.404   5.205  20.114  0.00  0.00    +0.000 A 
ATOM     24  C   UNL     1       2.360   5.346  19.077  0.00  0.00    +0.000 A 
ENDBRANCH   3  15
TORSDOF 2
ENDMDL
