MODEL 1
REMARK VINA RESULT:      -8.0      0.000      0.000
REMARK  Name = 
REMARK  10 active torsions:
REMARK  status: ('A' for Active; 'I' for Inactive)
REMARK    1  A    between atoms: C_1  and  C_2
REMARK    2  A    between atoms: C_2  and  C_3
REMARK    3  A    between atoms: C_2  and  C_4
REMARK    4  A    between atoms: C_9  and  C_10
REMARK    5  A    between atoms: C_10  and  C_11
REMARK    6  A    between atoms: C_11  and  C_12
REMARK    7  A    between atoms: C_12  and  O_14
REMARK    8  A    between atoms: C_17  and  N_18
REMARK    9  A    between atoms: N_18  and  S_19
REMARK   10  A    between atoms: S_19  and  C_22
REMARK                            x       y       z     vdW  Elec       q    Type
REMARK                         _______ _______ _______ _____ _____    ______ ____
ROOT
ATOM      1  C   UNL     1       3.323   5.685  18.507  0.00  0.00    +0.000 A 
ATOM      2  C   UNL     1       3.630   6.589  17.465  0.00  0.00    +0.000 A 
ATOM      3  C   UNL     1       3.166   7.906  17.462  0.00  0.00    +0.000 A 
ATOM      4  C   UNL     1       2.376   8.373  18.507  0.00  0.00    +0.000 A 
ATOM      5  C   UNL     1       2.113   7.506  19.600  0.00  0.00    +0.000 A 
ATOM      6  C   UNL     1       2.521   6.135  19.602  0.00  0.00    +0.000 A 
ATOM      7  C   UNL     1       1.341   8.056  20.760  0.00  0.00    +0.000 C 
ATOM      8  C   UNL     1       1.143   9.542  20.790  0.00  0.00    +0.000 C 
ATOM      9  C   UNL     1       0.664  10.011  19.433  0.00  0.00    +0.000 C 
ATOM     10  C   UNL     1       1.847   9.808  18.464  0.00  0.00    +0.000 C 
ENDROOT
BRANCH   1  12
ATOM     11  C   UNL     1       3.112   3.578  17.183  0.00  0.00    +0.000 C 
ATOM     12  C   UNL     1       3.796   4.232  18.388  0.00  0.00    +0.000 C 
ATOM     13  C   UNL     1       5.316   4.030  18.295  0.00  0.00    +0.000 C 
ENDBRANCH   1  12
BRANCH   9  14
ATOM     14  N   UNL     1       0.210  11.421  19.527  0.00  0.00    +0.000 NA
ATOM     15  H   UNL     1       0.810  12.125  19.092  0.00  0.00    +0.000 HD
BRANCH  14  16
ATOM     16  S   UNL     1      -1.421  11.755  19.133  0.00  0.00    +0.000 S 
ATOM     17  O   UNL     1      -1.409  12.994  18.399  0.00  0.00    +0.000 OA
ATOM     18  O   UNL     1      -2.000  10.548  18.585  0.00  0.00    +0.000 OA
BRANCH  16  19
ATOM     19  C   UNL     1      -2.188  12.088  20.711  0.00  0.00    +0.000 A 
ATOM     20  C   UNL     1      -1.505  11.761  21.884  0.00  0.00    +0.000 A 
ATOM     21  C   UNL     1      -2.126  11.960  23.122  0.00  0.00    +0.000 A 
ATOM     22  C   UNL     1      -3.424  12.474  23.180  0.00  0.00    +0.000 A 
ATOM     23 CL   UNL     1      -4.194  12.679  24.705  0.00  0.00    +0.000 Cl
ATOM     24  C   UNL     1      -4.104  12.813  22.011  0.00  0.00    +0.000 A 
ATOM     25  C   UNL     1      -3.479  12.639  20.772  0.00  0.00    +0.000 A 
ENDBRANCH  16  19
ENDBRANCH  14  16
ENDBRANCH   9  14
BRANCH   6  26
ATOM     26  C   UNL     1       2.216   5.182  20.778  0.00  0.00    +0.000 C 
BRANCH  26  27
ATOM     27  C   UNL     1       1.064   4.173  20.642  0.00  0.00    +0.000 C 
BRANCH  27  28
ATOM     28  C   UNL     1       1.406   2.763  21.044  0.00  0.00    +0.000 C 
ATOM     29  O   UNL     1       1.469   2.345  22.186  0.00  0.00    +0.000 OA
BRANCH  28  30
ATOM     30  O   UNL     1       1.581   1.967  19.959  0.00  0.00    +0.000 OA
ATOM     31  H   UNL     1       2.326   1.338  20.039  0.00  0.00    +0.000 HD
ENDBRANCH  28  30
ENDBRANCH  27  28
ENDBRANCH  26  27
ENDBRANCH   6  26
TORSDOF 8
ENDMDL
MODEL 2
REMARK VINA RESULT:      -7.9      1.226      1.617
REMARK  Name = 
REMARK  10 active torsions:
REMARK  status: ('A' for Active; 'I' for Inactive)
REMARK    1  A    between atoms: C_1  and  C_2
REMARK    2  A    between atoms: C_2  and  C_3
REMARK    3  A    between atoms: C_2  and  C_4
REMARK    4  A    between atoms: C_9  and  C_10
REMARK    5  A    between atoms: C_10  and  C_11
REMARK    6  A    between atoms: C_11  and  C_12
REMARK    7  A    between atoms: C_12  and  O_14
REMARK    8  A    between atoms: C_17  and  N_18
REMARK    9  A    between atoms: N_18  and  S_19
REMARK   10  A    between atoms: S_19  and  C_22
REMARK                            x       y       z     vdW  Elec       q    Type
REMARK                         _______ _______ _______ _____ _____    ______ ____
ROOT
ATOM      1  C   UNL     1       3.451   5.932  18.570  0.00  0.00    +0.000 A 
ATOM      2  C   UNL     1       3.635   6.903  17.561  0.00  0.00    +0.000 A 
ATOM      3  C   UNL     1       2.999   8.146  17.598  0.00  0.00    +0.000 A 
ATOM      4  C   UNL     1       2.150   8.467  18.654  0.00  0.00    +0.000 A 
ATOM      5  C   UNL     1       2.004   7.536  19.715  0.00  0.00    +0.000 A 
ATOM      6  C   UNL     1       2.593   6.233  19.674  0.00  0.00    +0.000 A 
ATOM      7  C   UNL     1       1.164   7.937  20.888  0.00  0.00    +0.000 C 
ATOM      8  C   UNL     1       0.767   9.382  20.967  0.00  0.00    +0.000 C 
ATOM      9  C   UNL     1       0.232   9.828  19.623  0.00  0.00    +0.000 C 
ATOM     10  C   UNL     1       1.434   9.818  18.656  0.00  0.00    +0.000 C 
ENDROOT
BRANCH   1  12
ATOM     11  C   UNL     1       3.834   4.032  16.995  0.00  0.00    +0.000 C 
ATOM     12  C   UNL     1       4.114   4.560  18.406  0.00  0.00    +0.000 C 
ATOM     13  C   UNL     1       5.623   4.512  18.688  0.00  0.00    +0.000 C 
ENDBRANCH   1  12
BRANCH   9  14
ATOM     14  N   UNL     1      -0.407  11.161  19.761  0.00  0.00    +0.000 NA
ATOM     15  H   UNL     1       0.195  11.928  20.067  0.00  0.00    +0.000 HD
BRANCH  14  16
ATOM     16  S   UNL     1      -1.395  11.701  18.474  0.00  0.00    +0.000 S 
ATOM     17  O   UNL     1      -0.807  12.931  18.009  0.00  0.00    +0.000 OA
ATOM     18  O   UNL     1      -1.620  10.580  17.587  0.00  0.00    +0.000 OA
BRANCH  16  19
ATOM     19  C   UNL     1      -2.941  12.123  19.261  0.00  0.00    +0.000 A 
ATOM     20  C   UNL     1      -2.923  12.760  20.503  0.00  0.00    +0.000 A 
ATOM     21  C   UNL     1      -4.130  13.036  21.154  0.00  0.00    +0.000 A 
ATOM     22  C   UNL     1      -5.343  12.667  20.567  0.00  0.00    +0.000 A 
ATOM     23 CL   UNL     1      -6.820  12.975  21.393  0.00  0.00    +0.000 Cl
ATOM     24  C   UNL     1      -5.365  12.041  19.322  0.00  0.00    +0.000 A 
ATOM     25  C   UNL     1      -4.163  11.785  18.655  0.00  0.00    +0.000 A 
ENDBRANCH  16  19
ENDBRANCH  14  16
ENDBRANCH   9  14
BRANCH   6  26
ATOM     26  C   UNL     1       2.416   5.208  20.816  0.00  0.00    +0.000 C 
BRANCH  26  27
ATOM     27  C   UNL     1       1.203   4.264  20.790  0.00  0.00    +0.000 C 
BRANCH  27  28
ATOM     28  C   UNL     1       1.538   2.799  20.886  0.00  0.00    +0.000 C 
ATOM     29  O   UNL     1       1.872   2.085  19.959  0.00  0.00    +0.000 OA
BRANCH  28  30
ATOM     30  O   UNL     1       1.486   2.363  22.170  0.00  0.00    +0.000 OA
ATOM     31  H   UNL     1       2.360   2.155  22.558  0.00  0.00    +0.000 HD
ENDBRANCH  28  30
ENDBRANCH  27  28
ENDBRANCH  26  27
ENDBRANCH   6  26
TORSDOF 8
ENDMDL
MODEL 3
REMARK VINA RESULT:      -7.8      1.406      1.855
REMARK  Name = 
REMARK  10 active torsions:
REMARK  status: ('A' for Active; 'I' for Inactive)
REMARK    1  A    between atoms: C_1  and  C_2
REMARK    2  A    between atoms: C_2  and  C_3
REMARK    3  A    between atoms: C_2  and  C_4
REMARK    4  A    between atoms: C_9  and  C_10
REMARK    5  A    between atoms: C_10  and  C_11
REMARK    6  A    between atoms: C_11  and  C_12
REMARK    7  A    between atoms: C_12  and  O_14
REMARK    8  A    between atoms: C_17  and  N_18
REMARK    9  A    between atoms: N_18  and  S_19
REMARK   10  A    between atoms: S_19  and  C_22
REMARK                            x       y       z     vdW  Elec       q    Type
REMARK                         _______ _______ _______ _____ _____    ______ ____
ROOT
ATOM      1  C   UNL     1       3.527   5.905  18.517  0.00  0.00    +0.000 A 
ATOM      2  C   UNL     1       3.748   6.915  17.554  0.00  0.00    +0.000 A 
ATOM      3  C   UNL     1       3.101   8.150  17.609  0.00  0.00    +0.000 A 
ATOM      4  C   UNL     1       2.203   8.426  18.636  0.00  0.00    +0.000 A 
ATOM      5  C   UNL     1       2.017   7.455  19.654  0.00  0.00    +0.000 A 
ATOM      6  C   UNL     1       2.618   6.159  19.592  0.00  0.00    +0.000 A 
ATOM      7  C   UNL     1       1.121   7.807  20.802  0.00  0.00    +0.000 C 
ATOM      8  C   UNL     1       0.710   9.245  20.916  0.00  0.00    +0.000 C 
ATOM      9  C   UNL     1       0.232   9.737  19.568  0.00  0.00    +0.000 C 
ATOM     10  C   UNL     1       1.476   9.772  18.655  0.00  0.00    +0.000 C 
ENDROOT
BRANCH   1  12
ATOM     11  C   UNL     1       4.199   4.176  16.845  0.00  0.00    +0.000 C 
ATOM     12  C   UNL     1       4.209   4.545  18.332  0.00  0.00    +0.000 C 
ATOM     13  C   UNL     1       5.637   4.434  18.885  0.00  0.00    +0.000 C 
ENDBRANCH   1  12
BRANCH   9  14
ATOM     14  N   UNL     1      -0.424  11.059  19.726  0.00  0.00    +0.000 NA
ATOM     15  H   UNL     1       0.164  11.825  20.064  0.00  0.00    +0.000 HD
BRANCH  14  16
ATOM     16  S   UNL     1      -1.389  11.623  18.431  0.00  0.00    +0.000 S 
ATOM     17  O   UNL     1      -0.806  12.872  18.012  0.00  0.00    +0.000 OA
ATOM     18  O   UNL     1      -1.583  10.524  17.511  0.00  0.00    +0.000 OA
BRANCH  16  19
ATOM     19  C   UNL     1      -2.957  12.007  19.195  0.00  0.00    +0.000 A 
ATOM     20  C   UNL     1      -4.139  11.710  18.514  0.00  0.00    +0.000 A 
ATOM     21  C   UNL     1      -5.368  12.066  19.078  0.00  0.00    +0.000 A 
ATOM     22  C   UNL     1      -5.410  12.722  20.311  0.00  0.00    +0.000 A 
ATOM     23 CL   UNL     1      -6.924  13.190  20.980  0.00  0.00    +0.000 Cl
ATOM     24  C   UNL     1      -4.232  13.010  21.000  0.00  0.00    +0.000 A 
ATOM     25  C   UNL     1      -3.001  12.634  20.452  0.00  0.00    +0.000 A 
ENDBRANCH  16  19
ENDBRANCH  14  16
ENDBRANCH   9  14
BRANCH   6  26
ATOM     26  C   UNL     1       2.399   5.091  20.686  0.00  0.00    +0.000 C 
BRANCH  26  27
ATOM     27  C   UNL     1       1.122   4.236  20.648  0.00  0.00    +0.000 C 
BRANCH  27  28
ATOM     28  C   UNL     1       1.271   2.903  19.963  0.00  0.00    +0.000 C 
ATOM     29  O   UNL     1       2.279   2.220  19.949  0.00  0.00    +0.000 OA
BRANCH  28  30
ATOM     30  O   UNL     1       0.103   2.504  19.398  0.00  0.00    +0.000 OA
ATOM     31  H   UNL     1      -0.692   2.929  19.778  0.00  0.00    +0.000 HD
ENDBRANCH  28  30
ENDBRANCH  27  28
ENDBRANCH  26  27
ENDBRANCH   6  26
TORSDOF 8
ENDMDL
MODEL 4
REMARK VINA RESULT:      -7.7      2.655      3.797
REMARK  Name = 
REMARK  10 active torsions:
REMARK  status: ('A' for Active; 'I' for Inactive)
REMARK    1  A    between atoms: C_1  and  C_2
REMARK    2  A    between atoms: C_2  and  C_3
REMARK    3  A    between atoms: C_2  and  C_4
REMARK    4  A    between atoms: C_9  and  C_10
REMARK    5  A    between atoms: C_10  and  C_11
REMARK    6  A    between atoms: C_11  and  C_12
REMARK    7  A    between atoms: C_12  and  O_14
REMARK    8  A    between atoms: C_17  and  N_18
REMARK    9  A    between atoms: N_18  and  S_19
REMARK   10  A    between atoms: S_19  and  C_22
REMARK                            x       y       z     vdW  Elec       q    Type
REMARK                         _______ _______ _______ _____ _____    ______ ____
ROOT
ATOM      1  C   UNL     1       3.355   4.498  19.173  0.00  0.00    +0.000 A 
ATOM      2  C   UNL     1       2.484   4.546  20.283  0.00  0.00    +0.000 A 
ATOM      3  C   UNL     1       1.739   5.685  20.596  0.00  0.00    +0.000 A 
ATOM      4  C   UNL     1       1.837   6.825  19.804  0.00  0.00    +0.000 A 
ATOM      5  C   UNL     1       2.651   6.778  18.643  0.00  0.00    +0.000 A 
ATOM      6  C   UNL     1       3.472   5.648  18.332  0.00  0.00    +0.000 A 
ATOM      7  C   UNL     1       2.669   7.980  17.750  0.00  0.00    +0.000 C 
ATOM      8  C   UNL     1       1.626   9.026  18.012  0.00  0.00    +0.000 C 
ATOM      9  C   UNL     1       1.591   9.338  19.492  0.00  0.00    +0.000 C 
ATOM     10  C   UNL     1       1.041   8.074  20.187  0.00  0.00    +0.000 C 
ENDROOT
BRANCH   1  12
ATOM     11  C   UNL     1       4.319   2.475  20.276  0.00  0.00    +0.000 C 
ATOM     12  C   UNL     1       4.204   3.240  18.953  0.00  0.00    +0.000 C 
ATOM     13  C   UNL     1       3.719   2.293  17.846  0.00  0.00    +0.000 C 
ENDBRANCH   1  12
BRANCH   9  14
ATOM     14  N   UNL     1       0.765  10.549  19.725  0.00  0.00    +0.000 NA
ATOM     15  H   UNL     1      -0.220  10.490  19.458  0.00  0.00    +0.000 HD
BRANCH  14  16
ATOM     16  S   UNL     1       0.886  11.308  21.253  0.00  0.00    +0.000 S 
ATOM     17  O   UNL     1       1.203  10.264  22.194  0.00  0.00    +0.000 OA
ATOM     18  O   UNL     1       1.723  12.479  21.102  0.00  0.00    +0.000 OA
BRANCH  16  19
ATOM     19  C   UNL     1      -0.780  11.843  21.605  0.00  0.00    +0.000 A 
ATOM     20  C   UNL     1      -1.276  11.723  22.905  0.00  0.00    +0.000 A 
ATOM     21  C   UNL     1      -2.601  12.081  23.173  0.00  0.00    +0.000 A 
ATOM     22  C   UNL     1      -3.424  12.546  22.144  0.00  0.00    +0.000 A 
ATOM     23 CL   UNL     1      -5.064  12.947  22.476  0.00  0.00    +0.000 Cl
ATOM     24  C   UNL     1      -2.929  12.678  20.847  0.00  0.00    +0.000 A 
ATOM     25  C   UNL     1      -1.598  12.346  20.578  0.00  0.00    +0.000 A 
ENDBRANCH  16  19
ENDBRANCH  14  16
ENDBRANCH   9  14
BRANCH   6  26
ATOM     26  C   UNL     1       4.378   5.602  17.082  0.00  0.00    +0.000 C 
BRANCH  26  27
ATOM     27  C   UNL     1       5.804   6.170  17.172  0.00  0.00    +0.000 C 
BRANCH  27  28
ATOM     28  C   UNL     1       6.856   5.354  16.468  0.00  0.00    +0.000 C 
ATOM     29  O   UNL     1       7.549   5.736  15.543  0.00  0.00    +0.000 OA
BRANCH  28  30
ATOM     30  O   UNL     1       6.995   4.130  17.037  0.00  0.00    +0.000 OA
ATOM     31  H   UNL     1       7.899   3.937  17.358  0.00  0.00    +0.000 HD
ENDBRANCH  28  30
ENDBRANCH  27  28
ENDBRANCH  26  27
ENDBRANCH   6  26
TORSDOF 8
ENDMDL
MODEL 5
REMARK VINA RESULT:      -7.7      4.725      9.383
REMARK  Name = 
REMARK  10 active torsions:
REMARK  status: ('A' for Active; 'I' for Inactive)
REMARK    1  A    between atoms: C_1  and  C_2
REMARK    2  A    between atoms: C_2  and  C_3
REMARK    3  A    between atoms: C_2  and  C_4
REMARK    4  A    between atoms: C_9  and  C_10
REMARK    5  A    between atoms: C_10  and  C_11
REMARK    6  A    between atoms: C_11  and  C_12
REMARK    7  A    between atoms: C_12  and  O_14
REMARK    8  A    between atoms: C_17  and  N_18
REMARK    9  A    between atoms: N_18  and  S_19
REMARK   10  A    between atoms: S_19  and  C_22
REMARK                            x       y       z     vdW  Elec       q    Type
REMARK                         _______ _______ _______ _____ _____    ______ ____
ROOT
ATOM      1  C   UNL     1       0.971  10.932  19.622  0.00  0.00    +0.000 A 
ATOM      2  C   UNL     1       1.291  10.710  18.265  0.00  0.00    +0.000 A 
ATOM      3  C   UNL     1       1.749   9.476  17.800  0.00  0.00    +0.000 A 
ATOM      4  C   UNL     1       1.902   8.409  18.680  0.00  0.00    +0.000 A 
ATOM      5  C   UNL     1       1.520   8.587  20.035  0.00  0.00    +0.000 A 
ATOM      6  C   UNL     1       1.108   9.854  20.552  0.00  0.00    +0.000 A 
ATOM      7  C   UNL     1       1.601   7.401  20.947  0.00  0.00    +0.000 C 
ATOM      8  C   UNL     1       1.823   6.067  20.296  0.00  0.00    +0.000 C 
ATOM      9  C   UNL     1       2.957   6.179  19.300  0.00  0.00    +0.000 C 
ATOM     10  C   UNL     1       2.442   7.077  18.157  0.00  0.00    +0.000 C 
ENDROOT
BRANCH   1  12
ATOM     11  C   UNL     1       1.823  13.193  20.254  0.00  0.00    +0.000 C 
ATOM     12  C   UNL     1       0.563  12.342  20.065  0.00  0.00    +0.000 C 
ATOM     13  C   UNL     1      -0.423  13.072  19.141  0.00  0.00    +0.000 C 
ENDBRANCH   1  12
BRANCH   9  14
ATOM     14  N   UNL     1       3.361   4.822  18.854  0.00  0.00    +0.000 NA
ATOM     15  H   UNL     1       3.070   4.545  17.914  0.00  0.00    +0.000 HD
BRANCH  14  16
ATOM     16  S   UNL     1       4.990   4.362  19.095  0.00  0.00    +0.000 S 
ATOM     17  O   UNL     1       5.587   5.404  19.890  0.00  0.00    +0.000 OA
ATOM     18  O   UNL     1       5.002   2.978  19.517  0.00  0.00    +0.000 OA
BRANCH  16  19
ATOM     19  C   UNL     1       5.715   4.465  17.466  0.00  0.00    +0.000 A 
ATOM     20  C   UNL     1       6.823   5.289  17.263  0.00  0.00    +0.000 A 
ATOM     21  C   UNL     1       7.357   5.424  15.977  0.00  0.00    +0.000 A 
ATOM     22  C   UNL     1       6.777   4.743  14.903  0.00  0.00    +0.000 A 
ATOM     23 CL   UNL     1       7.415   4.945  13.318  0.00  0.00    +0.000 Cl
ATOM     24  C   UNL     1       5.677   3.910  15.104  0.00  0.00    +0.000 A 
ATOM     25  C   UNL     1       5.155   3.752  16.392  0.00  0.00    +0.000 A 
ENDBRANCH  16  19
ENDBRANCH  14  16
ENDBRANCH   9  14
BRANCH   6  26
ATOM     26  C   UNL     1       0.714  10.057  22.032  0.00  0.00    +0.000 C 
BRANCH  26  27
ATOM     27  C   UNL     1      -0.769   9.975  22.428  0.00  0.00    +0.000 C 
BRANCH  27  28
ATOM     28  C   UNL     1      -1.339  11.238  23.017  0.00  0.00    +0.000 C 
ATOM     29  O   UNL     1      -2.464  11.370  23.462  0.00  0.00    +0.000 OA
BRANCH  28  30
ATOM     30  O   UNL     1      -0.411  12.228  23.055  0.00  0.00    +0.000 OA
ATOM     31  H   UNL     1      -0.658  12.987  23.621  0.00  0.00    +0.000 HD
ENDBRANCH  28  30
ENDBRANCH  27  28
ENDBRANCH  26  27
ENDBRANCH   6  26
TORSDOF 8
ENDMDL
MODEL 6
REMARK VINA RESULT:      -7.6      4.743      9.307
REMARK  Name = 
REMARK  10 active torsions:
REMARK  status: ('A' for Active; 'I' for Inactive)
REMARK    1  A    between atoms: C_1  and  C_2
REMARK    2  A    between atoms: C_2  and  C_3
REMARK    3  A    between atoms: C_2  and  C_4
REMARK    4  A    between atoms: C_9  and  C_10
REMARK    5  A    between atoms: C_10  and  C_11
REMARK    6  A    between atoms: C_11  and  C_12
REMARK    7  A    between atoms: C_12  and  O_14
REMARK    8  A    between atoms: C_17  and  N_18
REMARK    9  A    between atoms: N_18  and  S_19
REMARK   10  A    between atoms: S_19  and  C_22
REMARK                            x       y       z     vdW  Elec       q    Type
REMARK                         _______ _______ _______ _____ _____    ______ ____
ROOT
ATOM      1  C   UNL     1       1.172  10.829  19.070  0.00  0.00    +0.000 A 
ATOM      2  C   UNL     1       1.582  10.426  17.780  0.00  0.00    +0.000 A 
ATOM      3  C   UNL     1       2.033   9.133  17.512  0.00  0.00    +0.000 A 
ATOM      4  C   UNL     1       2.089   8.185  18.530  0.00  0.00    +0.000 A 
ATOM      5  C   UNL     1       1.615   8.545  19.819  0.00  0.00    +0.000 A 
ATOM      6  C   UNL     1       1.207   9.878  20.137  0.00  0.00    +0.000 A 
ATOM      7  C   UNL     1       1.593   7.485  20.877  0.00  0.00    +0.000 C 
ATOM      8  C   UNL     1       1.819   6.074  20.420  0.00  0.00    +0.000 C 
ATOM      9  C   UNL     1       3.025   6.031  19.507  0.00  0.00    +0.000 C 
ATOM     10  C   UNL     1       2.622   6.785  18.223  0.00  0.00    +0.000 C 
ENDROOT
BRANCH   1  12
ATOM     11  C   UNL     1       2.006  13.183  19.084  0.00  0.00    +0.000 C 
ATOM     12  C   UNL     1       0.777  12.293  19.297  0.00  0.00    +0.000 C 
ATOM     13  C   UNL     1      -0.391  12.809  18.445  0.00  0.00    +0.000 C 
ENDBRANCH   1  12
BRANCH   9  14
ATOM     14  N   UNL     1       3.417   4.619  19.268  0.00  0.00    +0.000 NA
ATOM     15  H   UNL     1       2.957   4.142  18.490  0.00  0.00    +0.000 HD
BRANCH  14  16
ATOM     16  S   UNL     1       5.088   4.256  19.240  0.00  0.00    +0.000 S 
ATOM     17  O   UNL     1       5.749   5.366  19.876  0.00  0.00    +0.000 OA
ATOM     18  O   UNL     1       5.254   2.898  19.709  0.00  0.00    +0.000 OA
BRANCH  16  19
ATOM     19  C   UNL     1       5.514   4.315  17.507  0.00  0.00    +0.000 A 
ATOM     20  C   UNL     1       4.539   4.016  16.554  0.00  0.00    +0.000 A 
ATOM     21  C   UNL     1       4.882   3.998  15.198  0.00  0.00    +0.000 A 
ATOM     22  C   UNL     1       6.195   4.268  14.804  0.00  0.00    +0.000 A 
ATOM     23 CL   UNL     1       6.618   4.206  13.137  0.00  0.00    +0.000 Cl
ATOM     24  C   UNL     1       7.169   4.578  15.753  0.00  0.00    +0.000 A 
ATOM     25  C   UNL     1       6.826   4.622  17.108  0.00  0.00    +0.000 A 
ENDBRANCH  16  19
ENDBRANCH  14  16
ENDBRANCH   9  14
BRANCH   6  26
ATOM     26  C   UNL     1       0.714  10.278  21.545  0.00  0.00    +0.000 C 
BRANCH  26  27
ATOM     27  C   UNL     1      -0.665  10.942  21.692  0.00  0.00    +0.000 C 
BRANCH  27  28
ATOM     28  C   UNL     1      -1.286  10.817  23.059  0.00  0.00    +0.000 C 
ATOM     29  O   UNL     1      -2.284  11.399  23.441  0.00  0.00    +0.000 OA
BRANCH  28  30
ATOM     30  O   UNL     1      -0.626   9.908  23.820  0.00  0.00    +0.000 OA
ATOM     31  H   UNL     1      -0.706  10.058  24.784  0.00  0.00    +0.000 HD
ENDBRANCH  28  30
ENDBRANCH  27  28
ENDBRANCH  26  27
ENDBRANCH   6  26
TORSDOF 8
ENDMDL
MODEL 7
REMARK VINA RESULT:      -7.5      4.162      9.384
REMARK  Name = 
REMARK  10 active torsions:
REMARK  status: ('A' for Active; 'I' for Inactive)
REMARK    1  A    between atoms: C_1  and  C_2
REMARK    2  A    between atoms: C_2  and  C_3
REMARK    3  A    between atoms: C_2  and  C_4
REMARK    4  A    between atoms: C_9  and  C_10
REMARK    5  A    between atoms: C_10  and  C_11
REMARK    6  A    between atoms: C_11  and  C_12
REMARK    7  A    between atoms: C_12  and  O_14
REMARK    8  A    between atoms: C_17  and  N_18
REMARK    9  A    between atoms: N_18  and  S_19
REMARK   10  A    between atoms: S_19  and  C_22
REMARK                            x       y       z     vdW  Elec       q    Type
REMARK                         _______ _______ _______ _____ _____    ______ ____
ROOT
ATOM      1  C   UNL     1      -0.916  11.066  21.196  0.00  0.00    +0.000 A 
ATOM      2  C   UNL     1      -0.363  10.554  22.390  0.00  0.00    +0.000 A 
ATOM      3  C   UNL     1       0.581   9.526  22.393  0.00  0.00    +0.000 A 
ATOM      4  C   UNL     1       1.014   8.969  21.193  0.00  0.00    +0.000 A 
ATOM      5  C   UNL     1       0.526   9.515  19.977  0.00  0.00    +0.000 A 
ATOM      6  C   UNL     1      -0.487  10.524  19.944  0.00  0.00    +0.000 A 
ATOM      7  C   UNL     1       1.075   8.968  18.694  0.00  0.00    +0.000 C 
ATOM      8  C   UNL     1       2.281   8.083  18.804  0.00  0.00    +0.000 C 
ATOM      9  C   UNL     1       2.047   7.049  19.883  0.00  0.00    +0.000 C 
ATOM     10  C   UNL     1       2.021   7.818  21.220  0.00  0.00    +0.000 C 
ENDROOT
BRANCH   1  12
ATOM     11  C   UNL     1      -2.577  12.153  22.712  0.00  0.00    +0.000 C 
ATOM     12  C   UNL     1      -2.014  12.132  21.287  0.00  0.00    +0.000 C 
ATOM     13  C   UNL     1      -1.602  13.551  20.870  0.00  0.00    +0.000 C 
ENDBRANCH   1  12
BRANCH   9  14
ATOM     14  N   UNL     1       3.107   6.012  19.816  0.00  0.00    +0.000 NA
ATOM     15  H   UNL     1       3.506   5.707  20.707  0.00  0.00    +0.000 HD
BRANCH  14  16
ATOM     16  S   UNL     1       2.812   4.641  18.836  0.00  0.00    +0.000 S 
ATOM     17  O   UNL     1       3.188   3.497  19.626  0.00  0.00    +0.000 OA
ATOM     18  O   UNL     1       1.487   4.777  18.271  0.00  0.00    +0.000 OA
BRANCH  16  19
ATOM     19  C   UNL     1       4.009   4.786  17.519  0.00  0.00    +0.000 A 
ATOM     20  C   UNL     1       4.539   3.627  16.947  0.00  0.00    +0.000 A 
ATOM     21  C   UNL     1       5.523   3.733  15.959  0.00  0.00    +0.000 A 
ATOM     22  C   UNL     1       5.978   4.990  15.555  0.00  0.00    +0.000 A 
ATOM     23 CL   UNL     1       7.217   5.110  14.367  0.00  0.00    +0.000 Cl
ATOM     24  C   UNL     1       5.443   6.150  16.115  0.00  0.00    +0.000 A 
ATOM     25  C   UNL     1       4.441   6.051  17.086  0.00  0.00    +0.000 A 
ENDBRANCH  16  19
ENDBRANCH  14  16
ENDBRANCH   9  14
BRANCH   6  26
ATOM     26  C   UNL     1      -1.037  11.103  18.623  0.00  0.00    +0.000 C 
BRANCH  26  27
ATOM     27  C   UNL     1      -2.234  10.414  17.947  0.00  0.00    +0.000 C 
BRANCH  27  28
ATOM     28  C   UNL     1      -3.079  11.314  17.084  0.00  0.00    +0.000 C 
ATOM     29  O   UNL     1      -4.198  11.711  17.354  0.00  0.00    +0.000 OA
BRANCH  28  30
ATOM     30  O   UNL     1      -2.411  11.696  15.966  0.00  0.00    +0.000 OA
ATOM     31  H   UNL     1      -2.181  12.647  15.942  0.00  0.00    +0.000 HD
ENDBRANCH  28  30
ENDBRANCH  27  28
ENDBRANCH  26  27
ENDBRANCH   6  26
TORSDOF 8
ENDMDL
MODEL 8
REMARK VINA RESULT:      -7.5      5.182      9.481
REMARK  Name = 
REMARK  10 active torsions:
REMARK  status: ('A' for Active; 'I' for Inactive)
REMARK    1  A    between atoms: C_1  and  C_2
REMARK    2  A    between atoms: C_2  and  C_3
REMARK    3  A    between atoms: C_2  and  C_4
REMARK    4  A    between atoms: C_9  and  C_10
REMARK    5  A    between atoms: C_10  and  C_11
REMARK    6  A    between atoms: C_11  and  C_12
REMARK    7  A    between atoms: C_12  and  O_14
REMARK    8  A    between atoms: C_17  and  N_18
REMARK    9  A    between atoms: N_18  and  S_19
REMARK   10  A    between atoms: S_19  and  C_22
REMARK                            x       y       z     vdW  Elec       q    Type
REMARK                         _______ _______ _______ _____ _____    ______ ____
ROOT
ATOM      1  C   UNL     1       0.732   9.867  19.190  0.00  0.00    +0.000 A 
ATOM      2  C   UNL     1       1.397   9.937  17.946  0.00  0.00    +0.000 A 
ATOM      3  C   UNL     1       2.316   8.968  17.537  0.00  0.00    +0.000 A 
ATOM      4  C   UNL     1       2.605   7.885  18.361  0.00  0.00    +0.000 A 
ATOM      5  C   UNL     1       1.898   7.755  19.585  0.00  0.00    +0.000 A 
ATOM      6  C   UNL     1       0.998   8.761  20.057  0.00  0.00    +0.000 A 
ATOM      7  C   UNL     1       2.151   6.533  20.414  0.00  0.00    +0.000 C 
ATOM      8  C   UNL     1       2.925   5.427  19.760  0.00  0.00    +0.000 C 
ATOM      9  C   UNL     1       4.154   6.003  19.091  0.00  0.00    +0.000 C 
ATOM     10  C   UNL     1       3.643   6.856  17.911  0.00  0.00    +0.000 C 
ENDROOT
BRANCH   1  12
ATOM     11  C   UNL     1       0.436  12.346  19.164  0.00  0.00    +0.000 C 
ATOM     12  C   UNL     1      -0.193  11.018  19.600  0.00  0.00    +0.000 C 
ATOM     13  C   UNL     1      -1.635  10.932  19.082  0.00  0.00    +0.000 C 
ENDBRANCH   1  12
BRANCH   9  14
ATOM     14  N   UNL     1       5.058   4.901  18.678  0.00  0.00    +0.000 NA
ATOM     15  H   UNL     1       4.639   4.145  18.132  0.00  0.00    +0.000 HD
BRANCH  14  16
ATOM     16  S   UNL     1       6.561   5.328  17.983  0.00  0.00    +0.000 S 
ATOM     17  O   UNL     1       6.584   6.767  17.934  0.00  0.00    +0.000 OA
ATOM     18  O   UNL     1       7.593   4.571  18.657  0.00  0.00    +0.000 OA
BRANCH  16  19
ATOM     19  C   UNL     1       6.439   4.748  16.299  0.00  0.00    +0.000 A 
ATOM     20  C   UNL     1       7.425   5.110  15.379  0.00  0.00    +0.000 A 
ATOM     21  C   UNL     1       7.303   4.712  14.044  0.00  0.00    +0.000 A 
ATOM     22  C   UNL     1       6.196   3.965  13.634  0.00  0.00    +0.000 A 
ATOM     23 CL   UNL     1       6.034   3.512  11.982  0.00  0.00    +0.000 Cl
ATOM     24  C   UNL     1       5.215   3.591  14.552  0.00  0.00    +0.000 A 
ATOM     25  C   UNL     1       5.345   3.965  15.893  0.00  0.00    +0.000 A 
ENDBRANCH  16  19
ENDBRANCH  14  16
ENDBRANCH   9  14
BRANCH   6  26
ATOM     26  C   UNL     1       0.245   8.634  21.400  0.00  0.00    +0.000 C 
BRANCH  26  27
ATOM     27  C   UNL     1       0.637   9.557  22.565  0.00  0.00    +0.000 C 
BRANCH  27  28
ATOM     28  C   UNL     1      -0.476  10.429  23.085  0.00  0.00    +0.000 C 
ATOM     29  O   UNL     1      -0.460  11.645  23.139  0.00  0.00    +0.000 OA
BRANCH  28  30
ATOM     30  O   UNL     1      -1.558   9.691  23.439  0.00  0.00    +0.000 OA
ATOM     31  H   UNL     1      -2.135   9.439  22.690  0.00  0.00    +0.000 HD
ENDBRANCH  28  30
ENDBRANCH  27  28
ENDBRANCH  26  27
ENDBRANCH   6  26
TORSDOF 8
ENDMDL
MODEL 9
REMARK VINA RESULT:      -7.4      0.734      1.197
REMARK  Name = 
REMARK  10 active torsions:
REMARK  status: ('A' for Active; 'I' for Inactive)
REMARK    1  A    between atoms: C_1  and  C_2
REMARK    2  A    between atoms: C_2  and  C_3
REMARK    3  A    between atoms: C_2  and  C_4
REMARK    4  A    between atoms: C_9  and  C_10
REMARK    5  A    between atoms: C_10  and  C_11
REMARK    6  A    between atoms: C_11  and  C_12
REMARK    7  A    between atoms: C_12  and  O_14
REMARK    8  A    between atoms: C_17  and  N_18
REMARK    9  A    between atoms: N_18  and  S_19
REMARK   10  A    between atoms: S_19  and  C_22
REMARK                            x       y       z     vdW  Elec       q    Type
REMARK                         _______ _______ _______ _____ _____    ______ ____
ROOT
ATOM      1  C   UNL     1       2.829   5.804  18.409  0.00  0.00    +0.000 A 
ATOM      2  C   UNL     1       3.323   6.749  17.484  0.00  0.00    +0.000 A 
ATOM      3  C   UNL     1       3.038   8.112  17.588  0.00  0.00    +0.000 A 
ATOM      4  C   UNL     1       2.245   8.585  18.629  0.00  0.00    +0.000 A 
ATOM      5  C   UNL     1       1.794   7.664  19.611  0.00  0.00    +0.000 A 
ATOM      6  C   UNL     1       2.019   6.256  19.498  0.00  0.00    +0.000 A 
ATOM      7  C   UNL     1       1.023   8.205  20.776  0.00  0.00    +0.000 C 
ATOM      8  C   UNL     1       1.020   9.695  20.946  0.00  0.00    +0.000 C 
ATOM      9  C   UNL     1       0.702  10.349  19.619  0.00  0.00    +0.000 C 
ATOM     10  C   UNL     1       1.913  10.076  18.702  0.00  0.00    +0.000 C 
ENDROOT
BRANCH   1  12
ATOM     11  C   UNL     1       1.891   3.671  17.510  0.00  0.00    +0.000 C 
ATOM     12  C   UNL     1       3.114   4.317  18.171  0.00  0.00    +0.000 C 
ATOM     13  C   UNL     1       4.374   4.002  17.352  0.00  0.00    +0.000 C 
ENDBRANCH   1  12
BRANCH   9  14
ATOM     14  N   UNL     1       0.432  11.794  19.829  0.00  0.00    +0.000 NA
ATOM     15  H   UNL     1       1.146  12.446  19.498  0.00  0.00    +0.000 HD
BRANCH  14  16
ATOM     16  S   UNL     1      -1.112  12.382  19.388  0.00  0.00    +0.000 S 
ATOM     17  O   UNL     1      -0.929  13.768  19.045  0.00  0.00    +0.000 OA
ATOM     18  O   UNL     1      -1.698  11.437  18.461  0.00  0.00    +0.000 OA
BRANCH  16  19
ATOM     19  C   UNL     1      -2.044  12.336  20.910  0.00  0.00    +0.000 A 
ATOM     20  C   UNL     1      -3.384  12.731  20.903  0.00  0.00    +0.000 A 
ATOM     21  C   UNL     1      -4.101  12.758  22.103  0.00  0.00    +0.000 A 
ATOM     22  C   UNL     1      -3.477  12.401  23.301  0.00  0.00    +0.000 A 
ATOM     23 CL   UNL     1      -4.357  12.475  24.778  0.00  0.00    +0.000 Cl
ATOM     24  C   UNL     1      -2.143  11.995  23.310  0.00  0.00    +0.000 A 
ATOM     25  C   UNL     1      -1.428  11.941  22.110  0.00  0.00    +0.000 A 
ENDBRANCH  16  19
ENDBRANCH  14  16
ENDBRANCH   9  14
BRANCH   6  26
ATOM     26  C   UNL     1       1.510   5.249  20.552  0.00  0.00    +0.000 C 
BRANCH  26  27
ATOM     27  C   UNL     1       2.532   4.462  21.388  0.00  0.00    +0.000 C 
BRANCH  27  28
ATOM     28  C   UNL     1       2.196   3.009  21.597  0.00  0.00    +0.000 C 
ATOM     29  O   UNL     1       2.946   2.165  22.051  0.00  0.00    +0.000 OA
BRANCH  28  30
ATOM     30  O   UNL     1       0.904   2.749  21.274  0.00  0.00    +0.000 OA
ATOM     31  H   UNL     1       0.645   3.055  20.381  0.00  0.00    +0.000 HD
ENDBRANCH  28  30
ENDBRANCH  27  28
ENDBRANCH  26  27
ENDBRANCH   6  26
TORSDOF 8
ENDMDL
