MODEL 1
REMARK VINA RESULT:      -8.8      0.000      0.000
REMARK  Name = 
REMARK  7 active torsions:
REMARK  status: ('A' for Active; 'I' for Inactive)
REMARK    1  A    between atoms: C_2  and  C_3
REMARK    2  A    between atoms: C_3  and  S_4
REMARK    3  A    between atoms: S_4  and  C_5
REMARK    4  A    between atoms: N_15  and  C_16
REMARK    5  A    between atoms: C_16  and  C_17
REMARK    6  A    between atoms: C_17  and  C_18
REMARK    7  A    between atoms: N_24  and  C_25
REMARK                            x       y       z     vdW  Elec       q    Type
REMARK                         _______ _______ _______ _____ _____    ______ ____
ROOT
ATOM      1  C   UNL     1       7.019   5.698  17.018  0.00  0.00    +0.000 A 
ATOM      2  N   UNL     1       7.661   5.697  15.893  0.00  0.00    +0.000 NA
ATOM      3  C   UNL     1       7.125   4.992  14.816  0.00  0.00    +0.000 A 
ATOM      4  C   UNL     1       7.738   5.111  13.566  0.00  0.00    +0.000 A 
ATOM      5  C   UNL     1       7.138   4.564  12.430  0.00  0.00    +0.000 A 
ATOM      6  C   UNL     1       5.948   3.846  12.549  0.00  0.00    +0.000 A 
ATOM      7  C   UNL     1       5.366   3.670  13.804  0.00  0.00    +0.000 A 
ATOM      8  C   UNL     1       5.953   4.260  14.928  0.00  0.00    +0.000 A 
ATOM      9  C   UNL     1       5.335   4.160  16.257  0.00  0.00    +0.000 A 
ATOM     10  O   UNL     1       4.429   3.344  16.414  0.00  0.00    +0.000 OA
ATOM     11  N   UNL     1       5.853   4.985  17.261  0.00  0.00    +0.000 N 
ENDROOT
BRANCH   1  12
ATOM     12  S   UNL     1       7.717   6.669  18.296  0.00  0.00    +0.000 S 
BRANCH  12  13
ATOM     13  C   UNL     1       7.584   8.340  17.578  0.00  0.00    +0.000 C 
BRANCH  13  15
ATOM     14  O   UNL     1       9.051   9.060  19.329  0.00  0.00    +0.000 OA
ATOM     15  C   UNL     1       8.524   9.337  18.254  0.00  0.00    +0.000 C 
ATOM     16  N   UNL     1       8.688  10.518  17.548  0.00  0.00    +0.000 N 
ATOM     17  H   UNL     1       8.031  10.666  16.788  0.00  0.00    +0.000 HD
BRANCH  16  18
ATOM     18  C   UNL     1       9.461  11.636  17.936  0.00  0.00    +0.000 A 
ATOM     19  C   UNL     1      10.844  11.711  17.790  0.00  0.00    +0.000 A 
ATOM     20  C   UNL     1      11.550  12.820  18.267  0.00  0.00    +0.000 A 
ATOM     21  C   UNL     1      10.880  13.873  18.885  0.00  0.00    +0.000 A 
ATOM     22  C   UNL     1       9.497  13.835  18.998  0.00  0.00    +0.000 A 
ATOM     23  C   UNL     1       8.794  12.726  18.512  0.00  0.00    +0.000 A 
ENDBRANCH  16  18
ENDBRANCH  13  15
ENDBRANCH  12  13
ENDBRANCH   1  12
BRANCH  11  24
ATOM     24  C   UNL     1       5.180   4.880  18.570  0.00  0.00    +0.000 C 
BRANCH  24  25
ATOM     25  C   UNL     1       3.806   5.549  18.727  0.00  0.00    +0.000 C 
BRANCH  25  26
ATOM     26  C   UNL     1       2.667   4.686  19.204  0.00  0.00    +0.000 A 
ATOM     27  C   UNL     1       1.884   3.940  18.315  0.00  0.00    +0.000 A 
ATOM     28  C   UNL     1       0.891   3.081  18.802  0.00  0.00    +0.000 A 
ATOM     29  C   UNL     1       0.664   2.971  20.173  0.00  0.00    +0.000 A 
ATOM     30  C   UNL     1       1.430   3.719  21.061  0.00  0.00    +0.000 A 
ATOM     31  C   UNL     1       2.427   4.563  20.580  0.00  0.00    +0.000 A 
ENDBRANCH  25  26
ENDBRANCH  24  25
ENDBRANCH  11  24
TORSDOF 7
ENDMDL
MODEL 2
REMARK VINA RESULT:      -8.7      4.051      7.591
REMARK  Name = 
REMARK  7 active torsions:
REMARK  status: ('A' for Active; 'I' for Inactive)
REMARK    1  A    between atoms: C_2  and  C_3
REMARK    2  A    between atoms: C_3  and  S_4
REMARK    3  A    between atoms: S_4  and  C_5
REMARK    4  A    between atoms: N_15  and  C_16
REMARK    5  A    between atoms: C_16  and  C_17
REMARK    6  A    between atoms: C_17  and  C_18
REMARK    7  A    between atoms: N_24  and  C_25
REMARK                            x       y       z     vdW  Elec       q    Type
REMARK                         _______ _______ _______ _____ _____    ______ ____
ROOT
ATOM      1  C   UNL     1       3.861   6.288  18.328  0.00  0.00    +0.000 A 
ATOM      2  N   UNL     1       4.132   5.053  18.612  0.00  0.00    +0.000 NA
ATOM      3  C   UNL     1       3.312   4.379  19.516  0.00  0.00    +0.000 A 
ATOM      4  C   UNL     1       3.513   3.009  19.710  0.00  0.00    +0.000 A 
ATOM      5  C   UNL     1       2.610   2.263  20.470  0.00  0.00    +0.000 A 
ATOM      6  C   UNL     1       1.531   2.895  21.085  0.00  0.00    +0.000 A 
ATOM      7  C   UNL     1       1.361   4.272  20.948  0.00  0.00    +0.000 A 
ATOM      8  C   UNL     1       2.247   5.002  20.148  0.00  0.00    +0.000 A 
ATOM      9  C   UNL     1       2.064   6.441  19.918  0.00  0.00    +0.000 A 
ATOM     10  O   UNL     1       1.268   7.045  20.633  0.00  0.00    +0.000 OA
ATOM     11  N   UNL     1       2.841   7.026  18.913  0.00  0.00    +0.000 N 
ENDROOT
BRANCH   1  12
ATOM     12  S   UNL     1       4.890   7.040  17.128  0.00  0.00    +0.000 S 
BRANCH  12  13
ATOM     13  C   UNL     1       6.495   6.263  17.508  0.00  0.00    +0.000 C 
BRANCH  13  15
ATOM     14  O   UNL     1       7.886   4.542  16.591  0.00  0.00    +0.000 OA
ATOM     15  C   UNL     1       6.970   5.337  16.390  0.00  0.00    +0.000 C 
ATOM     16  N   UNL     1       6.287   5.505  15.196  0.00  0.00    +0.000 N 
ATOM     17  H   UNL     1       5.704   6.335  15.141  0.00  0.00    +0.000 HD
BRANCH  16  18
ATOM     18  C   UNL     1       6.525   4.824  13.981  0.00  0.00    +0.000 A 
ATOM     19  C   UNL     1       7.549   5.152  13.096  0.00  0.00    +0.000 A 
ATOM     20  C   UNL     1       7.676   4.481  11.875  0.00  0.00    +0.000 A 
ATOM     21  C   UNL     1       6.787   3.465  11.530  0.00  0.00    +0.000 A 
ATOM     22  C   UNL     1       5.788   3.096  12.420  0.00  0.00    +0.000 A 
ATOM     23  C   UNL     1       5.670   3.765  13.644  0.00  0.00    +0.000 A 
ENDBRANCH  16  18
ENDBRANCH  13  15
ENDBRANCH  12  13
ENDBRANCH   1  12
BRANCH  11  24
ATOM     24  C   UNL     1       2.600   8.465  18.689  0.00  0.00    +0.000 C 
BRANCH  24  25
ATOM     25  C   UNL     1       1.419   8.864  17.791  0.00  0.00    +0.000 C 
BRANCH  25  26
ATOM     26  C   UNL     1       0.354   9.740  18.399  0.00  0.00    +0.000 A 
ATOM     27  C   UNL     1       0.543  10.389  19.624  0.00  0.00    +0.000 A 
ATOM     28  C   UNL     1      -0.433  11.264  20.115  0.00  0.00    +0.000 A 
ATOM     29  C   UNL     1      -1.606  11.487  19.396  0.00  0.00    +0.000 A 
ATOM     30  C   UNL     1      -1.807  10.835  18.183  0.00  0.00    +0.000 A 
ATOM     31  C   UNL     1      -0.831   9.976  17.686  0.00  0.00    +0.000 A 
ENDBRANCH  25  26
ENDBRANCH  24  25
ENDBRANCH  11  24
TORSDOF 7
ENDMDL
MODEL 3
REMARK VINA RESULT:      -8.7      0.629      1.314
REMARK  Name = 
REMARK  7 active torsions:
REMARK  status: ('A' for Active; 'I' for Inactive)
REMARK    1  A    between atoms: C_2  and  C_3
REMARK    2  A    between atoms: C_3  and  S_4
REMARK    3  A    between atoms: S_4  and  C_5
REMARK    4  A    between atoms: N_15  and  C_16
REMARK    5  A    between atoms: C_16  and  C_17
REMARK    6  A    between atoms: C_17  and  C_18
REMARK    7  A    between atoms: N_24  and  C_25
REMARK                            x       y       z     vdW  Elec       q    Type
REMARK                         _______ _______ _______ _____ _____    ______ ____
ROOT
ATOM      1  C   UNL     1       6.897   5.844  16.943  0.00  0.00    +0.000 A 
ATOM      2  N   UNL     1       7.594   5.614  15.876  0.00  0.00    +0.000 NA
ATOM      3  C   UNL     1       6.992   4.937  14.816  0.00  0.00    +0.000 A 
ATOM      4  C   UNL     1       7.694   4.820  13.612  0.00  0.00    +0.000 A 
ATOM      5  C   UNL     1       7.066   4.305  12.476  0.00  0.00    +0.000 A 
ATOM      6  C   UNL     1       5.749   3.854  12.554  0.00  0.00    +0.000 A 
ATOM      7  C   UNL     1       5.065   3.910  13.768  0.00  0.00    +0.000 A 
ATOM      8  C   UNL     1       5.690   4.468  14.888  0.00  0.00    +0.000 A 
ATOM      9  C   UNL     1       4.983   4.613  16.168  0.00  0.00    +0.000 A 
ATOM     10  O   UNL     1       3.920   4.014  16.313  0.00  0.00    +0.000 OA
ATOM     11  N   UNL     1       5.596   5.404  17.145  0.00  0.00    +0.000 N 
ENDROOT
BRANCH   1  12
ATOM     12  S   UNL     1       7.699   6.766  18.196  0.00  0.00    +0.000 S 
BRANCH  12  13
ATOM     13  C   UNL     1       7.571   8.456  17.525  0.00  0.00    +0.000 C 
BRANCH  13  15
ATOM     14  O   UNL     1       9.091   9.100  19.260  0.00  0.00    +0.000 OA
ATOM     15  C   UNL     1       8.515   9.431  18.225  0.00  0.00    +0.000 C 
ATOM     16  N   UNL     1       8.625  10.658  17.591  0.00  0.00    +0.000 N 
ATOM     17  H   UNL     1       7.934  10.837  16.867  0.00  0.00    +0.000 HD
BRANCH  16  18
ATOM     18  C   UNL     1       9.388  11.768  18.019  0.00  0.00    +0.000 A 
ATOM     19  C   UNL     1       8.853  12.862  18.693  0.00  0.00    +0.000 A 
ATOM     20  C   UNL     1       9.658  13.960  19.018  0.00  0.00    +0.000 A 
ATOM     21  C   UNL     1      11.010  13.970  18.682  0.00  0.00    +0.000 A 
ATOM     22  C   UNL     1      11.568  12.868  18.050  0.00  0.00    +0.000 A 
ATOM     23  C   UNL     1      10.761  11.769  17.734  0.00  0.00    +0.000 A 
ENDBRANCH  16  18
ENDBRANCH  13  15
ENDBRANCH  12  13
ENDBRANCH   1  12
BRANCH  11  24
ATOM     24  C   UNL     1       4.835   5.553  18.401  0.00  0.00    +0.000 C 
BRANCH  24  25
ATOM     25  C   UNL     1       4.777   4.348  19.352  0.00  0.00    +0.000 C 
BRANCH  25  26
ATOM     26  C   UNL     1       3.413   3.820  19.716  0.00  0.00    +0.000 A 
ATOM     27  C   UNL     1       2.511   4.571  20.478  0.00  0.00    +0.000 A 
ATOM     28  C   UNL     1       1.221   4.086  20.722  0.00  0.00    +0.000 A 
ATOM     29  C   UNL     1       0.828   2.845  20.222  0.00  0.00    +0.000 A 
ATOM     30  C   UNL     1       1.724   2.087  19.475  0.00  0.00    +0.000 A 
ATOM     31  C   UNL     1       3.003   2.575  19.218  0.00  0.00    +0.000 A 
ENDBRANCH  25  26
ENDBRANCH  24  25
ENDBRANCH  11  24
TORSDOF 7
ENDMDL
MODEL 4
REMARK VINA RESULT:      -8.6      4.098      7.598
REMARK  Name = 
REMARK  7 active torsions:
REMARK  status: ('A' for Active; 'I' for Inactive)
REMARK    1  A    between atoms: C_2  and  C_3
REMARK    2  A    between atoms: C_3  and  S_4
REMARK    3  A    between atoms: S_4  and  C_5
REMARK    4  A    between atoms: N_15  and  C_16
REMARK    5  A    between atoms: C_16  and  C_17
REMARK    6  A    between atoms: C_17  and  C_18
REMARK    7  A    between atoms: N_24  and  C_25
REMARK                            x       y       z     vdW  Elec       q    Type
REMARK                         _______ _______ _______ _____ _____    ______ ____
ROOT
ATOM      1  C   UNL     1       3.735   6.234  18.255  0.00  0.00    +0.000 A 
ATOM      2  N   UNL     1       3.979   4.980  18.472  0.00  0.00    +0.000 NA
ATOM      3  C   UNL     1       3.168   4.284  19.367  0.00  0.00    +0.000 A 
ATOM      4  C   UNL     1       3.337   2.902  19.489  0.00  0.00    +0.000 A 
ATOM      5  C   UNL     1       2.437   2.144  20.240  0.00  0.00    +0.000 A 
ATOM      6  C   UNL     1       1.394   2.774  20.919  0.00  0.00    +0.000 A 
ATOM      7  C   UNL     1       1.258   4.160  20.852  0.00  0.00    +0.000 A 
ATOM      8  C   UNL     1       2.140   4.904  20.061  0.00  0.00    +0.000 A 
ATOM      9  C   UNL     1       1.991   6.357  19.905  0.00  0.00    +0.000 A 
ATOM     10  O   UNL     1       1.233   6.947  20.673  0.00  0.00    +0.000 OA
ATOM     11  N   UNL     1       2.754   6.969  18.906  0.00  0.00    +0.000 N 
ENDROOT
BRANCH   1  12
ATOM     12  S   UNL     1       4.748   7.015  17.061  0.00  0.00    +0.000 S 
BRANCH  12  13
ATOM     13  C   UNL     1       6.363   6.245  17.414  0.00  0.00    +0.000 C 
BRANCH  13  15
ATOM     14  O   UNL     1       7.740   4.520  16.487  0.00  0.00    +0.000 OA
ATOM     15  C   UNL     1       6.812   5.303  16.299  0.00  0.00    +0.000 C 
ATOM     16  N   UNL     1       6.091   5.442  15.124  0.00  0.00    +0.000 N 
ATOM     17  H   UNL     1       5.499   6.266  15.071  0.00  0.00    +0.000 HD
BRANCH  16  18
ATOM     18  C   UNL     1       6.298   4.740  13.915  0.00  0.00    +0.000 A 
ATOM     19  C   UNL     1       5.513   3.669  13.496  0.00  0.00    +0.000 A 
ATOM     20  C   UNL     1       5.825   2.974  12.323  0.00  0.00    +0.000 A 
ATOM     21  C   UNL     1       6.920   3.351  11.548  0.00  0.00    +0.000 A 
ATOM     22  C   UNL     1       7.687   4.444  11.928  0.00  0.00    +0.000 A 
ATOM     23  C   UNL     1       7.365   5.141  13.098  0.00  0.00    +0.000 A 
ENDBRANCH  16  18
ENDBRANCH  13  15
ENDBRANCH  12  13
ENDBRANCH   1  12
BRANCH  11  24
ATOM     24  C   UNL     1       2.546   8.423  18.758  0.00  0.00    +0.000 C 
BRANCH  24  25
ATOM     25  C   UNL     1       1.430   8.897  17.813  0.00  0.00    +0.000 C 
BRANCH  25  26
ATOM     26  C   UNL     1       0.384   9.818  18.386  0.00  0.00    +0.000 A 
ATOM     27  C   UNL     1      -0.825  10.061  17.725  0.00  0.00    +0.000 A 
ATOM     28  C   UNL     1      -1.810  10.853  18.327  0.00  0.00    +0.000 A 
ATOM     29  C   UNL     1      -1.590  11.416  19.584  0.00  0.00    +0.000 A 
ATOM     30  C   UNL     1      -0.386  11.188  20.241  0.00  0.00    +0.000 A 
ATOM     31  C   UNL     1       0.589  10.389  19.649  0.00  0.00    +0.000 A 
ENDBRANCH  25  26
ENDBRANCH  24  25
ENDBRANCH  11  24
TORSDOF 7
ENDMDL
MODEL 5
REMARK VINA RESULT:      -8.5      0.573      1.054
REMARK  Name = 
REMARK  7 active torsions:
REMARK  status: ('A' for Active; 'I' for Inactive)
REMARK    1  A    between atoms: C_2  and  C_3
REMARK    2  A    between atoms: C_3  and  S_4
REMARK    3  A    between atoms: S_4  and  C_5
REMARK    4  A    between atoms: N_15  and  C_16
REMARK    5  A    between atoms: C_16  and  C_17
REMARK    6  A    between atoms: C_17  and  C_18
REMARK    7  A    between atoms: N_24  and  C_25
REMARK                            x       y       z     vdW  Elec       q    Type
REMARK                         _______ _______ _______ _____ _____    ______ ____
ROOT
ATOM      1  C   UNL     1       7.025   5.664  16.954  0.00  0.00    +0.000 A 
ATOM      2  N   UNL     1       7.653   5.750  15.825  0.00  0.00    +0.000 NA
ATOM      3  C   UNL     1       7.173   5.026  14.734  0.00  0.00    +0.000 A 
ATOM      4  C   UNL     1       7.760   5.233  13.483  0.00  0.00    +0.000 A 
ATOM      5  C   UNL     1       7.200   4.661  12.338  0.00  0.00    +0.000 A 
ATOM      6  C   UNL     1       6.083   3.835  12.448  0.00  0.00    +0.000 A 
ATOM      7  C   UNL     1       5.532   3.574  13.702  0.00  0.00    +0.000 A 
ATOM      8  C   UNL     1       6.074   4.187  14.836  0.00  0.00    +0.000 A 
ATOM      9  C   UNL     1       5.482   3.998  16.167  0.00  0.00    +0.000 A 
ATOM     10  O   UNL     1       4.655   3.099  16.310  0.00  0.00    +0.000 OA
ATOM     11  N   UNL     1       5.932   4.841  17.188  0.00  0.00    +0.000 N 
ENDROOT
BRANCH   1  12
ATOM     12  S   UNL     1       7.645   6.663  18.252  0.00  0.00    +0.000 S 
BRANCH  12  13
ATOM     13  C   UNL     1       7.677   8.300  17.449  0.00  0.00    +0.000 C 
BRANCH  13  15
ATOM     14  O   UNL     1       9.055   8.985  19.282  0.00  0.00    +0.000 OA
ATOM     15  C   UNL     1       8.490   9.319  18.243  0.00  0.00    +0.000 C 
ATOM     16  N   UNL     1       8.501  10.586  17.683  0.00  0.00    +0.000 N 
ATOM     17  H   UNL     1       7.824  10.740  16.941  0.00  0.00    +0.000 HD
BRANCH  16  18
ATOM     18  C   UNL     1       9.131  11.738  18.205  0.00  0.00    +0.000 A 
ATOM     19  C   UNL     1       9.979  11.724  19.310  0.00  0.00    +0.000 A 
ATOM     20  C   UNL     1      10.508  12.917  19.816  0.00  0.00    +0.000 A 
ATOM     21  C   UNL     1      10.202  14.136  19.216  0.00  0.00    +0.000 A 
ATOM     22  C   UNL     1       9.395  14.163  18.087  0.00  0.00    +0.000 A 
ATOM     23  C   UNL     1       8.876  12.967  17.580  0.00  0.00    +0.000 A 
ENDBRANCH  16  18
ENDBRANCH  13  15
ENDBRANCH  12  13
ENDBRANCH   1  12
BRANCH  11  24
ATOM     24  C   UNL     1       5.285   4.642  18.499  0.00  0.00    +0.000 C 
BRANCH  24  25
ATOM     25  C   UNL     1       3.924   5.315  18.738  0.00  0.00    +0.000 C 
BRANCH  25  26
ATOM     26  C   UNL     1       2.797   4.441  19.227  0.00  0.00    +0.000 A 
ATOM     27  C   UNL     1       2.412   4.420  20.572  0.00  0.00    +0.000 A 
ATOM     28  C   UNL     1       1.305   3.663  20.975  0.00  0.00    +0.000 A 
ATOM     29  C   UNL     1       0.586   2.915  20.045  0.00  0.00    +0.000 A 
ATOM     30  C   UNL     1       0.971   2.921  18.708  0.00  0.00    +0.000 A 
ATOM     31  C   UNL     1       2.063   3.685  18.303  0.00  0.00    +0.000 A 
ENDBRANCH  25  26
ENDBRANCH  24  25
ENDBRANCH  11  24
TORSDOF 7
ENDMDL
MODEL 6
REMARK VINA RESULT:      -8.5      1.267      1.485
REMARK  Name = 
REMARK  7 active torsions:
REMARK  status: ('A' for Active; 'I' for Inactive)
REMARK    1  A    between atoms: C_2  and  C_3
REMARK    2  A    between atoms: C_3  and  S_4
REMARK    3  A    between atoms: S_4  and  C_5
REMARK    4  A    between atoms: N_15  and  C_16
REMARK    5  A    between atoms: C_16  and  C_17
REMARK    6  A    between atoms: C_17  and  C_18
REMARK    7  A    between atoms: N_24  and  C_25
REMARK                            x       y       z     vdW  Elec       q    Type
REMARK                         _______ _______ _______ _____ _____    ______ ____
ROOT
ATOM      1  C   UNL     1       6.980   5.806  17.174  0.00  0.00    +0.000 A 
ATOM      2  N   UNL     1       7.594   5.836  16.033  0.00  0.00    +0.000 NA
ATOM      3  C   UNL     1       7.119   5.035  14.996  0.00  0.00    +0.000 A 
ATOM      4  C   UNL     1       7.687   5.177  13.726  0.00  0.00    +0.000 A 
ATOM      5  C   UNL     1       7.129   4.524  12.626  0.00  0.00    +0.000 A 
ATOM      6  C   UNL     1       6.032   3.681  12.800  0.00  0.00    +0.000 A 
ATOM      7  C   UNL     1       5.501   3.486  14.075  0.00  0.00    +0.000 A 
ATOM      8  C   UNL     1       6.041   4.180  15.162  0.00  0.00    +0.000 A 
ATOM      9  C   UNL     1       5.467   4.060  16.510  0.00  0.00    +0.000 A 
ATOM     10  O   UNL     1       4.663   3.153  16.718  0.00  0.00    +0.000 OA
ATOM     11  N   UNL     1       5.908   4.975  17.471  0.00  0.00    +0.000 N 
ENDROOT
BRANCH   1  12
ATOM     12  S   UNL     1       7.590   6.897  18.399  0.00  0.00    +0.000 S 
BRANCH  12  13
ATOM     13  C   UNL     1       8.342   8.198  17.367  0.00  0.00    +0.000 C 
BRANCH  13  15
ATOM     14  O   UNL     1       7.621  10.450  17.745  0.00  0.00    +0.000 OA
ATOM     15  C   UNL     1       8.387   9.548  18.079  0.00  0.00    +0.000 C 
ATOM     16  N   UNL     1       9.344   9.623  19.078  0.00  0.00    +0.000 N 
ATOM     17  H   UNL     1      10.022   8.866  19.089  0.00  0.00    +0.000 HD
BRANCH  16  18
ATOM     18  C   UNL     1       9.646  10.747  19.880  0.00  0.00    +0.000 A 
ATOM     19  C   UNL     1       8.970  11.065  21.054  0.00  0.00    +0.000 A 
ATOM     20  C   UNL     1       9.275  12.237  21.756  0.00  0.00    +0.000 A 
ATOM     21  C   UNL     1      10.268  13.098  21.295  0.00  0.00    +0.000 A 
ATOM     22  C   UNL     1      10.982  12.774  20.151  0.00  0.00    +0.000 A 
ATOM     23  C   UNL     1      10.679  11.596  19.457  0.00  0.00    +0.000 A 
ENDBRANCH  16  18
ENDBRANCH  13  15
ENDBRANCH  12  13
ENDBRANCH   1  12
BRANCH  11  24
ATOM     24  C   UNL     1       5.280   4.843  18.800  0.00  0.00    +0.000 C 
BRANCH  24  25
ATOM     25  C   UNL     1       3.929   5.539  19.028  0.00  0.00    +0.000 C 
BRANCH  25  26
ATOM     26  C   UNL     1       2.744   4.662  19.337  0.00  0.00    +0.000 A 
ATOM     27  C   UNL     1       1.977   4.074  18.324  0.00  0.00    +0.000 A 
ATOM     28  C   UNL     1       0.937   3.195  18.648  0.00  0.00    +0.000 A 
ATOM     29  C   UNL     1       0.647   2.908  19.981  0.00  0.00    +0.000 A 
ATOM     30  C   UNL     1       1.396   3.499  20.993  0.00  0.00    +0.000 A 
ATOM     31  C   UNL     1       2.441   4.362  20.672  0.00  0.00    +0.000 A 
ENDBRANCH  25  26
ENDBRANCH  24  25
ENDBRANCH  11  24
TORSDOF 7
ENDMDL
MODEL 7
REMARK VINA RESULT:      -8.3      0.692      1.198
REMARK  Name = 
REMARK  7 active torsions:
REMARK  status: ('A' for Active; 'I' for Inactive)
REMARK    1  A    between atoms: C_2  and  C_3
REMARK    2  A    between atoms: C_3  and  S_4
REMARK    3  A    between atoms: S_4  and  C_5
REMARK    4  A    between atoms: N_15  and  C_16
REMARK    5  A    between atoms: C_16  and  C_17
REMARK    6  A    between atoms: C_17  and  C_18
REMARK    7  A    between atoms: N_24  and  C_25
REMARK                            x       y       z     vdW  Elec       q    Type
REMARK                         _______ _______ _______ _____ _____    ______ ____
ROOT
ATOM      1  C   UNL     1       7.056   5.634  17.012  0.00  0.00    +0.000 A 
ATOM      2  N   UNL     1       7.646   5.771  15.867  0.00  0.00    +0.000 NA
ATOM      3  C   UNL     1       7.174   5.039  14.778  0.00  0.00    +0.000 A 
ATOM      4  C   UNL     1       7.714   5.297  13.514  0.00  0.00    +0.000 A 
ATOM      5  C   UNL     1       7.153   4.715  12.375  0.00  0.00    +0.000 A 
ATOM      6  C   UNL     1       6.084   3.830  12.501  0.00  0.00    +0.000 A 
ATOM      7  C   UNL     1       5.583   3.520  13.765  0.00  0.00    +0.000 A 
ATOM      8  C   UNL     1       6.124   4.143  14.895  0.00  0.00    +0.000 A 
ATOM      9  C   UNL     1       5.580   3.901  16.238  0.00  0.00    +0.000 A 
ATOM     10  O   UNL     1       4.805   2.958  16.388  0.00  0.00    +0.000 OA
ATOM     11  N   UNL     1       6.014   4.751  17.260  0.00  0.00    +0.000 N 
ENDROOT
BRANCH   1  12
ATOM     12  S   UNL     1       7.658   6.643  18.309  0.00  0.00    +0.000 S 
BRANCH  12  13
ATOM     13  C   UNL     1       7.708   8.271  17.491  0.00  0.00    +0.000 C 
BRANCH  13  15
ATOM     14  O   UNL     1       9.062   8.969  19.339  0.00  0.00    +0.000 OA
ATOM     15  C   UNL     1       8.533   9.289  18.276  0.00  0.00    +0.000 C 
ATOM     16  N   UNL     1       8.596  10.538  17.680  0.00  0.00    +0.000 N 
ATOM     17  H   UNL     1       7.944  10.690  16.917  0.00  0.00    +0.000 HD
BRANCH  16  18
ATOM     18  C   UNL     1       9.249  11.686  18.184  0.00  0.00    +0.000 A 
ATOM     19  C   UNL     1       8.823  12.989  17.942  0.00  0.00    +0.000 A 
ATOM     20  C   UNL     1       9.565  14.078  18.412  0.00  0.00    +0.000 A 
ATOM     21  C   UNL     1      10.735  13.876  19.140  0.00  0.00    +0.000 A 
ATOM     22  C   UNL     1      11.150  12.583  19.429  0.00  0.00    +0.000 A 
ATOM     23  C   UNL     1      10.399  11.497  18.963  0.00  0.00    +0.000 A 
ENDBRANCH  16  18
ENDBRANCH  13  15
ENDBRANCH  12  13
ENDBRANCH   1  12
BRANCH  11  24
ATOM     24  C   UNL     1       5.415   4.497  18.585  0.00  0.00    +0.000 C 
BRANCH  24  25
ATOM     25  C   UNL     1       4.053   5.138  18.892  0.00  0.00    +0.000 C 
BRANCH  25  26
ATOM     26  C   UNL     1       3.064   4.318  19.680  0.00  0.00    +0.000 A 
ATOM     27  C   UNL     1       3.476   3.294  20.542  0.00  0.00    +0.000 A 
ATOM     28  C   UNL     1       2.537   2.612  21.323  0.00  0.00    +0.000 A 
ATOM     29  C   UNL     1       1.183   2.935  21.241  0.00  0.00    +0.000 A 
ATOM     30  C   UNL     1       0.765   3.943  20.378  0.00  0.00    +0.000 A 
ATOM     31  C   UNL     1       1.700   4.633  19.610  0.00  0.00    +0.000 A 
ENDBRANCH  25  26
ENDBRANCH  24  25
ENDBRANCH  11  24
TORSDOF 7
ENDMDL
MODEL 8
REMARK VINA RESULT:      -8.3      1.347      2.158
REMARK  Name = 
REMARK  7 active torsions:
REMARK  status: ('A' for Active; 'I' for Inactive)
REMARK    1  A    between atoms: C_2  and  C_3
REMARK    2  A    between atoms: C_3  and  S_4
REMARK    3  A    between atoms: S_4  and  C_5
REMARK    4  A    between atoms: N_15  and  C_16
REMARK    5  A    between atoms: C_16  and  C_17
REMARK    6  A    between atoms: C_17  and  C_18
REMARK    7  A    between atoms: N_24  and  C_25
REMARK                            x       y       z     vdW  Elec       q    Type
REMARK                         _______ _______ _______ _____ _____    ______ ____
ROOT
ATOM      1  C   UNL     1       6.967   5.729  17.118  0.00  0.00    +0.000 A 
ATOM      2  N   UNL     1       7.587   5.673  15.982  0.00  0.00    +0.000 NA
ATOM      3  C   UNL     1       7.014   4.942  14.942  0.00  0.00    +0.000 A 
ATOM      4  C   UNL     1       7.605   5.003  13.677  0.00  0.00    +0.000 A 
ATOM      5  C   UNL     1       6.970   4.429  12.573  0.00  0.00    +0.000 A 
ATOM      6  C   UNL     1       5.768   3.743  12.741  0.00  0.00    +0.000 A 
ATOM      7  C   UNL     1       5.207   3.625  14.012  0.00  0.00    +0.000 A 
ATOM      8  C   UNL     1       5.829   4.242  15.102  0.00  0.00    +0.000 A 
ATOM      9  C   UNL     1       5.236   4.204  16.446  0.00  0.00    +0.000 A 
ATOM     10  O   UNL     1       4.314   3.415  16.650  0.00  0.00    +0.000 OA
ATOM     11  N   UNL     1       5.791   5.052  17.409  0.00  0.00    +0.000 N 
ENDROOT
BRANCH   1  12
ATOM     12  S   UNL     1       7.712   6.730  18.347  0.00  0.00    +0.000 S 
BRANCH  12  13
ATOM     13  C   UNL     1       7.521   8.387  17.612  0.00  0.00    +0.000 C 
BRANCH  13  15
ATOM     14  O   UNL     1       9.100   9.131  19.252  0.00  0.00    +0.000 OA
ATOM     15  C   UNL     1       8.471   9.409  18.233  0.00  0.00    +0.000 C 
ATOM     16  N   UNL     1       8.523  10.613  17.549  0.00  0.00    +0.000 N 
ATOM     17  H   UNL     1       7.797  10.749  16.851  0.00  0.00    +0.000 HD
BRANCH  16  18
ATOM     18  C   UNL     1       9.276  11.756  17.901  0.00  0.00    +0.000 A 
ATOM     19  C   UNL     1       8.712  12.956  18.326  0.00  0.00    +0.000 A 
ATOM     20  C   UNL     1       9.519  14.069  18.585  0.00  0.00    +0.000 A 
ATOM     21  C   UNL     1      10.902  13.991  18.432  0.00  0.00    +0.000 A 
ATOM     22  C   UNL     1      11.484  12.789  18.053  0.00  0.00    +0.000 A 
ATOM     23  C   UNL     1      10.673  11.676  17.803  0.00  0.00    +0.000 A 
ENDBRANCH  16  18
ENDBRANCH  13  15
ENDBRANCH  12  13
ENDBRANCH   1  12
BRANCH  11  24
ATOM     24  C   UNL     1       5.142   5.010  18.734  0.00  0.00    +0.000 C 
BRANCH  24  25
ATOM     25  C   UNL     1       3.609   5.101  18.786  0.00  0.00    +0.000 C 
BRANCH  25  26
ATOM     26  C   UNL     1       2.999   6.478  18.829  0.00  0.00    +0.000 A 
ATOM     27  C   UNL     1       3.072   7.351  17.738  0.00  0.00    +0.000 A 
ATOM     28  C   UNL     1       2.419   8.589  17.782  0.00  0.00    +0.000 A 
ATOM     29  C   UNL     1       1.702   8.967  18.916  0.00  0.00    +0.000 A 
ATOM     30  C   UNL     1       1.636   8.110  20.009  0.00  0.00    +0.000 A 
ATOM     31  C   UNL     1       2.274   6.872  19.962  0.00  0.00    +0.000 A 
ENDBRANCH  25  26
ENDBRANCH  24  25
ENDBRANCH  11  24
TORSDOF 7
ENDMDL
MODEL 9
REMARK VINA RESULT:      -8.1      1.299      2.067
REMARK  Name = 
REMARK  7 active torsions:
REMARK  status: ('A' for Active; 'I' for Inactive)
REMARK    1  A    between atoms: C_2  and  C_3
REMARK    2  A    between atoms: C_3  and  S_4
REMARK    3  A    between atoms: S_4  and  C_5
REMARK    4  A    between atoms: N_15  and  C_16
REMARK    5  A    between atoms: C_16  and  C_17
REMARK    6  A    between atoms: C_17  and  C_18
REMARK    7  A    between atoms: N_24  and  C_25
REMARK                            x       y       z     vdW  Elec       q    Type
REMARK                         _______ _______ _______ _____ _____    ______ ____
ROOT
ATOM      1  C   UNL     1       7.024   5.787  17.281  0.00  0.00    +0.000 A 
ATOM      2  N   UNL     1       7.609   5.765  16.125  0.00  0.00    +0.000 NA
ATOM      3  C   UNL     1       7.039   5.009  15.101  0.00  0.00    +0.000 A 
ATOM      4  C   UNL     1       7.585   5.103  13.817  0.00  0.00    +0.000 A 
ATOM      5  C   UNL     1       6.944   4.502  12.732  0.00  0.00    +0.000 A 
ATOM      6  C   UNL     1       5.783   3.756  12.936  0.00  0.00    +0.000 A 
ATOM      7  C   UNL     1       5.270   3.607  14.224  0.00  0.00    +0.000 A 
ATOM      8  C   UNL     1       5.896   4.250  15.296  0.00  0.00    +0.000 A 
ATOM      9  C   UNL     1       5.350   4.179  16.658  0.00  0.00    +0.000 A 
ATOM     10  O   UNL     1       4.476   3.345  16.888  0.00  0.00    +0.000 OA
ATOM     11  N   UNL     1       5.893   5.051  17.607  0.00  0.00    +0.000 N 
ENDROOT
BRANCH   1  12
ATOM     12  S   UNL     1       7.758   6.820  18.489  0.00  0.00    +0.000 S 
BRANCH  12  13
ATOM     13  C   UNL     1       7.754   8.426  17.626  0.00  0.00    +0.000 C 
BRANCH  13  15
ATOM     14  O   UNL     1       9.027   9.261  19.474  0.00  0.00    +0.000 OA
ATOM     15  C   UNL     1       8.624   9.465  18.331  0.00  0.00    +0.000 C 
ATOM     16  N   UNL     1       8.874  10.595  17.570  0.00  0.00    +0.000 N 
ATOM     17  H   UNL     1       8.306  10.692  16.733  0.00  0.00    +0.000 HD
BRANCH  16  18
ATOM     18  C   UNL     1       9.611  11.735  17.963  0.00  0.00    +0.000 A 
ATOM     19  C   UNL     1      10.991  11.854  17.820  0.00  0.00    +0.000 A 
ATOM     20  C   UNL     1      11.661  12.984  18.302  0.00  0.00    +0.000 A 
ATOM     21  C   UNL     1      10.956  14.013  18.923  0.00  0.00    +0.000 A 
ATOM     22  C   UNL     1       9.575  13.930  19.034  0.00  0.00    +0.000 A 
ATOM     23  C   UNL     1       8.908  12.802  18.542  0.00  0.00    +0.000 A 
ENDBRANCH  16  18
ENDBRANCH  13  15
ENDBRANCH  12  13
ENDBRANCH   1  12
BRANCH  11  24
ATOM     24  C   UNL     1       5.291   4.973  18.951  0.00  0.00    +0.000 C 
BRANCH  24  25
ATOM     25  C   UNL     1       3.758   4.948  19.051  0.00  0.00    +0.000 C 
BRANCH  25  26
ATOM     26  C   UNL     1       3.038   6.269  18.965  0.00  0.00    +0.000 A 
ATOM     27  C   UNL     1       2.268   6.760  20.026  0.00  0.00    +0.000 A 
ATOM     28  C   UNL     1       1.686   8.030  19.945  0.00  0.00    +0.000 A 
ATOM     29  C   UNL     1       1.857   8.812  18.803  0.00  0.00    +0.000 A 
ATOM     30  C   UNL     1       2.611   8.326  17.740  0.00  0.00    +0.000 A 
ATOM     31  C   UNL     1       3.203   7.069  17.825  0.00  0.00    +0.000 A 
ENDBRANCH  25  26
ENDBRANCH  24  25
ENDBRANCH  11  24
TORSDOF 7
ENDMDL
