MODEL 1
REMARK VINA RESULT:      -8.0      0.000      0.000
REMARK  Name = 
REMARK  9 active torsions:
REMARK  status: ('A' for Active; 'I' for Inactive)
REMARK    1  A    between atoms: N_1  and  C_2
REMARK    2  A    between atoms: C_3  and  C_4
REMARK    3  A    between atoms: C_4  and  C_6
REMARK    4  A    between atoms: C_6  and  S_7
REMARK    5  A    between atoms: S_7  and  C_8
REMARK    6  A    between atoms: C_11  and  C_12
REMARK    7  A    between atoms: C_12  and  O_13
REMARK    8  A    between atoms: O_13  and  C_14
REMARK    9  A    between atoms: N_27  and  C_28
REMARK                            x       y       z     vdW  Elec       q    Type
REMARK                         _______ _______ _______ _____ _____    ______ ____
ROOT
ATOM      1  C   UNL     1       4.691   6.417  17.331  0.00  0.00    +0.000 C 
ATOM      2  O   UNL     1       3.825   7.294  17.401  0.00  0.00    +0.000 OA
ENDROOT
BRANCH   1   4
ATOM      3  C   UNL     1       3.799   4.760  19.027  0.00  0.00    +0.000 A 
ATOM      4  C   UNL     1       4.371   5.003  17.811  0.00  0.00    +0.000 A 
ATOM      5  C   UNL     1       4.663   3.832  16.943  0.00  0.00    +0.000 A 
ATOM      6  O   UNL     1       5.336   3.913  15.920  0.00  0.00    +0.000 OA
ATOM      7  N   UNL     1       4.143   2.641  17.312  0.00  0.00    +0.000 N 
ATOM      8  C   UNL     1       3.656   2.354  18.547  0.00  0.00    +0.000 A 
ATOM      9  O   UNL     1       3.383   1.187  18.827  0.00  0.00    +0.000 OA
ATOM     10  N   UNL     1       3.517   3.435  19.412  0.00  0.00    +0.000 N 
ATOM     11  H   UNL     1       4.335   1.848  16.719  0.00  0.00    +0.000 HD
BRANCH   3  12
ATOM     12  N   UNL     1       3.489   5.789  19.910  0.00  0.00    +0.000 N 
ATOM     13  H   UNL     1       3.995   5.733  20.802  0.00  0.00    +0.000 HD
ATOM     14  H   UNL     1       3.555   6.710  19.487  0.00  0.00    +0.000 HD
ENDBRANCH   3  12
BRANCH  10  15
ATOM     15  C   UNL     1       2.973   3.143  20.732  0.00  0.00    +0.000 C 
ATOM     16  C   UNL     1       1.787   3.933  21.254  0.00  0.00    +0.000 C 
ATOM     17  C   UNL     1       1.651   2.469  21.000  0.00  0.00    +0.000 C 
ENDBRANCH  10  15
ENDBRANCH   1   4
BRANCH   1  18
ATOM     18  C   UNL     1       6.079   6.687  16.731  0.00  0.00    +0.000 C 
BRANCH  18  19
ATOM     19  S   UNL     1       7.442   6.453  17.919  0.00  0.00    +0.000 S 
BRANCH  19  20
ATOM     20  C   UNL     1       7.998   8.097  18.099  0.00  0.00    +0.000 A 
ATOM     21  N   UNL     1       7.674   9.095  17.303  0.00  0.00    +0.000 NA
ATOM     22  N   UNL     1       8.290  10.227  17.800  0.00  0.00    +0.000 NA
ATOM     23  C   UNL     1       8.961   9.846  18.867  0.00  0.00    +0.000 A 
ATOM     24  O   UNL     1       8.817   8.505  19.129  0.00  0.00    +0.000 OA
BRANCH  23  25
ATOM     25  C   UNL     1       9.723  10.677  19.841  0.00  0.00    +0.000 C 
BRANCH  25  26
ATOM     26  O   UNL     1      10.930  11.119  19.208  0.00  0.00    +0.000 OA
BRANCH  26  27
ATOM     27  C   UNL     1      10.908  12.395  18.705  0.00  0.00    +0.000 A 
ATOM     28  C   UNL     1      11.388  12.528  17.398  0.00  0.00    +0.000 A 
ATOM     29  C   UNL     1      11.420  13.780  16.774  0.00  0.00    +0.000 A 
ATOM     30  C   UNL     1      10.950  14.902  17.454  0.00  0.00    +0.000 A 
ATOM     31 CL   UNL     1      10.996  16.447  16.698  0.00  0.00    +0.000 Cl
ATOM     32  C   UNL     1      10.449  14.776  18.747  0.00  0.00    +0.000 A 
ATOM     33  C   UNL     1      10.423  13.523  19.371  0.00  0.00    +0.000 A 
ENDBRANCH  26  27
ENDBRANCH  25  26
ENDBRANCH  23  25
ENDBRANCH  19  20
ENDBRANCH  18  19
ENDBRANCH   1  18
TORSDOF 9
ENDMDL
MODEL 2
REMARK VINA RESULT:      -7.9      5.610      8.503
REMARK  Name = 
REMARK  9 active torsions:
REMARK  status: ('A' for Active; 'I' for Inactive)
REMARK    1  A    between atoms: N_1  and  C_2
REMARK    2  A    between atoms: C_3  and  C_4
REMARK    3  A    between atoms: C_4  and  C_6
REMARK    4  A    between atoms: C_6  and  S_7
REMARK    5  A    between atoms: S_7  and  C_8
REMARK    6  A    between atoms: C_11  and  C_12
REMARK    7  A    between atoms: C_12  and  O_13
REMARK    8  A    between atoms: O_13  and  C_14
REMARK    9  A    between atoms: N_27  and  C_28
REMARK                            x       y       z     vdW  Elec       q    Type
REMARK                         _______ _______ _______ _____ _____    ______ ____
ROOT
ATOM      1  C   UNL     1       1.994   4.327  18.301  0.00  0.00    +0.000 C 
ATOM      2  O   UNL     1       1.337   4.147  17.270  0.00  0.00    +0.000 OA
ENDROOT
BRANCH   1   4
ATOM      3  C   UNL     1       4.187   5.424  17.663  0.00  0.00    +0.000 A 
ATOM      4  C   UNL     1       3.518   4.373  18.222  0.00  0.00    +0.000 A 
ATOM      5  C   UNL     1       4.332   3.259  18.777  0.00  0.00    +0.000 A 
ATOM      6  O   UNL     1       3.845   2.191  19.133  0.00  0.00    +0.000 OA
ATOM      7  N   UNL     1       5.663   3.463  18.897  0.00  0.00    +0.000 N 
ATOM      8  C   UNL     1       6.358   4.449  18.272  0.00  0.00    +0.000 A 
ATOM      9  O   UNL     1       7.588   4.425  18.302  0.00  0.00    +0.000 OA
ATOM     10  N   UNL     1       5.594   5.416  17.627  0.00  0.00    +0.000 N 
ATOM     11  H   UNL     1       6.214   2.710  19.281  0.00  0.00    +0.000 HD
BRANCH   3  12
ATOM     12  N   UNL     1       3.515   6.512  17.116  0.00  0.00    +0.000 N 
ATOM     13  H   UNL     1       3.866   6.792  16.192  0.00  0.00    +0.000 HD
ATOM     14  H   UNL     1       2.505   6.403  17.126  0.00  0.00    +0.000 HD
ENDBRANCH   3  12
BRANCH  10  15
ATOM     15  C   UNL     1       6.329   6.492  16.973  0.00  0.00    +0.000 C 
ATOM     16  C   UNL     1       6.394   7.865  17.618  0.00  0.00    +0.000 C 
ATOM     17  C   UNL     1       7.642   7.064  17.447  0.00  0.00    +0.000 C 
ENDBRANCH  10  15
ENDBRANCH   1   4
BRANCH   1  18
ATOM     18  C   UNL     1       1.327   4.553  19.665  0.00  0.00    +0.000 C 
BRANCH  18  19
ATOM     19  S   UNL     1       2.353   5.515  20.825  0.00  0.00    +0.000 S 
BRANCH  19  20
ATOM     20  C   UNL     1       1.788   7.132  20.492  0.00  0.00    +0.000 A 
ATOM     21  N   UNL     1       1.311   7.965  21.394  0.00  0.00    +0.000 NA
ATOM     22  N   UNL     1       1.004   9.141  20.737  0.00  0.00    +0.000 NA
ATOM     23  C   UNL     1       1.306   8.948  19.470  0.00  0.00    +0.000 A 
ATOM     24  O   UNL     1       1.820   7.696  19.236  0.00  0.00    +0.000 OA
BRANCH  23  25
ATOM     25  C   UNL     1       1.268   9.918  18.340  0.00  0.00    +0.000 C 
BRANCH  25  26
ATOM     26  O   UNL     1       0.590  11.099  18.782  0.00  0.00    +0.000 OA
BRANCH  26  27
ATOM     27  C   UNL     1      -0.762  11.133  18.555  0.00  0.00    +0.000 A 
ATOM     28  C   UNL     1      -1.233  10.208  17.616  0.00  0.00    +0.000 A 
ATOM     29  C   UNL     1      -2.593  10.147  17.296  0.00  0.00    +0.000 A 
ATOM     30  C   UNL     1      -3.491  10.999  17.932  0.00  0.00    +0.000 A 
ATOM     31 CL   UNL     1      -5.164  10.938  17.536  0.00  0.00    +0.000 Cl
ATOM     32  C   UNL     1      -3.038  11.907  18.886  0.00  0.00    +0.000 A 
ATOM     33  C   UNL     1      -1.675  11.971  19.201  0.00  0.00    +0.000 A 
ENDBRANCH  26  27
ENDBRANCH  25  26
ENDBRANCH  23  25
ENDBRANCH  19  20
ENDBRANCH  18  19
ENDBRANCH   1  18
TORSDOF 9
ENDMDL
MODEL 3
REMARK VINA RESULT:      -7.9      5.693      8.660
REMARK  Name = 
REMARK  9 active torsions:
REMARK  status: ('A' for Active; 'I' for Inactive)
REMARK    1  A    between atoms: N_1  and  C_2
REMARK    2  A    between atoms: C_3  and  C_4
REMARK    3  A    between atoms: C_4  and  C_6
REMARK    4  A    between atoms: C_6  and  S_7
REMARK    5  A    between atoms: S_7  and  C_8
REMARK    6  A    between atoms: C_11  and  C_12
REMARK    7  A    between atoms: C_12  and  O_13
REMARK    8  A    between atoms: O_13  and  C_14
REMARK    9  A    between atoms: N_27  and  C_28
REMARK                            x       y       z     vdW  Elec       q    Type
REMARK                         _______ _______ _______ _____ _____    ______ ____
ROOT
ATOM      1  C   UNL     1       4.633   3.693  19.537  0.00  0.00    +0.000 C 
ATOM      2  O   UNL     1       4.831   2.482  19.677  0.00  0.00    +0.000 OA
ENDROOT
BRANCH   1   4
ATOM      3  C   UNL     1       5.301   4.479  17.223  0.00  0.00    +0.000 A 
ATOM      4  C   UNL     1       5.507   4.491  18.572  0.00  0.00    +0.000 A 
ATOM      5  C   UNL     1       6.618   5.333  19.089  0.00  0.00    +0.000 A 
ATOM      6  O   UNL     1       7.010   5.279  20.251  0.00  0.00    +0.000 OA
ATOM      7  N   UNL     1       7.197   6.196  18.224  0.00  0.00    +0.000 N 
ATOM      8  C   UNL     1       7.077   6.139  16.873  0.00  0.00    +0.000 A 
ATOM      9  O   UNL     1       7.797   6.856  16.179  0.00  0.00    +0.000 OA
ATOM     10  N   UNL     1       6.134   5.242  16.383  0.00  0.00    +0.000 N 
ATOM     11  H   UNL     1       7.946   6.772  18.577  0.00  0.00    +0.000 HD
BRANCH   3  12
ATOM     12  N   UNL     1       4.288   3.722  16.644  0.00  0.00    +0.000 N 
ATOM     13  H   UNL     1       4.593   3.182  15.825  0.00  0.00    +0.000 HD
ATOM     14  H   UNL     1       3.783   3.150  17.315  0.00  0.00    +0.000 HD
ENDBRANCH   3  12
BRANCH  10  15
ATOM     15  C   UNL     1       5.980   5.191  14.935  0.00  0.00    +0.000 C 
ATOM     16  C   UNL     1       7.171   4.849  14.058  0.00  0.00    +0.000 C 
ATOM     17  C   UNL     1       5.993   3.933  14.101  0.00  0.00    +0.000 C 
ENDBRANCH  10  15
ENDBRANCH   1   4
BRANCH   1  18
ATOM     18  C   UNL     1       3.498   4.425  20.269  0.00  0.00    +0.000 C 
BRANCH  18  19
ATOM     19  S   UNL     1       2.143   4.950  19.169  0.00  0.00    +0.000 S 
BRANCH  19  20
ATOM     20  C   UNL     1       1.903   6.591  19.713  0.00  0.00    +0.000 A 
ATOM     21  N   UNL     1       2.116   7.667  18.983  0.00  0.00    +0.000 NA
ATOM     22  N   UNL     1       1.783   8.757  19.762  0.00  0.00    +0.000 NA
ATOM     23  C   UNL     1       1.394   8.278  20.926  0.00  0.00    +0.000 A 
ATOM     24  O   UNL     1       1.433   6.906  20.968  0.00  0.00    +0.000 OA
BRANCH  23  25
ATOM     25  C   UNL     1       0.834   9.006  22.099  0.00  0.00    +0.000 C 
BRANCH  25  26
ATOM     26  O   UNL     1       0.936  10.412  21.848  0.00  0.00    +0.000 OA
BRANCH  26  27
ATOM     27  C   UNL     1      -0.251  11.093  21.767  0.00  0.00    +0.000 A 
ATOM     28  C   UNL     1      -0.961  11.199  22.968  0.00  0.00    +0.000 A 
ATOM     29  C   UNL     1      -2.189  11.867  23.014  0.00  0.00    +0.000 A 
ATOM     30  C   UNL     1      -2.701  12.450  21.858  0.00  0.00    +0.000 A 
ATOM     31 CL   UNL     1      -4.216  13.264  21.903  0.00  0.00    +0.000 Cl
ATOM     32  C   UNL     1      -1.992  12.371  20.662  0.00  0.00    +0.000 A 
ATOM     33  C   UNL     1      -0.765  11.697  20.617  0.00  0.00    +0.000 A 
ENDBRANCH  26  27
ENDBRANCH  25  26
ENDBRANCH  23  25
ENDBRANCH  19  20
ENDBRANCH  18  19
ENDBRANCH   1  18
TORSDOF 9
ENDMDL
MODEL 4
REMARK VINA RESULT:      -7.8      5.540      8.251
REMARK  Name = 
REMARK  9 active torsions:
REMARK  status: ('A' for Active; 'I' for Inactive)
REMARK    1  A    between atoms: N_1  and  C_2
REMARK    2  A    between atoms: C_3  and  C_4
REMARK    3  A    between atoms: C_4  and  C_6
REMARK    4  A    between atoms: C_6  and  S_7
REMARK    5  A    between atoms: S_7  and  C_8
REMARK    6  A    between atoms: C_11  and  C_12
REMARK    7  A    between atoms: C_12  and  O_13
REMARK    8  A    between atoms: O_13  and  C_14
REMARK    9  A    between atoms: N_27  and  C_28
REMARK                            x       y       z     vdW  Elec       q    Type
REMARK                         _______ _______ _______ _____ _____    ______ ____
ROOT
ATOM      1  C   UNL     1       4.721   3.588  19.554  0.00  0.00    +0.000 C 
ATOM      2  O   UNL     1       4.950   2.378  19.646  0.00  0.00    +0.000 OA
ENDROOT
BRANCH   1   4
ATOM      3  C   UNL     1       5.322   4.513  17.273  0.00  0.00    +0.000 A 
ATOM      4  C   UNL     1       5.567   4.444  18.615  0.00  0.00    +0.000 A 
ATOM      5  C   UNL     1       6.694   5.254  19.149  0.00  0.00    +0.000 A 
ATOM      6  O   UNL     1       7.119   5.131  20.294  0.00  0.00    +0.000 OA
ATOM      7  N   UNL     1       7.248   6.168  18.322  0.00  0.00    +0.000 N 
ATOM      8  C   UNL     1       7.089   6.194  16.974  0.00  0.00    +0.000 A 
ATOM      9  O   UNL     1       7.789   6.952  16.304  0.00  0.00    +0.000 OA
ATOM     10  N   UNL     1       6.131   5.327  16.458  0.00  0.00    +0.000 N 
ATOM     11  H   UNL     1       8.007   6.723  18.688  0.00  0.00    +0.000 HD
BRANCH   3  12
ATOM     12  N   UNL     1       4.293   3.792  16.679  0.00  0.00    +0.000 N 
ATOM     13  H   UNL     1       4.620   3.031  16.072  0.00  0.00    +0.000 HD
ATOM     14  H   UNL     1       3.590   3.480  17.342  0.00  0.00    +0.000 HD
ENDBRANCH   3  12
BRANCH  10  15
ATOM     15  C   UNL     1       5.936   5.363  15.014  0.00  0.00    +0.000 C 
ATOM     16  C   UNL     1       7.024   4.849  14.090  0.00  0.00    +0.000 C 
ATOM     17  C   UNL     1       5.701   4.159  14.136  0.00  0.00    +0.000 C 
ENDBRANCH  10  15
ENDBRANCH   1   4
BRANCH   1  18
ATOM     18  C   UNL     1       3.575   4.263  20.323  0.00  0.00    +0.000 C 
BRANCH  18  19
ATOM     19  S   UNL     1       2.063   4.482  19.328  0.00  0.00    +0.000 S 
BRANCH  19  20
ATOM     20  C   UNL     1       2.174   6.181  18.941  0.00  0.00    +0.000 A 
ATOM     21  N   UNL     1       2.710   6.670  17.841  0.00  0.00    +0.000 NA
ATOM     22  N   UNL     1       2.576   8.043  17.903  0.00  0.00    +0.000 NA
ATOM     23  C   UNL     1       1.972   8.308  19.043  0.00  0.00    +0.000 A 
ATOM     24  O   UNL     1       1.674   7.172  19.756  0.00  0.00    +0.000 OA
BRANCH  23  25
ATOM     25  C   UNL     1       1.493   9.617  19.568  0.00  0.00    +0.000 C 
BRANCH  25  26
ATOM     26  O   UNL     1       1.117   9.443  20.939  0.00  0.00    +0.000 OA
BRANCH  26  27
ATOM     27  C   UNL     1       0.316  10.422  21.468  0.00  0.00    +0.000 A 
ATOM     28  C   UNL     1      -0.448  10.034  22.574  0.00  0.00    +0.000 A 
ATOM     29  C   UNL     1      -1.308  10.942  23.200  0.00  0.00    +0.000 A 
ATOM     30  C   UNL     1      -1.390  12.251  22.731  0.00  0.00    +0.000 A 
ATOM     31 CL   UNL     1      -2.454  13.372  23.488  0.00  0.00    +0.000 Cl
ATOM     32  C   UNL     1      -0.616  12.654  21.645  0.00  0.00    +0.000 A 
ATOM     33  C   UNL     1       0.240  11.742  21.016  0.00  0.00    +0.000 A 
ENDBRANCH  26  27
ENDBRANCH  25  26
ENDBRANCH  23  25
ENDBRANCH  19  20
ENDBRANCH  18  19
ENDBRANCH   1  18
TORSDOF 9
ENDMDL
MODEL 5
REMARK VINA RESULT:      -7.8      6.901      9.881
REMARK  Name = 
REMARK  9 active torsions:
REMARK  status: ('A' for Active; 'I' for Inactive)
REMARK    1  A    between atoms: N_1  and  C_2
REMARK    2  A    between atoms: C_3  and  C_4
REMARK    3  A    between atoms: C_4  and  C_6
REMARK    4  A    between atoms: C_6  and  S_7
REMARK    5  A    between atoms: S_7  and  C_8
REMARK    6  A    between atoms: C_11  and  C_12
REMARK    7  A    between atoms: C_12  and  O_13
REMARK    8  A    between atoms: O_13  and  C_14
REMARK    9  A    between atoms: N_27  and  C_28
REMARK                            x       y       z     vdW  Elec       q    Type
REMARK                         _______ _______ _______ _____ _____    ______ ____
ROOT
ATOM      1  C   UNL     1      -0.410  11.232  20.534  0.00  0.00    +0.000 C 
ATOM      2  O   UNL     1       0.568  11.987  20.542  0.00  0.00    +0.000 OA
ENDROOT
BRANCH   1   4
ATOM      3  C   UNL     1      -1.496  11.055  18.251  0.00  0.00    +0.000 A 
ATOM      4  C   UNL     1      -1.547  11.486  19.546  0.00  0.00    +0.000 A 
ATOM      5  C   UNL     1      -2.771  12.208  19.982  0.00  0.00    +0.000 A 
ATOM      6  O   UNL     1      -2.852  12.795  21.056  0.00  0.00    +0.000 OA
ATOM      7  N   UNL     1      -3.833  12.191  19.145  0.00  0.00    +0.000 N 
ATOM      8  C   UNL     1      -3.780  11.855  17.830  0.00  0.00    +0.000 A 
ATOM      9  O   UNL     1      -4.766  12.057  17.122  0.00  0.00    +0.000 OA
ATOM     10  N   UNL     1      -2.579  11.310  17.389  0.00  0.00    +0.000 N 
ATOM     11  H   UNL     1      -4.666  12.675  19.444  0.00  0.00    +0.000 HD
BRANCH   3  12
ATOM     12  N   UNL     1      -0.393  10.373  17.750  0.00  0.00    +0.000 N 
ATOM     13  H   UNL     1      -0.637   9.522  17.228  0.00  0.00    +0.000 HD
ATOM     14  H   UNL     1       0.246  10.971  17.234  0.00  0.00    +0.000 HD
ENDBRANCH   3  12
BRANCH  10  15
ATOM     15  C   UNL     1      -2.520  10.924  15.985  0.00  0.00    +0.000 C 
ATOM     16  C   UNL     1      -2.869   9.505  15.574  0.00  0.00    +0.000 C 
ATOM     17  C   UNL     1      -3.714  10.643  15.107  0.00  0.00    +0.000 C 
ENDBRANCH  10  15
ENDBRANCH   1   4
BRANCH   1  18
ATOM     18  C   UNL     1      -0.505  10.009  21.458  0.00  0.00    +0.000 C 
BRANCH  18  19
ATOM     19  S   UNL     1       1.119   9.344  21.952  0.00  0.00    +0.000 S 
BRANCH  19  20
ATOM     20  C   UNL     1       1.558   8.462  20.511  0.00  0.00    +0.000 A 
ATOM     21  N   UNL     1       1.622   8.978  19.301  0.00  0.00    +0.000 NA
ATOM     22  N   UNL     1       2.031   7.969  18.452  0.00  0.00    +0.000 NA
ATOM     23  C   UNL     1       2.185   6.894  19.198  0.00  0.00    +0.000 A 
ATOM     24  O   UNL     1       1.912   7.131  20.523  0.00  0.00    +0.000 OA
BRANCH  23  25
ATOM     25  C   UNL     1       2.705   5.553  18.812  0.00  0.00    +0.000 C 
BRANCH  25  26
ATOM     26  O   UNL     1       4.132   5.634  18.716  0.00  0.00    +0.000 OA
BRANCH  26  27
ATOM     27  C   UNL     1       4.663   5.365  17.480  0.00  0.00    +0.000 A 
ATOM     28  C   UNL     1       4.937   4.016  17.230  0.00  0.00    +0.000 A 
ATOM     29  C   UNL     1       5.484   3.615  16.007  0.00  0.00    +0.000 A 
ATOM     30  C   UNL     1       5.740   4.565  15.020  0.00  0.00    +0.000 A 
ATOM     31 CL   UNL     1       6.423   4.082  13.517  0.00  0.00    +0.000 Cl
ATOM     32  C   UNL     1       5.449   5.907  15.250  0.00  0.00    +0.000 A 
ATOM     33  C   UNL     1       4.907   6.307  16.477  0.00  0.00    +0.000 A 
ENDBRANCH  26  27
ENDBRANCH  25  26
ENDBRANCH  23  25
ENDBRANCH  19  20
ENDBRANCH  18  19
ENDBRANCH   1  18
TORSDOF 9
ENDMDL
MODEL 6
REMARK VINA RESULT:      -7.6      5.012      7.552
REMARK  Name = 
REMARK  9 active torsions:
REMARK  status: ('A' for Active; 'I' for Inactive)
REMARK    1  A    between atoms: N_1  and  C_2
REMARK    2  A    between atoms: C_3  and  C_4
REMARK    3  A    between atoms: C_4  and  C_6
REMARK    4  A    between atoms: C_6  and  S_7
REMARK    5  A    between atoms: S_7  and  C_8
REMARK    6  A    between atoms: C_11  and  C_12
REMARK    7  A    between atoms: C_12  and  O_13
REMARK    8  A    between atoms: O_13  and  C_14
REMARK    9  A    between atoms: N_27  and  C_28
REMARK                            x       y       z     vdW  Elec       q    Type
REMARK                         _______ _______ _______ _____ _____    ______ ____
ROOT
ATOM      1  C   UNL     1       4.258   3.013  19.527  0.00  0.00    +0.000 C 
ATOM      2  O   UNL     1       4.500   1.803  19.560  0.00  0.00    +0.000 OA
ENDROOT
BRANCH   1   4
ATOM      3  C   UNL     1       5.841   4.614  18.364  0.00  0.00    +0.000 A 
ATOM      4  C   UNL     1       4.717   3.839  18.327  0.00  0.00    +0.000 A 
ATOM      5  C   UNL     1       3.946   3.808  17.056  0.00  0.00    +0.000 A 
ATOM      6  O   UNL     1       2.834   3.299  16.964  0.00  0.00    +0.000 OA
ATOM      7  N   UNL     1       4.525   4.359  15.966  0.00  0.00    +0.000 N 
ATOM      8  C   UNL     1       5.585   5.207  15.994  0.00  0.00    +0.000 A 
ATOM      9  O   UNL     1       5.908   5.795  14.962  0.00  0.00    +0.000 OA
ATOM     10  N   UNL     1       6.220   5.347  17.223  0.00  0.00    +0.000 N 
ATOM     11  H   UNL     1       4.005   4.331  15.102  0.00  0.00    +0.000 HD
BRANCH   3  12
ATOM     12  N   UNL     1       6.627   4.710  19.507  0.00  0.00    +0.000 N 
ATOM     13  H   UNL     1       7.517   5.199  19.356  0.00  0.00    +0.000 HD
ATOM     14  H   UNL     1       6.121   5.071  20.310  0.00  0.00    +0.000 HD
ENDBRANCH   3  12
BRANCH  10  15
ATOM     15  C   UNL     1       7.374   6.236  17.259  0.00  0.00    +0.000 C 
ATOM     16  C   UNL     1       7.176   7.724  17.482  0.00  0.00    +0.000 C 
ATOM     17  C   UNL     1       7.914   6.913  18.494  0.00  0.00    +0.000 C 
ENDBRANCH  10  15
ENDBRANCH   1   4
BRANCH   1  18
ATOM     18  C   UNL     1       3.464   3.718  20.637  0.00  0.00    +0.000 C 
BRANCH  18  19
ATOM     19  S   UNL     1       1.741   4.092  20.173  0.00  0.00    +0.000 S 
BRANCH  19  20
ATOM     20  C   UNL     1       1.836   5.820  19.946  0.00  0.00    +0.000 A 
ATOM     21  N   UNL     1       1.570   6.718  20.873  0.00  0.00    +0.000 NA
ATOM     22  N   UNL     1       1.790   7.959  20.309  0.00  0.00    +0.000 NA
ATOM     23  C   UNL     1       2.170   7.741  19.067  0.00  0.00    +0.000 A 
ATOM     24  O   UNL     1       2.232   6.402  18.764  0.00  0.00    +0.000 OA
BRANCH  23  25
ATOM     25  C   UNL     1       2.628   8.720  18.042  0.00  0.00    +0.000 C 
BRANCH  25  26
ATOM     26  O   UNL     1       1.474   9.282  17.407  0.00  0.00    +0.000 OA
BRANCH  26  27
ATOM     27  C   UNL     1       0.808  10.244  18.122  0.00  0.00    +0.000 A 
ATOM     28  C   UNL     1       1.591  11.326  18.538  0.00  0.00    +0.000 A 
ATOM     29  C   UNL     1       1.028  12.371  19.279  0.00  0.00    +0.000 A 
ATOM     30  C   UNL     1      -0.330  12.344  19.588  0.00  0.00    +0.000 A 
ATOM     31 CL   UNL     1      -1.029  13.619  20.507  0.00  0.00    +0.000 Cl
ATOM     32  C   UNL     1      -1.124  11.284  19.158  0.00  0.00    +0.000 A 
ATOM     33  C   UNL     1      -0.557  10.236  18.422  0.00  0.00    +0.000 A 
ENDBRANCH  26  27
ENDBRANCH  25  26
ENDBRANCH  23  25
ENDBRANCH  19  20
ENDBRANCH  18  19
ENDBRANCH   1  18
TORSDOF 9
ENDMDL
MODEL 7
REMARK VINA RESULT:      -7.6      5.988      8.805
REMARK  Name = 
REMARK  9 active torsions:
REMARK  status: ('A' for Active; 'I' for Inactive)
REMARK    1  A    between atoms: N_1  and  C_2
REMARK    2  A    between atoms: C_3  and  C_4
REMARK    3  A    between atoms: C_4  and  C_6
REMARK    4  A    between atoms: C_6  and  S_7
REMARK    5  A    between atoms: S_7  and  C_8
REMARK    6  A    between atoms: C_11  and  C_12
REMARK    7  A    between atoms: C_12  and  O_13
REMARK    8  A    between atoms: O_13  and  C_14
REMARK    9  A    between atoms: N_27  and  C_28
REMARK                            x       y       z     vdW  Elec       q    Type
REMARK                         _______ _______ _______ _____ _____    ______ ____
ROOT
ATOM      1  C   UNL     1       2.876   4.462  17.666  0.00  0.00    +0.000 C 
ATOM      2  O   UNL     1       2.676   3.584  16.821  0.00  0.00    +0.000 OA
ENDROOT
BRANCH   1   4
ATOM      3  C   UNL     1       5.104   5.664  17.552  0.00  0.00    +0.000 A 
ATOM      4  C   UNL     1       4.300   4.734  18.146  0.00  0.00    +0.000 A 
ATOM      5  C   UNL     1       4.856   3.988  19.306  0.00  0.00    +0.000 A 
ATOM      6  O   UNL     1       4.300   3.011  19.798  0.00  0.00    +0.000 OA
ATOM      7  N   UNL     1       6.018   4.435  19.832  0.00  0.00    +0.000 N 
ATOM      8  C   UNL     1       6.874   5.288  19.213  0.00  0.00    +0.000 A 
ATOM      9  O   UNL     1       7.987   5.477  19.702  0.00  0.00    +0.000 OA
ATOM     10  N   UNL     1       6.405   5.877  18.044  0.00  0.00    +0.000 N 
ATOM     11  H   UNL     1       6.390   3.933  20.624  0.00  0.00    +0.000 HD
BRANCH   3  12
ATOM     12  N   UNL     1       4.676   6.411  16.460  0.00  0.00    +0.000 N 
ATOM     13  H   UNL     1       4.726   5.904  15.568  0.00  0.00    +0.000 HD
ATOM     14  H   UNL     1       3.769   6.845  16.604  0.00  0.00    +0.000 HD
ENDBRANCH   3  12
BRANCH  10  15
ATOM     15  C   UNL     1       7.307   6.813  17.384  0.00  0.00    +0.000 C 
ATOM     16  C   UNL     1       6.994   8.299  17.390  0.00  0.00    +0.000 C 
ATOM     17  C   UNL     1       8.213   7.793  18.087  0.00  0.00    +0.000 C 
ENDBRANCH  10  15
ENDBRANCH   1   4
BRANCH   1  18
ATOM     18  C   UNL     1       1.740   5.332  18.225  0.00  0.00    +0.000 C 
BRANCH  18  19
ATOM     19  S   UNL     1       2.252   6.387  19.622  0.00  0.00    +0.000 S 
BRANCH  19  20
ATOM     20  C   UNL     1       2.093   7.970  18.905  0.00  0.00    +0.000 A 
ATOM     21  N   UNL     1       2.626   8.335  17.756  0.00  0.00    +0.000 NA
ATOM     22  N   UNL     1       2.246   9.644  17.532  0.00  0.00    +0.000 NA
ATOM     23  C   UNL     1       1.508   9.999  18.564  0.00  0.00    +0.000 A 
ATOM     24  O   UNL     1       1.357   8.984  19.477  0.00  0.00    +0.000 OA
BRANCH  23  25
ATOM     25  C   UNL     1       0.762  11.268  18.789  0.00  0.00    +0.000 C 
BRANCH  25  26
ATOM     26  O   UNL     1      -0.308  11.006  19.705  0.00  0.00    +0.000 OA
BRANCH  26  27
ATOM     27  C   UNL     1      -1.574  11.096  19.185  0.00  0.00    +0.000 A 
ATOM     28  C   UNL     1      -2.373  12.105  19.734  0.00  0.00    +0.000 A 
ATOM     29  C   UNL     1      -3.686  12.295  19.290  0.00  0.00    +0.000 A 
ATOM     30  C   UNL     1      -4.196  11.486  18.277  0.00  0.00    +0.000 A 
ATOM     31 CL   UNL     1      -5.813  11.706  17.733  0.00  0.00    +0.000 Cl
ATOM     32  C   UNL     1      -3.402  10.495  17.708  0.00  0.00    +0.000 A 
ATOM     33  C   UNL     1      -2.090  10.302  18.158  0.00  0.00    +0.000 A 
ENDBRANCH  26  27
ENDBRANCH  25  26
ENDBRANCH  23  25
ENDBRANCH  19  20
ENDBRANCH  18  19
ENDBRANCH   1  18
TORSDOF 9
ENDMDL
MODEL 8
REMARK VINA RESULT:      -7.6      1.874      3.148
REMARK  Name = 
REMARK  9 active torsions:
REMARK  status: ('A' for Active; 'I' for Inactive)
REMARK    1  A    between atoms: N_1  and  C_2
REMARK    2  A    between atoms: C_3  and  C_4
REMARK    3  A    between atoms: C_4  and  C_6
REMARK    4  A    between atoms: C_6  and  S_7
REMARK    5  A    between atoms: S_7  and  C_8
REMARK    6  A    between atoms: C_11  and  C_12
REMARK    7  A    between atoms: C_12  and  O_13
REMARK    8  A    between atoms: O_13  and  C_14
REMARK    9  A    between atoms: N_27  and  C_28
REMARK                            x       y       z     vdW  Elec       q    Type
REMARK                         _______ _______ _______ _____ _____    ______ ____
ROOT
ATOM      1  C   UNL     1       4.612   4.121  16.695  0.00  0.00    +0.000 C 
ATOM      2  O   UNL     1       4.991   2.951  16.812  0.00  0.00    +0.000 OA
ENDROOT
BRANCH   1   4
ATOM      3  C   UNL     1       2.891   3.965  18.548  0.00  0.00    +0.000 A 
ATOM      4  C   UNL     1       3.710   4.729  17.767  0.00  0.00    +0.000 A 
ATOM      5  C   UNL     1       3.711   6.197  18.003  0.00  0.00    +0.000 A 
ATOM      6  O   UNL     1       4.261   6.993  17.249  0.00  0.00    +0.000 OA
ATOM      7  N   UNL     1       3.083   6.647  19.113  0.00  0.00    +0.000 N 
ATOM      8  C   UNL     1       2.194   5.930  19.847  0.00  0.00    +0.000 A 
ATOM      9  O   UNL     1       1.543   6.501  20.722  0.00  0.00    +0.000 OA
ATOM     10  N   UNL     1       2.088   4.581  19.527  0.00  0.00    +0.000 N 
ATOM     11  H   UNL     1       3.091   7.642  19.277  0.00  0.00    +0.000 HD
BRANCH   3  12
ATOM     12  N   UNL     1       2.819   2.584  18.401  0.00  0.00    +0.000 N 
ATOM     13  H   UNL     1       1.862   2.232  18.277  0.00  0.00    +0.000 HD
ATOM     14  H   UNL     1       3.456   2.223  17.697  0.00  0.00    +0.000 HD
ENDBRANCH   3  12
BRANCH  10  15
ATOM     15  C   UNL     1       1.154   3.797  20.324  0.00  0.00    +0.000 C 
ATOM     16  C   UNL     1       1.419   2.322  20.569  0.00  0.00    +0.000 C 
ATOM     17  C   UNL     1       1.418   3.277  21.716  0.00  0.00    +0.000 C 
ENDBRANCH  10  15
ENDBRANCH   1   4
BRANCH   1  18
ATOM     18  C   UNL     1       5.056   5.010  15.524  0.00  0.00    +0.000 C 
BRANCH  18  19
ATOM     19  S   UNL     1       6.864   5.056  15.291  0.00  0.00    +0.000 S 
BRANCH  19  20
ATOM     20  C   UNL     1       7.334   6.094  16.613  0.00  0.00    +0.000 A 
ATOM     21  N   UNL     1       7.693   5.676  17.810  0.00  0.00    +0.000 NA
ATOM     22  N   UNL     1       8.013   6.796  18.551  0.00  0.00    +0.000 NA
ATOM     23  C   UNL     1       7.822   7.832  17.760  0.00  0.00    +0.000 A 
ATOM     24  O   UNL     1       7.398   7.465  16.506  0.00  0.00    +0.000 OA
BRANCH  23  25
ATOM     25  C   UNL     1       8.109   9.272  18.016  0.00  0.00    +0.000 C 
BRANCH  25  26
ATOM     26  O   UNL     1       9.074   9.359  19.071  0.00  0.00    +0.000 OA
BRANCH  26  27
ATOM     27  C   UNL     1       9.693  10.574  19.215  0.00  0.00    +0.000 A 
ATOM     28  C   UNL     1       9.705  11.085  20.517  0.00  0.00    +0.000 A 
ATOM     29  C   UNL     1      10.304  12.319  20.793  0.00  0.00    +0.000 A 
ATOM     30  C   UNL     1      10.911  13.037  19.765  0.00  0.00    +0.000 A 
ATOM     31 CL   UNL     1      11.640  14.560  20.093  0.00  0.00    +0.000 Cl
ATOM     32  C   UNL     1      10.925  12.526  18.469  0.00  0.00    +0.000 A 
ATOM     33  C   UNL     1      10.320  11.293  18.195  0.00  0.00    +0.000 A 
ENDBRANCH  26  27
ENDBRANCH  25  26
ENDBRANCH  23  25
ENDBRANCH  19  20
ENDBRANCH  18  19
ENDBRANCH   1  18
TORSDOF 9
ENDMDL
MODEL 9
REMARK VINA RESULT:      -7.6      4.964      7.264
REMARK  Name = 
REMARK  9 active torsions:
REMARK  status: ('A' for Active; 'I' for Inactive)
REMARK    1  A    between atoms: N_1  and  C_2
REMARK    2  A    between atoms: C_3  and  C_4
REMARK    3  A    between atoms: C_4  and  C_6
REMARK    4  A    between atoms: C_6  and  S_7
REMARK    5  A    between atoms: S_7  and  C_8
REMARK    6  A    between atoms: C_11  and  C_12
REMARK    7  A    between atoms: C_12  and  O_13
REMARK    8  A    between atoms: O_13  and  C_14
REMARK    9  A    between atoms: N_27  and  C_28
REMARK                            x       y       z     vdW  Elec       q    Type
REMARK                         _______ _______ _______ _____ _____    ______ ____
ROOT
ATOM      1  C   UNL     1       5.238   4.573  18.817  0.00  0.00    +0.000 C 
ATOM      2  O   UNL     1       5.296   3.479  19.386  0.00  0.00    +0.000 OA
ENDROOT
BRANCH   1   4
ATOM      3  C   UNL     1       5.689   4.031  16.383  0.00  0.00    +0.000 A 
ATOM      4  C   UNL     1       5.975   4.772  17.494  0.00  0.00    +0.000 A 
ATOM      5  C   UNL     1       7.032   5.810  17.373  0.00  0.00    +0.000 A 
ATOM      6  O   UNL     1       7.497   6.404  18.341  0.00  0.00    +0.000 OA
ATOM      7  N   UNL     1       7.475   6.104  16.130  0.00  0.00    +0.000 N 
ATOM      8  C   UNL     1       7.279   5.329  15.033  0.00  0.00    +0.000 A 
ATOM      9  O   UNL     1       7.885   5.596  13.996  0.00  0.00    +0.000 OA
ATOM     10  N   UNL     1       6.395   4.266  15.188  0.00  0.00    +0.000 N 
ATOM     11  H   UNL     1       8.187   6.814  16.048  0.00  0.00    +0.000 HD
BRANCH   3  12
ATOM     12  N   UNL     1       4.718   3.036  16.397  0.00  0.00    +0.000 N 
ATOM     13  H   UNL     1       3.769   3.387  16.574  0.00  0.00    +0.000 HD
ATOM     14  H   UNL     1       4.758   2.428  15.584  0.00  0.00    +0.000 HD
ENDBRANCH   3  12
BRANCH  10  15
ATOM     15  C   UNL     1       6.159   3.442  14.010  0.00  0.00    +0.000 C 
ATOM     16  C   UNL     1       5.131   3.871  12.979  0.00  0.00    +0.000 C 
ATOM     17  C   UNL     1       6.573   3.794  12.602  0.00  0.00    +0.000 C 
ENDBRANCH  10  15
ENDBRANCH   1   4
BRANCH   1  18
ATOM     18  C   UNL     1       4.408   5.740  19.373  0.00  0.00    +0.000 C 
BRANCH  18  19
ATOM     19  S   UNL     1       3.178   6.384  18.192  0.00  0.00    +0.000 S 
BRANCH  19  20
ATOM     20  C   UNL     1       2.245   7.428  19.235  0.00  0.00    +0.000 A 
ATOM     21  N   UNL     1       1.898   7.141  20.473  0.00  0.00    +0.000 NA
ATOM     22  N   UNL     1       1.199   8.229  20.959  0.00  0.00    +0.000 NA
ATOM     23  C   UNL     1       1.156   9.111  19.982  0.00  0.00    +0.000 A 
ATOM     24  O   UNL     1       1.810   8.677  18.854  0.00  0.00    +0.000 OA
BRANCH  23  25
ATOM     25  C   UNL     1       0.613  10.498  19.994  0.00  0.00    +0.000 C 
BRANCH  25  26
ATOM     26  O   UNL     1       0.792  11.064  18.691  0.00  0.00    +0.000 OA
BRANCH  26  27
ATOM     27  C   UNL     1       1.187  12.376  18.659  0.00  0.00    +0.000 A 
ATOM     28  C   UNL     1       0.173  13.310  18.896  0.00  0.00    +0.000 A 
ATOM     29  C   UNL     1       0.450  14.681  18.886  0.00  0.00    +0.000 A 
ATOM     30  C   UNL     1       1.752  15.121  18.658  0.00  0.00    +0.000 A 
ATOM     31 CL   UNL     1       2.099  16.806  18.634  0.00  0.00    +0.000 Cl
ATOM     32  C   UNL     1       2.774  14.199  18.445  0.00  0.00    +0.000 A 
ATOM     33  C   UNL     1       2.494  12.827  18.450  0.00  0.00    +0.000 A 
ENDBRANCH  26  27
ENDBRANCH  25  26
ENDBRANCH  23  25
ENDBRANCH  19  20
ENDBRANCH  18  19
ENDBRANCH   1  18
TORSDOF 9
ENDMDL
