MODEL 1
REMARK VINA RESULT:      -7.7      0.000      0.000
REMARK  Name = 
REMARK  5 active torsions:
REMARK  status: ('A' for Active; 'I' for Inactive)
REMARK    1  A    between atoms: C_2  and  C_11
REMARK    2  A    between atoms: N_3  and  C_4
REMARK    3  A    between atoms: C_7  and  O_8
REMARK    4  A    between atoms: C_18  and  C_19
REMARK    5  A    between atoms: C_25  and  C_26
REMARK                            x       y       z     vdW  Elec       q    Type
REMARK                         _______ _______ _______ _____ _____    ______ ____
ROOT
ATOM      1  C   UNL     1       1.579   7.734  20.262  0.00  0.00    +0.000 A 
ATOM      2  N   UNL     1       1.293   8.363  21.426  0.00  0.00    +0.000 NA
ATOM      3  N   UNL     1       1.031   9.629  21.050  0.00  0.00    +0.000 N 
ATOM      4  C   UNL     1       1.309   9.888  19.733  0.00  0.00    +0.000 A 
ATOM      5  C   UNL     1       1.636   8.669  19.184  0.00  0.00    +0.000 A 
ATOM      6 CL   UNL     1       2.001   8.359  17.555  0.00  0.00    +0.000 Cl
ATOM      7  N   UNL     1       1.197  11.151  19.226  0.00  0.00    +0.000 N 
ATOM      8  C   UNL     1       1.225  12.287  20.156  0.00  0.00    +0.000 C 
ATOM      9  C   UNL     1       0.263  11.959  21.309  0.00  0.00    +0.000 C 
ATOM     10  C   UNL     1       0.655  10.647  22.012  0.00  0.00    +0.000 C 
ATOM     11  H   UNL     1       1.594  11.345  18.306  0.00  0.00    +0.000 HD
ENDROOT
BRANCH   8  12
ATOM     12  C   UNL     1       0.829  13.624  19.564  0.00  0.00    +0.000 A 
ATOM     13  C   UNL     1      -0.423  14.195  19.422  0.00  0.00    +0.000 A 
ATOM     14  C   UNL     1      -0.356  15.538  18.938  0.00  0.00    +0.000 A 
ATOM     15  C   UNL     1       0.939  15.943  18.710  0.00  0.00    +0.000 A 
ATOM     16  S   UNL     1       2.064  14.702  19.037  0.00  0.00    +0.000 S 
ENDBRANCH   8  12
BRANCH   1  18
ATOM     17  O   UNL     1       1.437   5.552  21.143  0.00  0.00    +0.000 OA
ATOM     18  C   UNL     1       1.769   6.272  20.209  0.00  0.00    +0.000 C 
ATOM     19  N   UNL     1       2.405   5.844  19.051  0.00  0.00    +0.000 N 
ATOM     20  H   UNL     1       2.683   6.592  18.419  0.00  0.00    +0.000 HD
BRANCH  19  21
ATOM     21  C   UNL     1       2.833   4.529  18.758  0.00  0.00    +0.000 A 
ATOM     22  C   UNL     1       2.143   3.677  17.889  0.00  0.00    +0.000 A 
ATOM     23  C   UNL     1       2.561   2.358  17.683  0.00  0.00    +0.000 A 
ATOM     24  C   UNL     1       3.686   1.889  18.345  0.00  0.00    +0.000 A 
ATOM     25  C   UNL     1       4.411   2.725  19.184  0.00  0.00    +0.000 A 
ATOM     26  C   UNL     1       3.993   4.048  19.383  0.00  0.00    +0.000 A 
BRANCH  24  27
ATOM     27  O   UNL     1       4.106   0.601  18.195  0.00  0.00    +0.000 OA
ATOM     28  H   UNL     1       3.954   0.129  19.030  0.00  0.00    +0.000 HD
ENDBRANCH  24  27
ENDBRANCH  19  21
ENDBRANCH   1  18
BRANCH  10  29
ATOM     29  C   UNL     1      -0.451  10.198  22.959  0.00  0.00    +0.000 C 
ATOM     30  F   UNL     1      -1.242  11.186  23.426  0.00  0.00    +0.000 F 
ATOM     31  F   UNL     1      -1.261   9.306  22.331  0.00  0.00    +0.000 F 
ATOM     32  F   UNL     1       0.041   9.560  24.048  0.00  0.00    +0.000 F 
ENDBRANCH  10  29
TORSDOF 5
ENDMDL
MODEL 2
REMARK VINA RESULT:      -7.7      5.278      9.099
REMARK  Name = 
REMARK  5 active torsions:
REMARK  status: ('A' for Active; 'I' for Inactive)
REMARK    1  A    between atoms: C_2  and  C_11
REMARK    2  A    between atoms: N_3  and  C_4
REMARK    3  A    between atoms: C_7  and  O_8
REMARK    4  A    between atoms: C_18  and  C_19
REMARK    5  A    between atoms: C_25  and  C_26
REMARK                            x       y       z     vdW  Elec       q    Type
REMARK                         _______ _______ _______ _____ _____    ______ ____
ROOT
ATOM      1  C   UNL     1       3.503   5.609  19.061  0.00  0.00    +0.000 A 
ATOM      2  N   UNL     1       4.834   5.859  19.087  0.00  0.00    +0.000 NA
ATOM      3  N   UNL     1       5.245   5.531  17.847  0.00  0.00    +0.000 N 
ATOM      4  C   UNL     1       4.285   4.917  17.086  0.00  0.00    +0.000 A 
ATOM      5  C   UNL     1       3.131   4.982  17.834  0.00  0.00    +0.000 A 
ATOM      6 CL   UNL     1       1.590   4.446  17.364  0.00  0.00    +0.000 Cl
ATOM      7  N   UNL     1       4.578   4.431  15.845  0.00  0.00    +0.000 N 
ATOM      8  C   UNL     1       5.981   4.153  15.510  0.00  0.00    +0.000 C 
ATOM      9  C   UNL     1       6.804   5.379  15.942  0.00  0.00    +0.000 C 
ATOM     10  C   UNL     1       6.631   5.671  17.442  0.00  0.00    +0.000 C 
ATOM     11  H   UNL     1       3.903   3.813  15.390  0.00  0.00    +0.000 HD
ENDROOT
BRANCH   8  12
ATOM     12  C   UNL     1       6.261   3.877  14.047  0.00  0.00    +0.000 A 
ATOM     13  C   UNL     1       5.594   3.057  13.155  0.00  0.00    +0.000 A 
ATOM     14  C   UNL     1       6.094   3.183  11.823  0.00  0.00    +0.000 A 
ATOM     15  C   UNL     1       7.135   4.078  11.742  0.00  0.00    +0.000 A 
ATOM     16  S   UNL     1       7.535   4.733  13.266  0.00  0.00    +0.000 S 
ENDBRANCH   8  12
BRANCH   1  18
ATOM     17  O   UNL     1       2.222   5.157  20.988  0.00  0.00    +0.000 OA
ATOM     18  C   UNL     1       2.632   5.990  20.189  0.00  0.00    +0.000 C 
ATOM     19  N   UNL     1       2.296   7.338  20.191  0.00  0.00    +0.000 N 
ATOM     20  H   UNL     1       2.663   7.866  19.402  0.00  0.00    +0.000 HD
BRANCH  19  21
ATOM     21  C   UNL     1       1.390   7.983  21.062  0.00  0.00    +0.000 A 
ATOM     22  C   UNL     1       0.002   7.820  20.978  0.00  0.00    +0.000 A 
ATOM     23  C   UNL     1      -0.863   8.535  21.813  0.00  0.00    +0.000 A 
ATOM     24  C   UNL     1      -0.337   9.414  22.748  0.00  0.00    +0.000 A 
ATOM     25  C   UNL     1       1.038   9.566  22.877  0.00  0.00    +0.000 A 
ATOM     26  C   UNL     1       1.902   8.844  22.043  0.00  0.00    +0.000 A 
BRANCH  24  27
ATOM     27  O   UNL     1      -1.149  10.151  23.556  0.00  0.00    +0.000 OA
ATOM     28  H   UNL     1      -2.030  10.198  23.148  0.00  0.00    +0.000 HD
ENDBRANCH  24  27
ENDBRANCH  19  21
ENDBRANCH   1  18
BRANCH  10  29
ATOM     29  C   UNL     1       7.224   7.031  17.792  0.00  0.00    +0.000 C 
ATOM     30  F   UNL     1       6.328   8.031  17.925  0.00  0.00    +0.000 F 
ATOM     31  F   UNL     1       7.903   6.950  18.965  0.00  0.00    +0.000 F 
ATOM     32  F   UNL     1       8.121   7.447  16.865  0.00  0.00    +0.000 F 
ENDBRANCH  10  29
TORSDOF 5
ENDMDL
MODEL 3
REMARK VINA RESULT:      -7.6      3.266      3.991
REMARK  Name = 
REMARK  5 active torsions:
REMARK  status: ('A' for Active; 'I' for Inactive)
REMARK    1  A    between atoms: C_2  and  C_11
REMARK    2  A    between atoms: N_3  and  C_4
REMARK    3  A    between atoms: C_7  and  O_8
REMARK    4  A    between atoms: C_18  and  C_19
REMARK    5  A    between atoms: C_25  and  C_26
REMARK                            x       y       z     vdW  Elec       q    Type
REMARK                         _______ _______ _______ _____ _____    ______ ____
ROOT
ATOM      1  C   UNL     1       1.429   9.405  19.127  0.00  0.00    +0.000 A 
ATOM      2  N   UNL     1       1.352  10.648  18.598  0.00  0.00    +0.000 NA
ATOM      3  N   UNL     1       0.773  11.376  19.572  0.00  0.00    +0.000 N 
ATOM      4  C   UNL     1       0.312  10.629  20.625  0.00  0.00    +0.000 A 
ATOM      5  C   UNL     1       0.752   9.347  20.383  0.00  0.00    +0.000 A 
ATOM      6 CL   UNL     1       0.545   8.000  21.394  0.00  0.00    +0.000 Cl
ATOM      7  N   UNL     1      -0.392  11.209  21.641  0.00  0.00    +0.000 N 
ATOM      8  C   UNL     1      -1.040  12.504  21.399  0.00  0.00    +0.000 C 
ATOM      9  C   UNL     1      -0.003  13.415  20.722  0.00  0.00    +0.000 C 
ATOM     10  C   UNL     1       0.520  12.795  19.415  0.00  0.00    +0.000 C 
ATOM     11  H   UNL     1      -0.883  10.604  22.301  0.00  0.00    +0.000 HD
ENDROOT
BRANCH   8  12
ATOM     12  C   UNL     1      -1.568  13.209  22.631  0.00  0.00    +0.000 A 
ATOM     13  C   UNL     1      -1.017  14.244  23.367  0.00  0.00    +0.000 A 
ATOM     14  C   UNL     1      -1.902  14.720  24.382  0.00  0.00    +0.000 A 
ATOM     15  C   UNL     1      -3.090  14.026  24.402  0.00  0.00    +0.000 A 
ATOM     16  S   UNL     1      -3.125  12.783  23.234  0.00  0.00    +0.000 S 
ENDBRANCH   8  12
BRANCH   1  18
ATOM     17  O   UNL     1       2.582   8.468  17.296  0.00  0.00    +0.000 OA
ATOM     18  C   UNL     1       2.156   8.323  18.436  0.00  0.00    +0.000 C 
ATOM     19  N   UNL     1       2.233   7.153  19.179  0.00  0.00    +0.000 N 
ATOM     20  H   UNL     1       1.751   7.188  20.075  0.00  0.00    +0.000 HD
BRANCH  19  21
ATOM     21  C   UNL     1       2.756   5.911  18.751  0.00  0.00    +0.000 A 
ATOM     22  C   UNL     1       2.049   5.030  17.925  0.00  0.00    +0.000 A 
ATOM     23  C   UNL     1       2.573   3.778  17.585  0.00  0.00    +0.000 A 
ATOM     24  C   UNL     1       3.820   3.407  18.067  0.00  0.00    +0.000 A 
ATOM     25  C   UNL     1       4.557   4.278  18.859  0.00  0.00    +0.000 A 
ATOM     26  C   UNL     1       4.032   5.534  19.192  0.00  0.00    +0.000 A 
BRANCH  24  27
ATOM     27  O   UNL     1       4.349   2.183  17.784  0.00  0.00    +0.000 OA
ATOM     28  H   UNL     1       4.291   2.038  16.825  0.00  0.00    +0.000 HD
ENDBRANCH  24  27
ENDBRANCH  19  21
ENDBRANCH   1  18
BRANCH  10  29
ATOM     29  C   UNL     1       1.732  13.568  18.906  0.00  0.00    +0.000 C 
ATOM     30  F   UNL     1       2.902  13.255  19.499  0.00  0.00    +0.000 F 
ATOM     31  F   UNL     1       1.891  13.350  17.575  0.00  0.00    +0.000 F 
ATOM     32  F   UNL     1       1.578  14.906  19.054  0.00  0.00    +0.000 F 
ENDBRANCH  10  29
TORSDOF 5
ENDMDL
MODEL 4
REMARK VINA RESULT:      -7.5      3.274      4.091
REMARK  Name = 
REMARK  5 active torsions:
REMARK  status: ('A' for Active; 'I' for Inactive)
REMARK    1  A    between atoms: C_2  and  C_11
REMARK    2  A    between atoms: N_3  and  C_4
REMARK    3  A    between atoms: C_7  and  O_8
REMARK    4  A    between atoms: C_18  and  C_19
REMARK    5  A    between atoms: C_25  and  C_26
REMARK                            x       y       z     vdW  Elec       q    Type
REMARK                         _______ _______ _______ _____ _____    ______ ____
ROOT
ATOM      1  C   UNL     1       1.444   9.398  19.133  0.00  0.00    +0.000 A 
ATOM      2  N   UNL     1       1.363  10.637  18.594  0.00  0.00    +0.000 NA
ATOM      3  N   UNL     1       0.771  11.368  19.557  0.00  0.00    +0.000 N 
ATOM      4  C   UNL     1       0.306  10.627  20.612  0.00  0.00    +0.000 A 
ATOM      5  C   UNL     1       0.756   9.346  20.383  0.00  0.00    +0.000 A 
ATOM      6 CL   UNL     1       0.549   8.004  21.403  0.00  0.00    +0.000 Cl
ATOM      7  N   UNL     1      -0.411  11.209  21.617  0.00  0.00    +0.000 N 
ATOM      8  C   UNL     1      -1.066  12.498  21.360  0.00  0.00    +0.000 C 
ATOM      9  C   UNL     1      -0.029  13.411  20.684  0.00  0.00    +0.000 C 
ATOM     10  C   UNL     1       0.510  12.784  19.387  0.00  0.00    +0.000 C 
ATOM     11  H   UNL     1      -0.904  10.606  22.278  0.00  0.00    +0.000 HD
ENDROOT
BRANCH   8  12
ATOM     12  C   UNL     1      -1.609  13.209  22.582  0.00  0.00    +0.000 A 
ATOM     13  C   UNL     1      -1.056  14.230  23.334  0.00  0.00    +0.000 A 
ATOM     14  C   UNL     1      -1.955  14.720  24.330  0.00  0.00    +0.000 A 
ATOM     15  C   UNL     1      -3.157  14.050  24.320  0.00  0.00    +0.000 A 
ATOM     16  S   UNL     1      -3.188  12.811  23.146  0.00  0.00    +0.000 S 
ENDBRANCH   8  12
BRANCH   1  18
ATOM     17  O   UNL     1       2.544   8.422  17.290  0.00  0.00    +0.000 OA
ATOM     18  C   UNL     1       2.184   8.316  18.457  0.00  0.00    +0.000 C 
ATOM     19  N   UNL     1       2.353   7.188  19.249  0.00  0.00    +0.000 N 
ATOM     20  H   UNL     1       1.915   7.247  20.167  0.00  0.00    +0.000 HD
BRANCH  19  21
ATOM     21  C   UNL     1       2.909   5.951  18.854  0.00  0.00    +0.000 A 
ATOM     22  C   UNL     1       4.207   5.554  19.196  0.00  0.00    +0.000 A 
ATOM     23  C   UNL     1       4.745   4.353  18.722  0.00  0.00    +0.000 A 
ATOM     24  C   UNL     1       3.976   3.536  17.906  0.00  0.00    +0.000 A 
ATOM     25  C   UNL     1       2.673   3.890  17.582  0.00  0.00    +0.000 A 
ATOM     26  C   UNL     1       2.134   5.091  18.063  0.00  0.00    +0.000 A 
BRANCH  24  27
ATOM     27  O   UNL     1       4.478   2.375  17.399  0.00  0.00    +0.000 OA
ATOM     28  H   UNL     1       3.734   1.793  17.168  0.00  0.00    +0.000 HD
ENDBRANCH  24  27
ENDBRANCH  19  21
ENDBRANCH   1  18
BRANCH  10  29
ATOM     29  C   UNL     1       1.720  13.561  18.882  0.00  0.00    +0.000 C 
ATOM     30  F   UNL     1       2.031  13.360  17.585  0.00  0.00    +0.000 F 
ATOM     31  F   UNL     1       1.510  14.894  19.038  0.00  0.00    +0.000 F 
ATOM     32  F   UNL     1       2.840  13.271  19.589  0.00  0.00    +0.000 F 
ENDBRANCH  10  29
TORSDOF 5
ENDMDL
MODEL 5
REMARK VINA RESULT:      -7.5      4.921      5.784
REMARK  Name = 
REMARK  5 active torsions:
REMARK  status: ('A' for Active; 'I' for Inactive)
REMARK    1  A    between atoms: C_2  and  C_11
REMARK    2  A    between atoms: N_3  and  C_4
REMARK    3  A    between atoms: C_7  and  O_8
REMARK    4  A    between atoms: C_18  and  C_19
REMARK    5  A    between atoms: C_25  and  C_26
REMARK                            x       y       z     vdW  Elec       q    Type
REMARK                         _______ _______ _______ _____ _____    ______ ____
ROOT
ATOM      1  C   UNL     1      -0.277  10.336  18.466  0.00  0.00    +0.000 A 
ATOM      2  N   UNL     1      -1.224   9.837  17.636  0.00  0.00    +0.000 NA
ATOM      3  N   UNL     1      -2.280  10.649  17.832  0.00  0.00    +0.000 N 
ATOM      4  C   UNL     1      -2.122  11.528  18.871  0.00  0.00    +0.000 A 
ATOM      5  C   UNL     1      -0.818  11.373  19.284  0.00  0.00    +0.000 A 
ATOM      6 CL   UNL     1      -0.029  12.262  20.496  0.00  0.00    +0.000 Cl
ATOM      7  N   UNL     1      -3.145  12.344  19.261  0.00  0.00    +0.000 N 
ATOM      8  C   UNL     1      -4.518  11.978  18.893  0.00  0.00    +0.000 C 
ATOM      9  C   UNL     1      -4.508  11.614  17.399  0.00  0.00    +0.000 C 
ATOM     10  C   UNL     1      -3.523  10.469  17.106  0.00  0.00    +0.000 C 
ATOM     11  H   UNL     1      -3.061  12.840  20.150  0.00  0.00    +0.000 HD
ENDROOT
BRANCH   8  12
ATOM     12  C   UNL     1      -5.563  13.051  19.119  0.00  0.00    +0.000 A 
ATOM     13  C   UNL     1      -6.574  13.496  18.286  0.00  0.00    +0.000 A 
ATOM     14  C   UNL     1      -7.437  14.434  18.932  0.00  0.00    +0.000 A 
ATOM     15  C   UNL     1      -7.049  14.690  20.227  0.00  0.00    +0.000 A 
ATOM     16  S   UNL     1      -5.633  13.837  20.651  0.00  0.00    +0.000 S 
ENDBRANCH   8  12
BRANCH   1  18
ATOM     17  O   UNL     1       2.058  10.572  18.238  0.00  0.00    +0.000 OA
ATOM     18  C   UNL     1       1.107   9.826  18.441  0.00  0.00    +0.000 C 
ATOM     19  N   UNL     1       1.187   8.449  18.601  0.00  0.00    +0.000 N 
ATOM     20  H   UNL     1       0.286   7.979  18.676  0.00  0.00    +0.000 HD
BRANCH  19  21
ATOM     21  C   UNL     1       2.349   7.651  18.505  0.00  0.00    +0.000 A 
ATOM     22  C   UNL     1       3.274   7.772  17.461  0.00  0.00    +0.000 A 
ATOM     23  C   UNL     1       4.374   6.913  17.364  0.00  0.00    +0.000 A 
ATOM     24  C   UNL     1       4.556   5.929  18.325  0.00  0.00    +0.000 A 
ATOM     25  C   UNL     1       3.673   5.811  19.390  0.00  0.00    +0.000 A 
ATOM     26  C   UNL     1       2.576   6.678  19.488  0.00  0.00    +0.000 A 
BRANCH  24  27
ATOM     27  O   UNL     1       5.597   5.052  18.246  0.00  0.00    +0.000 OA
ATOM     28  H   UNL     1       6.215   5.369  17.566  0.00  0.00    +0.000 HD
ENDBRANCH  24  27
ENDBRANCH  19  21
ENDBRANCH   1  18
BRANCH  10  29
ATOM     29  C   UNL     1      -3.323  10.309  15.604  0.00  0.00    +0.000 C 
ATOM     30  F   UNL     1      -4.453  10.345  14.868  0.00  0.00    +0.000 F 
ATOM     31  F   UNL     1      -2.515  11.296  15.138  0.00  0.00    +0.000 F 
ATOM     32  F   UNL     1      -2.708   9.141  15.295  0.00  0.00    +0.000 F 
ENDBRANCH  10  29
TORSDOF 5
ENDMDL
MODEL 6
REMARK VINA RESULT:      -7.5      5.030      9.626
REMARK  Name = 
REMARK  5 active torsions:
REMARK  status: ('A' for Active; 'I' for Inactive)
REMARK    1  A    between atoms: C_2  and  C_11
REMARK    2  A    between atoms: N_3  and  C_4
REMARK    3  A    between atoms: C_7  and  O_8
REMARK    4  A    between atoms: C_18  and  C_19
REMARK    5  A    between atoms: C_25  and  C_26
REMARK                            x       y       z     vdW  Elec       q    Type
REMARK                         _______ _______ _______ _____ _____    ______ ____
ROOT
ATOM      1  C   UNL     1      -1.213  11.314  21.845  0.00  0.00    +0.000 A 
ATOM      2  N   UNL     1      -1.238  11.596  20.522  0.00  0.00    +0.000 NA
ATOM      3  N   UNL     1      -0.482  10.626  19.973  0.00  0.00    +0.000 N 
ATOM      4  C   UNL     1       0.172   9.844  20.889  0.00  0.00    +0.000 A 
ATOM      5  C   UNL     1      -0.307  10.244  22.116  0.00  0.00    +0.000 A 
ATOM      6 CL   UNL     1       0.090   9.572  23.624  0.00  0.00    +0.000 Cl
ATOM      7  N   UNL     1       1.059   8.887  20.489  0.00  0.00    +0.000 N 
ATOM      8  C   UNL     1       1.650   8.990  19.148  0.00  0.00    +0.000 C 
ATOM      9  C   UNL     1       0.502   9.269  18.164  0.00  0.00    +0.000 C 
ATOM     10  C   UNL     1      -0.263  10.550  18.541  0.00  0.00    +0.000 C 
ATOM     11  H   UNL     1       1.667   8.462  21.190  0.00  0.00    +0.000 HD
ENDROOT
BRANCH   8  12
ATOM     12  C   UNL     1       2.405   7.767  18.672  0.00  0.00    +0.000 A 
ATOM     13  C   UNL     1       3.229   7.604  17.573  0.00  0.00    +0.000 A 
ATOM     14  C   UNL     1       3.864   6.325  17.554  0.00  0.00    +0.000 A 
ATOM     15  C   UNL     1       3.493   5.545  18.625  0.00  0.00    +0.000 A 
ATOM     16  S   UNL     1       2.357   6.333  19.626  0.00  0.00    +0.000 S 
ENDBRANCH   8  12
BRANCH   1  18
ATOM     17  O   UNL     1      -2.870  11.474  23.515  0.00  0.00    +0.000 OA
ATOM     18  C   UNL     1      -2.060  12.052  22.801  0.00  0.00    +0.000 C 
ATOM     19  N   UNL     1      -1.879  13.428  22.744  0.00  0.00    +0.000 N 
ATOM     20  H   UNL     1      -1.221  13.739  22.032  0.00  0.00    +0.000 HD
BRANCH  19  21
ATOM     21  C   UNL     1      -2.620  14.409  23.441  0.00  0.00    +0.000 A 
ATOM     22  C   UNL     1      -2.145  15.050  24.591  0.00  0.00    +0.000 A 
ATOM     23  C   UNL     1      -2.941  15.962  25.293  0.00  0.00    +0.000 A 
ATOM     24  C   UNL     1      -4.220  16.243  24.836  0.00  0.00    +0.000 A 
ATOM     25  C   UNL     1      -4.701  15.649  23.676  0.00  0.00    +0.000 A 
ATOM     26  C   UNL     1      -3.899  14.740  22.972  0.00  0.00    +0.000 A 
BRANCH  24  27
ATOM     27  O   UNL     1      -5.036  17.101  25.510  0.00  0.00    +0.000 OA
ATOM     28  H   UNL     1      -4.533  17.907  25.715  0.00  0.00    +0.000 HD
ENDBRANCH  24  27
ENDBRANCH  19  21
ENDBRANCH   1  18
BRANCH  10  29
ATOM     29  C   UNL     1      -1.549  10.660  17.731  0.00  0.00    +0.000 C 
ATOM     30  F   UNL     1      -2.664  10.240  18.363  0.00  0.00    +0.000 F 
ATOM     31  F   UNL     1      -1.759  11.954  17.374  0.00  0.00    +0.000 F 
ATOM     32  F   UNL     1      -1.482   9.957  16.574  0.00  0.00    +0.000 F 
ENDBRANCH  10  29
TORSDOF 5
ENDMDL
MODEL 7
REMARK VINA RESULT:      -7.5      3.407      4.198
REMARK  Name = 
REMARK  5 active torsions:
REMARK  status: ('A' for Active; 'I' for Inactive)
REMARK    1  A    between atoms: C_2  and  C_11
REMARK    2  A    between atoms: N_3  and  C_4
REMARK    3  A    between atoms: C_7  and  O_8
REMARK    4  A    between atoms: C_18  and  C_19
REMARK    5  A    between atoms: C_25  and  C_26
REMARK                            x       y       z     vdW  Elec       q    Type
REMARK                         _______ _______ _______ _____ _____    ______ ____
ROOT
ATOM      1  C   UNL     1       1.056   9.487  19.205  0.00  0.00    +0.000 A 
ATOM      2  N   UNL     1       0.357  10.453  18.565  0.00  0.00    +0.000 NA
ATOM      3  N   UNL     1      -0.152  11.197  19.566  0.00  0.00    +0.000 N 
ATOM      4  C   UNL     1       0.034  10.656  20.811  0.00  0.00    +0.000 A 
ATOM      5  C   UNL     1       0.844   9.560  20.615  0.00  0.00    +0.000 A 
ATOM      6 CL   UNL     1       1.472   8.539  21.818  0.00  0.00    +0.000 Cl
ATOM      7  N   UNL     1      -0.516  11.237  21.917  0.00  0.00    +0.000 N 
ATOM      8  C   UNL     1      -1.653  12.149  21.743  0.00  0.00    +0.000 C 
ATOM      9  C   UNL     1      -1.289  13.121  20.608  0.00  0.00    +0.000 C 
ATOM     10  C   UNL     1      -0.966  12.369  19.306  0.00  0.00    +0.000 C 
ATOM     11  H   UNL     1      -0.525  10.710  22.792  0.00  0.00    +0.000 HD
ENDROOT
BRANCH   8  12
ATOM     12  C   UNL     1      -2.035  12.958  22.965  0.00  0.00    +0.000 A 
ATOM     13  C   UNL     1      -1.348  13.972  23.609  0.00  0.00    +0.000 A 
ATOM     14  C   UNL     1      -2.119  14.575  24.649  0.00  0.00    +0.000 A 
ATOM     15  C   UNL     1      -3.360  13.994  24.779  0.00  0.00    +0.000 A 
ATOM     16  S   UNL     1      -3.580  12.705  23.684  0.00  0.00    +0.000 S 
ENDBRANCH   8  12
BRANCH   1  18
ATOM     17  O   UNL     1       2.424   8.851  17.392  0.00  0.00    +0.000 OA
ATOM     18  C   UNL     1       1.912   8.542  18.462  0.00  0.00    +0.000 C 
ATOM     19  N   UNL     1       2.005   7.296  19.066  0.00  0.00    +0.000 N 
ATOM     20  H   UNL     1       1.447   7.192  19.911  0.00  0.00    +0.000 HD
BRANCH  19  21
ATOM     21  C   UNL     1       2.646   6.149  18.546  0.00  0.00    +0.000 A 
ATOM     22  C   UNL     1       1.948   5.031  18.076  0.00  0.00    +0.000 A 
ATOM     23  C   UNL     1       2.623   3.886  17.638  0.00  0.00    +0.000 A 
ATOM     24  C   UNL     1       4.009   3.863  17.660  0.00  0.00    +0.000 A 
ATOM     25  C   UNL     1       4.727   4.972  18.087  0.00  0.00    +0.000 A 
ATOM     26  C   UNL     1       4.048   6.120  18.520  0.00  0.00    +0.000 A 
BRANCH  24  27
ATOM     27  O   UNL     1       4.701   2.754  17.271  0.00  0.00    +0.000 OA
ATOM     28  H   UNL     1       4.309   2.420  16.447  0.00  0.00    +0.000 HD
ENDBRANCH  24  27
ENDBRANCH  19  21
ENDBRANCH   1  18
BRANCH  10  29
ATOM     29  C   UNL     1      -0.347  13.314  18.283  0.00  0.00    +0.000 C 
ATOM     30  F   UNL     1       0.994  13.233  18.164  0.00  0.00    +0.000 F 
ATOM     31  F   UNL     1      -0.870  13.070  17.054  0.00  0.00    +0.000 F 
ATOM     32  F   UNL     1      -0.624  14.612  18.560  0.00  0.00    +0.000 F 
ENDBRANCH  10  29
TORSDOF 5
ENDMDL
MODEL 8
REMARK VINA RESULT:      -7.5      4.876      5.723
REMARK  Name = 
REMARK  5 active torsions:
REMARK  status: ('A' for Active; 'I' for Inactive)
REMARK    1  A    between atoms: C_2  and  C_11
REMARK    2  A    between atoms: N_3  and  C_4
REMARK    3  A    between atoms: C_7  and  O_8
REMARK    4  A    between atoms: C_18  and  C_19
REMARK    5  A    between atoms: C_25  and  C_26
REMARK                            x       y       z     vdW  Elec       q    Type
REMARK                         _______ _______ _______ _____ _____    ______ ____
ROOT
ATOM      1  C   UNL     1      -0.193  10.290  18.429  0.00  0.00    +0.000 A 
ATOM      2  N   UNL     1      -1.162   9.813  17.613  0.00  0.00    +0.000 NA
ATOM      3  N   UNL     1      -2.208  10.629  17.847  0.00  0.00    +0.000 N 
ATOM      4  C   UNL     1      -2.020  11.488  18.899  0.00  0.00    +0.000 A 
ATOM      5  C   UNL     1      -0.708  11.316  19.279  0.00  0.00    +0.000 A 
ATOM      6 CL   UNL     1       0.115  12.176  20.489  0.00  0.00    +0.000 Cl
ATOM      7  N   UNL     1      -3.027  12.304  19.327  0.00  0.00    +0.000 N 
ATOM      8  C   UNL     1      -4.411  11.954  18.983  0.00  0.00    +0.000 C 
ATOM      9  C   UNL     1      -4.438  11.618  17.483  0.00  0.00    +0.000 C 
ATOM     10  C   UNL     1      -3.468  10.471  17.147  0.00  0.00    +0.000 C 
ATOM     11  H   UNL     1      -2.920  12.782  20.223  0.00  0.00    +0.000 HD
ENDROOT
BRANCH   8  12
ATOM     12  C   UNL     1      -5.442  13.030  19.253  0.00  0.00    +0.000 A 
ATOM     13  C   UNL     1      -5.559  13.900  20.323  0.00  0.00    +0.000 A 
ATOM     14  C   UNL     1      -6.597  14.862  20.131  0.00  0.00    +0.000 A 
ATOM     15  C   UNL     1      -7.250  14.688  18.932  0.00  0.00    +0.000 A 
ATOM     16  S   UNL     1      -6.645  13.351  18.062  0.00  0.00    +0.000 S 
ENDBRANCH   8  12
BRANCH   1  18
ATOM     17  O   UNL     1       2.127  10.495  18.059  0.00  0.00    +0.000 OA
ATOM     18  C   UNL     1       1.186   9.771  18.364  0.00  0.00    +0.000 C 
ATOM     19  N   UNL     1       1.270   8.407  18.612  0.00  0.00    +0.000 N 
ATOM     20  H   UNL     1       0.374   7.949  18.767  0.00  0.00    +0.000 HD
BRANCH  19  21
ATOM     21  C   UNL     1       2.424   7.597  18.507  0.00  0.00    +0.000 A 
ATOM     22  C   UNL     1       3.339   7.705  17.453  0.00  0.00    +0.000 A 
ATOM     23  C   UNL     1       4.429   6.834  17.348  0.00  0.00    +0.000 A 
ATOM     24  C   UNL     1       4.611   5.852  18.310  0.00  0.00    +0.000 A 
ATOM     25  C   UNL     1       3.739   5.747  19.386  0.00  0.00    +0.000 A 
ATOM     26  C   UNL     1       2.651   6.625  19.491  0.00  0.00    +0.000 A 
BRANCH  24  27
ATOM     27  O   UNL     1       5.643   4.965  18.224  0.00  0.00    +0.000 OA
ATOM     28  H   UNL     1       5.284   4.100  17.965  0.00  0.00    +0.000 HD
ENDBRANCH  24  27
ENDBRANCH  19  21
ENDBRANCH   1  18
BRANCH  10  29
ATOM     29  C   UNL     1      -3.304  10.338  15.638  0.00  0.00    +0.000 C 
ATOM     30  F   UNL     1      -2.504  11.260  15.064  0.00  0.00    +0.000 F 
ATOM     31  F   UNL     1      -2.784   9.119  15.337  0.00  0.00    +0.000 F 
ATOM     32  F   UNL     1      -4.492  10.411  14.989  0.00  0.00    +0.000 F 
ENDBRANCH  10  29
TORSDOF 5
ENDMDL
MODEL 9
REMARK VINA RESULT:      -7.5      3.403      4.265
REMARK  Name = 
REMARK  5 active torsions:
REMARK  status: ('A' for Active; 'I' for Inactive)
REMARK    1  A    between atoms: C_2  and  C_11
REMARK    2  A    between atoms: N_3  and  C_4
REMARK    3  A    between atoms: C_7  and  O_8
REMARK    4  A    between atoms: C_18  and  C_19
REMARK    5  A    between atoms: C_25  and  C_26
REMARK                            x       y       z     vdW  Elec       q    Type
REMARK                         _______ _______ _______ _____ _____    ______ ____
ROOT
ATOM      1  C   UNL     1       1.050   9.502  19.387  0.00  0.00    +0.000 A 
ATOM      2  N   UNL     1       0.329  10.431  18.717  0.00  0.00    +0.000 NA
ATOM      3  N   UNL     1      -0.161  11.220  19.692  0.00  0.00    +0.000 N 
ATOM      4  C   UNL     1       0.058  10.743  20.958  0.00  0.00    +0.000 A 
ATOM      5  C   UNL     1       0.872   9.644  20.797  0.00  0.00    +0.000 A 
ATOM      6 CL   UNL     1       1.537   8.688  22.032  0.00  0.00    +0.000 Cl
ATOM      7  N   UNL     1      -0.469  11.375  22.047  0.00  0.00    +0.000 N 
ATOM      8  C   UNL     1      -1.617  12.270  21.856  0.00  0.00    +0.000 C 
ATOM      9  C   UNL     1      -1.287  13.187  20.666  0.00  0.00    +0.000 C 
ATOM     10  C   UNL     1      -0.990  12.372  19.395  0.00  0.00    +0.000 C 
ATOM     11  H   UNL     1      -0.452  10.892  22.947  0.00  0.00    +0.000 HD
ENDROOT
BRANCH   8  12
ATOM     12  C   UNL     1      -1.975  13.136  23.046  0.00  0.00    +0.000 A 
ATOM     13  C   UNL     1      -1.269  14.167  23.638  0.00  0.00    +0.000 A 
ATOM     14  C   UNL     1      -2.020  14.825  24.658  0.00  0.00    +0.000 A 
ATOM     15  C   UNL     1      -3.266  14.267  24.827  0.00  0.00    +0.000 A 
ATOM     16  S   UNL     1      -3.515  12.934  23.791  0.00  0.00    +0.000 S 
ENDBRANCH   8  12
BRANCH   1  18
ATOM     17  O   UNL     1       2.297   8.746  17.534  0.00  0.00    +0.000 OA
ATOM     18  C   UNL     1       1.895   8.528  18.671  0.00  0.00    +0.000 C 
ATOM     19  N   UNL     1       2.112   7.359  19.388  0.00  0.00    +0.000 N 
ATOM     20  H   UNL     1       1.633   7.319  20.286  0.00  0.00    +0.000 HD
BRANCH  19  21
ATOM     21  C   UNL     1       2.774   6.196  18.933  0.00  0.00    +0.000 A 
ATOM     22  C   UNL     1       4.096   5.887  19.273  0.00  0.00    +0.000 A 
ATOM     23  C   UNL     1       4.737   4.764  18.741  0.00  0.00    +0.000 A 
ATOM     24  C   UNL     1       4.048   3.936  17.867  0.00  0.00    +0.000 A 
ATOM     25  C   UNL     1       2.724   4.200  17.542  0.00  0.00    +0.000 A 
ATOM     26  C   UNL     1       2.082   5.323  18.082  0.00  0.00    +0.000 A 
BRANCH  24  27
ATOM     27  O   UNL     1       4.649   2.850  17.303  0.00  0.00    +0.000 OA
ATOM     28  H   UNL     1       4.035   2.099  17.351  0.00  0.00    +0.000 HD
ENDBRANCH  24  27
ENDBRANCH  19  21
ENDBRANCH   1  18
BRANCH  10  29
ATOM     29  C   UNL     1      -0.404  13.270  18.312  0.00  0.00    +0.000 C 
ATOM     30  F   UNL     1      -0.628  14.590  18.478  0.00  0.00    +0.000 F 
ATOM     31  F   UNL     1       0.942  13.101  18.252  0.00  0.00    +0.000 F 
ATOM     32  F   UNL     1      -0.879  12.957  17.081  0.00  0.00    +0.000 F 
ENDBRANCH  10  29
TORSDOF 5
ENDMDL
