MODEL 1
REMARK VINA RESULT:      -7.9      0.000      0.000
REMARK  Name = 
REMARK  6 active torsions:
REMARK  status: ('A' for Active; 'I' for Inactive)
REMARK    1  A    between atoms: C_1  and  O_2
REMARK    2  A    between atoms: O_2  and  C_3
REMARK    3  A    between atoms: C_5  and  C_6
REMARK    4  A    between atoms: C_13  and  N_14
REMARK    5  A    between atoms: C_16  and  C_17
REMARK    6  A    between atoms: C_21  and  C_22
REMARK                            x       y       z     vdW  Elec       q    Type
REMARK                         _______ _______ _______ _____ _____    ______ ____
ROOT
ATOM      1  N   UNL     1       0.703  10.329  19.342  0.00  0.00    +0.000 N 
ATOM      2  C   UNL     1       1.073   9.005  19.343  0.00  0.00    +0.000 A 
ATOM      3  C   UNL     1       2.020   8.893  18.356  0.00  0.00    +0.000 A 
ATOM      4  N   UNL     1       2.184  10.106  17.753  0.00  0.00    +0.000 NA
ATOM      5  N   UNL     1       1.376  10.970  18.348  0.00  0.00    +0.000 NA
ENDROOT
BRANCH   1  11
ATOM      6  C   UNL     1      -0.158  11.045  21.571  0.00  0.00    +0.000 A 
ATOM      7  C   UNL     1      -1.120  11.767  22.289  0.00  0.00    +0.000 A 
ATOM      8  C   UNL     1      -2.170  12.405  21.627  0.00  0.00    +0.000 A 
ATOM      9  C   UNL     1      -2.234  12.402  20.237  0.00  0.00    +0.000 A 
ATOM     10  C   UNL     1      -1.259  11.730  19.508  0.00  0.00    +0.000 A 
ATOM     11  C   UNL     1      -0.221  11.032  20.163  0.00  0.00    +0.000 A 
BRANCH   8  12
ATOM     12  C   UNL     1      -3.245  13.043  22.412  0.00  0.00    +0.000 C 
ATOM     13  N   UNL     1      -4.223  12.350  22.931  0.00  0.00    +0.000 NA
ATOM     14  C   UNL     1      -5.109  13.363  23.565  0.00  0.00    +0.000 C 
ATOM     15  C   UNL     1      -4.516  14.741  23.257  0.00  0.00    +0.000 C 
ATOM     16  N   UNL     1      -3.282  14.403  22.588  0.00  0.00    +0.000 N 
ATOM     17  H   UNL     1      -3.055  14.952  21.765  0.00  0.00    +0.000 HD
ENDBRANCH   8  12
BRANCH   6  19
ATOM     18  C   UNL     1       0.463   9.384  23.144  0.00  0.00    +0.000 C 
ATOM     19  O   UNL     1       0.858  10.398  22.220  0.00  0.00    +0.000 OA
ENDBRANCH   6  19
ENDBRANCH   1  11
BRANCH   3  20
ATOM     20  C   UNL     1       2.767   7.703  18.006  0.00  0.00    +0.000 A 
ATOM     21  C   UNL     1       3.970   7.767  17.286  0.00  0.00    +0.000 A 
ATOM     22  C   UNL     1       4.644   6.601  16.917  0.00  0.00    +0.000 A 
ATOM     23  C   UNL     1       4.120   5.358  17.265  0.00  0.00    +0.000 A 
ATOM     24  C   UNL     1       2.936   5.286  17.999  0.00  0.00    +0.000 A 
ATOM     25  C   UNL     1       2.260   6.451  18.370  0.00  0.00    +0.000 A 
BRANCH  24  26
ATOM     26  C   UNL     1       2.383   3.972  18.384  0.00  0.00    +0.000 C 
ATOM     27  N   UNL     1       1.174   3.602  18.032  0.00  0.00    +0.000 NA
ATOM     28  C   UNL     1       1.026   2.250  18.640  0.00  0.00    +0.000 C 
ATOM     29  C   UNL     1       2.444   1.781  18.967  0.00  0.00    +0.000 C 
ATOM     30  N   UNL     1       3.119   3.050  19.093  0.00  0.00    +0.000 N 
ATOM     31  H   UNL     1       4.122   3.054  18.944  0.00  0.00    +0.000 HD
ENDBRANCH  24  26
ENDBRANCH   3  20
TORSDOF 5
ENDMDL
MODEL 2
REMARK VINA RESULT:      -7.9      1.136      1.478
REMARK  Name = 
REMARK  6 active torsions:
REMARK  status: ('A' for Active; 'I' for Inactive)
REMARK    1  A    between atoms: C_1  and  O_2
REMARK    2  A    between atoms: O_2  and  C_3
REMARK    3  A    between atoms: C_5  and  C_6
REMARK    4  A    between atoms: C_13  and  N_14
REMARK    5  A    between atoms: C_16  and  C_17
REMARK    6  A    between atoms: C_21  and  C_22
REMARK                            x       y       z     vdW  Elec       q    Type
REMARK                         _______ _______ _______ _____ _____    ______ ____
ROOT
ATOM      1  N   UNL     1       0.285  10.543  19.666  0.00  0.00    +0.000 N 
ATOM      2  C   UNL     1       0.701   9.236  19.742  0.00  0.00    +0.000 A 
ATOM      3  C   UNL     1       1.694   9.116  18.802  0.00  0.00    +0.000 A 
ATOM      4  N   UNL     1       1.841  10.306  18.152  0.00  0.00    +0.000 NA
ATOM      5  N   UNL     1       0.979  11.165  18.673  0.00  0.00    +0.000 NA
ENDROOT
BRANCH   1  11
ATOM      6  C   UNL     1      -0.694  11.326  21.822  0.00  0.00    +0.000 A 
ATOM      7  C   UNL     1      -1.711  12.041  22.466  0.00  0.00    +0.000 A 
ATOM      8  C   UNL     1      -2.755  12.608  21.733  0.00  0.00    +0.000 A 
ATOM      9  C   UNL     1      -2.760  12.540  20.344  0.00  0.00    +0.000 A 
ATOM     10  C   UNL     1      -1.731  11.874  19.687  0.00  0.00    +0.000 A 
ATOM     11  C   UNL     1      -0.697  11.247  20.415  0.00  0.00    +0.000 A 
BRANCH   8  12
ATOM     12  C   UNL     1      -3.885  13.239  22.444  0.00  0.00    +0.000 C 
ATOM     13  N   UNL     1      -3.772  14.407  23.018  0.00  0.00    +0.000 NA
ATOM     14  C   UNL     1      -5.090  14.636  23.669  0.00  0.00    +0.000 C 
ATOM     15  C   UNL     1      -5.936  13.382  23.435  0.00  0.00    +0.000 C 
ATOM     16  N   UNL     1      -5.090  12.596  22.569  0.00  0.00    +0.000 N 
ATOM     17  H   UNL     1      -5.032  11.605  22.780  0.00  0.00    +0.000 HD
ENDBRANCH   8  12
BRANCH   6  19
ATOM     18  C   UNL     1      -0.029   9.567  23.266  0.00  0.00    +0.000 C 
ATOM     19  O   UNL     1       0.317  10.748  22.541  0.00  0.00    +0.000 OA
ENDBRANCH   6  19
ENDBRANCH   1  11
BRANCH   3  20
ATOM     20  C   UNL     1       2.496   7.940  18.537  0.00  0.00    +0.000 A 
ATOM     21  C   UNL     1       3.430   7.899  17.489  0.00  0.00    +0.000 A 
ATOM     22  C   UNL     1       4.154   6.735  17.223  0.00  0.00    +0.000 A 
ATOM     23  C   UNL     1       3.952   5.599  18.003  0.00  0.00    +0.000 A 
ATOM     24  C   UNL     1       3.042   5.638  19.061  0.00  0.00    +0.000 A 
ATOM     25  C   UNL     1       2.317   6.801  19.329  0.00  0.00    +0.000 A 
BRANCH  24  26
ATOM     26  C   UNL     1       2.834   4.442  19.902  0.00  0.00    +0.000 C 
ATOM     27  N   UNL     1       3.690   3.449  19.913  0.00  0.00    +0.000 NA
ATOM     28  C   UNL     1       3.086   2.470  20.860  0.00  0.00    +0.000 C 
ATOM     29  C   UNL     1       2.053   3.254  21.670  0.00  0.00    +0.000 C 
ATOM     30  N   UNL     1       1.755   4.326  20.750  0.00  0.00    +0.000 N 
ATOM     31  H   UNL     1       1.392   5.185  21.148  0.00  0.00    +0.000 HD
ENDBRANCH  24  26
ENDBRANCH   3  20
TORSDOF 5
ENDMDL
MODEL 3
REMARK VINA RESULT:      -7.9      1.157      1.954
REMARK  Name = 
REMARK  6 active torsions:
REMARK  status: ('A' for Active; 'I' for Inactive)
REMARK    1  A    between atoms: C_1  and  O_2
REMARK    2  A    between atoms: O_2  and  C_3
REMARK    3  A    between atoms: C_5  and  C_6
REMARK    4  A    between atoms: C_13  and  N_14
REMARK    5  A    between atoms: C_16  and  C_17
REMARK    6  A    between atoms: C_21  and  C_22
REMARK                            x       y       z     vdW  Elec       q    Type
REMARK                         _______ _______ _______ _____ _____    ______ ____
ROOT
ATOM      1  N   UNL     1       0.894  10.039  19.397  0.00  0.00    +0.000 N 
ATOM      2  C   UNL     1       1.318   8.734  19.326  0.00  0.00    +0.000 A 
ATOM      3  C   UNL     1       2.227   8.703  18.298  0.00  0.00    +0.000 A 
ATOM      4  N   UNL     1       2.314   9.945  17.739  0.00  0.00    +0.000 NA
ATOM      5  N   UNL     1       1.498  10.748  18.403  0.00  0.00    +0.000 NA
ENDROOT
BRANCH   1  11
ATOM      6  C   UNL     1      -0.980  11.614  19.870  0.00  0.00    +0.000 A 
ATOM      7  C   UNL     1      -1.835  12.180  20.824  0.00  0.00    +0.000 A 
ATOM      8  C   UNL     1      -1.695  11.868  22.177  0.00  0.00    +0.000 A 
ATOM      9  C   UNL     1      -0.755  10.929  22.592  0.00  0.00    +0.000 A 
ATOM     10  C   UNL     1       0.069  10.323  21.649  0.00  0.00    +0.000 A 
ATOM     11  C   UNL     1      -0.021  10.668  20.283  0.00  0.00    +0.000 A 
BRANCH   8  12
ATOM     12  C   UNL     1      -2.516  12.579  23.177  0.00  0.00    +0.000 C 
ATOM     13  N   UNL     1      -3.489  11.987  23.817  0.00  0.00    +0.000 NA
ATOM     14  C   UNL     1      -4.093  13.054  24.657  0.00  0.00    +0.000 C 
ATOM     15  C   UNL     1      -3.356  14.358  24.335  0.00  0.00    +0.000 C 
ATOM     16  N   UNL     1      -2.317  13.910  23.440  0.00  0.00    +0.000 N 
ATOM     17  H   UNL     1      -2.147  14.492  22.625  0.00  0.00    +0.000 HD
ENDBRANCH   8  12
BRANCH   6  19
ATOM     18  C   UNL     1      -2.161  11.294  17.839  0.00  0.00    +0.000 C 
ATOM     19  O   UNL     1      -1.101  11.938  18.546  0.00  0.00    +0.000 OA
ENDBRANCH   6  19
ENDBRANCH   1  11
BRANCH   3  20
ATOM     20  C   UNL     1       3.006   7.561  17.867  0.00  0.00    +0.000 A 
ATOM     21  C   UNL     1       4.176   7.706  17.105  0.00  0.00    +0.000 A 
ATOM     22  C   UNL     1       4.881   6.586  16.658  0.00  0.00    +0.000 A 
ATOM     23  C   UNL     1       4.423   5.309  16.972  0.00  0.00    +0.000 A 
ATOM     24  C   UNL     1       3.273   5.155  17.749  0.00  0.00    +0.000 A 
ATOM     25  C   UNL     1       2.567   6.274  18.196  0.00  0.00    +0.000 A 
BRANCH  24  26
ATOM     26  C   UNL     1       2.791   3.805  18.098  0.00  0.00    +0.000 C 
ATOM     27  N   UNL     1       3.619   2.828  18.381  0.00  0.00    +0.000 NA
ATOM     28  C   UNL     1       2.723   1.667  18.644  0.00  0.00    +0.000 C 
ATOM     29  C   UNL     1       1.336   2.259  18.899  0.00  0.00    +0.000 C 
ATOM     30  N   UNL     1       1.449   3.511  18.188  0.00  0.00    +0.000 N 
ATOM     31  H   UNL     1       0.834   4.262  18.481  0.00  0.00    +0.000 HD
ENDBRANCH  24  26
ENDBRANCH   3  20
TORSDOF 5
ENDMDL
MODEL 4
REMARK VINA RESULT:      -7.8      1.553      2.120
REMARK  Name = 
REMARK  6 active torsions:
REMARK  status: ('A' for Active; 'I' for Inactive)
REMARK    1  A    between atoms: C_1  and  O_2
REMARK    2  A    between atoms: O_2  and  C_3
REMARK    3  A    between atoms: C_5  and  C_6
REMARK    4  A    between atoms: C_13  and  N_14
REMARK    5  A    between atoms: C_16  and  C_17
REMARK    6  A    between atoms: C_21  and  C_22
REMARK                            x       y       z     vdW  Elec       q    Type
REMARK                         _______ _______ _______ _____ _____    ______ ____
ROOT
ATOM      1  N   UNL     1       0.932   9.835  19.399  0.00  0.00    +0.000 N 
ATOM      2  C   UNL     1       1.499   8.586  19.477  0.00  0.00    +0.000 A 
ATOM      3  C   UNL     1       2.312   8.488  18.375  0.00  0.00    +0.000 A 
ATOM      4  N   UNL     1       2.205   9.629  17.636  0.00  0.00    +0.000 NA
ATOM      5  N   UNL     1       1.360  10.438  18.256  0.00  0.00    +0.000 NA
ENDROOT
BRANCH   1  11
ATOM      6  C   UNL     1      -0.988  11.366  19.832  0.00  0.00    +0.000 A 
ATOM      7  C   UNL     1      -1.825  11.974  20.777  0.00  0.00    +0.000 A 
ATOM      8  C   UNL     1      -1.612  11.781  22.142  0.00  0.00    +0.000 A 
ATOM      9  C   UNL     1      -0.614  10.918  22.586  0.00  0.00    +0.000 A 
ATOM     10  C   UNL     1       0.194  10.271  21.658  0.00  0.00    +0.000 A 
ATOM     11  C   UNL     1       0.029  10.497  20.275  0.00  0.00    +0.000 A 
BRANCH   8  12
ATOM     12  C   UNL     1      -2.419  12.538  23.119  0.00  0.00    +0.000 C 
ATOM     13  N   UNL     1      -3.446  12.005  23.725  0.00  0.00    +0.000 NA
ATOM     14  C   UNL     1      -4.011  13.105  24.551  0.00  0.00    +0.000 C 
ATOM     15  C   UNL     1      -3.186  14.362  24.258  0.00  0.00    +0.000 C 
ATOM     16  N   UNL     1      -2.147  13.854  23.394  0.00  0.00    +0.000 N 
ATOM     17  H   UNL     1      -1.917  14.426  22.588  0.00  0.00    +0.000 HD
ENDBRANCH   8  12
BRANCH   6  19
ATOM     18  C   UNL     1      -2.229  10.817  17.888  0.00  0.00    +0.000 C 
ATOM     19  O   UNL     1      -1.181  11.574  18.493  0.00  0.00    +0.000 OA
ENDBRANCH   6  19
ENDBRANCH   1  11
BRANCH   3  20
ATOM     20  C   UNL     1       3.180   7.379  18.038  0.00  0.00    +0.000 A 
ATOM     21  C   UNL     1       3.990   7.392  16.892  0.00  0.00    +0.000 A 
ATOM     22  C   UNL     1       4.780   6.289  16.562  0.00  0.00    +0.000 A 
ATOM     23  C   UNL     1       4.767   5.159  17.377  0.00  0.00    +0.000 A 
ATOM     24  C   UNL     1       3.982   5.145  18.531  0.00  0.00    +0.000 A 
ATOM     25  C   UNL     1       3.191   6.248  18.862  0.00  0.00    +0.000 A 
BRANCH  24  26
ATOM     26  C   UNL     1       3.975   3.957  19.407  0.00  0.00    +0.000 C 
ATOM     27  N   UNL     1       2.956   3.681  20.186  0.00  0.00    +0.000 NA
ATOM     28  C   UNL     1       3.377   2.438  20.892  0.00  0.00    +0.000 C 
ATOM     29  C   UNL     1       4.531   1.861  20.071  0.00  0.00    +0.000 C 
ATOM     30  N   UNL     1       5.015   3.055  19.420  0.00  0.00    +0.000 N 
ATOM     31  H   UNL     1       5.523   2.931  18.551  0.00  0.00    +0.000 HD
ENDBRANCH  24  26
ENDBRANCH   3  20
TORSDOF 5
ENDMDL
MODEL 5
REMARK VINA RESULT:      -7.8      2.136      2.999
REMARK  Name = 
REMARK  6 active torsions:
REMARK  status: ('A' for Active; 'I' for Inactive)
REMARK    1  A    between atoms: C_1  and  O_2
REMARK    2  A    between atoms: O_2  and  C_3
REMARK    3  A    between atoms: C_5  and  C_6
REMARK    4  A    between atoms: C_13  and  N_14
REMARK    5  A    between atoms: C_16  and  C_17
REMARK    6  A    between atoms: C_21  and  C_22
REMARK                            x       y       z     vdW  Elec       q    Type
REMARK                         _______ _______ _______ _____ _____    ______ ____
ROOT
ATOM      1  N   UNL     1       1.161   9.536  18.816  0.00  0.00    +0.000 N 
ATOM      2  C   UNL     1       1.649   8.306  19.187  0.00  0.00    +0.000 A 
ATOM      3  C   UNL     1       2.585   7.986  18.236  0.00  0.00    +0.000 A 
ATOM      4  N   UNL     1       2.628   8.976  17.298  0.00  0.00    +0.000 NA
ATOM      5  N   UNL     1       1.756   9.908  17.649  0.00  0.00    +0.000 NA
ENDROOT
BRANCH   1  11
ATOM      6  C   UNL     1       0.224  10.722  20.799  0.00  0.00    +0.000 A 
ATOM      7  C   UNL     1      -0.782  11.550  21.314  0.00  0.00    +0.000 A 
ATOM      8  C   UNL     1      -1.842  11.965  20.507  0.00  0.00    +0.000 A 
ATOM      9  C   UNL     1      -1.876  11.630  19.157  0.00  0.00    +0.000 A 
ATOM     10  C   UNL     1      -0.859  10.848  18.621  0.00  0.00    +0.000 A 
ATOM     11  C   UNL     1       0.192  10.372  19.435  0.00  0.00    +0.000 A 
BRANCH   8  12
ATOM     12  C   UNL     1      -2.959  12.723  21.105  0.00  0.00    +0.000 C 
ATOM     13  N   UNL     1      -3.537  12.340  22.213  0.00  0.00    +0.000 NA
ATOM     14  C   UNL     1      -4.637  13.318  22.423  0.00  0.00    +0.000 C 
ATOM     15  C   UNL     1      -4.636  14.267  21.221  0.00  0.00    +0.000 C 
ATOM     16  N   UNL     1      -3.467  13.839  20.491  0.00  0.00    +0.000 N 
ATOM     17  H   UNL     1      -3.570  13.770  19.484  0.00  0.00    +0.000 HD
ENDBRANCH   8  12
BRANCH   6  19
ATOM     18  C   UNL     1       0.902   9.352  22.611  0.00  0.00    +0.000 C 
ATOM     19  O   UNL     1       1.251  10.293  21.596  0.00  0.00    +0.000 OA
ENDBRANCH   6  19
ENDBRANCH   1  11
BRANCH   3  20
ATOM     20  C   UNL     1       3.430   6.810  18.216  0.00  0.00    +0.000 A 
ATOM     21  C   UNL     1       3.560   5.972  19.334  0.00  0.00    +0.000 A 
ATOM     22  C   UNL     1       4.421   4.873  19.307  0.00  0.00    +0.000 A 
ATOM     23  C   UNL     1       5.161   4.600  18.158  0.00  0.00    +0.000 A 
ATOM     24  C   UNL     1       5.021   5.416  17.034  0.00  0.00    +0.000 A 
ATOM     25  C   UNL     1       4.160   6.515  17.060  0.00  0.00    +0.000 A 
BRANCH  24  26
ATOM     26  C   UNL     1       5.790   5.125  15.808  0.00  0.00    +0.000 C 
ATOM     27  N   UNL     1       7.014   5.568  15.640  0.00  0.00    +0.000 NA
ATOM     28  C   UNL     1       7.389   5.069  14.287  0.00  0.00    +0.000 C 
ATOM     29  C   UNL     1       6.396   3.953  13.963  0.00  0.00    +0.000 C 
ATOM     30  N   UNL     1       5.284   4.337  14.799  0.00  0.00    +0.000 N 
ATOM     31  H   UNL     1       4.638   3.604  15.071  0.00  0.00    +0.000 HD
ENDBRANCH  24  26
ENDBRANCH   3  20
TORSDOF 5
ENDMDL
MODEL 6
REMARK VINA RESULT:      -7.8      2.225      3.213
REMARK  Name = 
REMARK  6 active torsions:
REMARK  status: ('A' for Active; 'I' for Inactive)
REMARK    1  A    between atoms: C_1  and  O_2
REMARK    2  A    between atoms: O_2  and  C_3
REMARK    3  A    between atoms: C_5  and  C_6
REMARK    4  A    between atoms: C_13  and  N_14
REMARK    5  A    between atoms: C_16  and  C_17
REMARK    6  A    between atoms: C_21  and  C_22
REMARK                            x       y       z     vdW  Elec       q    Type
REMARK                         _______ _______ _______ _____ _____    ______ ____
ROOT
ATOM      1  N   UNL     1       0.935   9.535  20.446  0.00  0.00    +0.000 N 
ATOM      2  C   UNL     1       1.278   8.274  20.871  0.00  0.00    +0.000 A 
ATOM      3  C   UNL     1       1.879   7.678  19.790  0.00  0.00    +0.000 A 
ATOM      4  N   UNL     1       1.859   8.541  18.734  0.00  0.00    +0.000 NA
ATOM      5  N   UNL     1       1.278   9.662  19.134  0.00  0.00    +0.000 NA
ENDROOT
BRANCH   1  11
ATOM      6  C   UNL     1       0.627  11.963  20.922  0.00  0.00    +0.000 A 
ATOM      7  C   UNL     1      -0.044  12.946  21.662  0.00  0.00    +0.000 A 
ATOM      8  C   UNL     1      -0.959  12.588  22.653  0.00  0.00    +0.000 A 
ATOM      9  C   UNL     1      -1.281  11.251  22.868  0.00  0.00    +0.000 A 
ATOM     10  C   UNL     1      -0.658  10.267  22.108  0.00  0.00    +0.000 A 
ATOM     11  C   UNL     1       0.311  10.607  21.140  0.00  0.00    +0.000 A 
BRANCH   8  12
ATOM     12  C   UNL     1      -1.550  13.634  23.510  0.00  0.00    +0.000 C 
ATOM     13  N   UNL     1      -2.782  13.560  23.939  0.00  0.00    +0.000 NA
ATOM     14  C   UNL     1      -2.997  14.824  24.692  0.00  0.00    +0.000 C 
ATOM     15  C   UNL     1      -1.718  15.656  24.557  0.00  0.00    +0.000 C 
ATOM     16  N   UNL     1      -0.837  14.755  23.853  0.00  0.00    +0.000 N 
ATOM     17  H   UNL     1      -0.286  15.163  23.105  0.00  0.00    +0.000 HD
ENDBRANCH   8  12
BRANCH   6  19
ATOM     18  C   UNL     1       2.372  13.432  20.278  0.00  0.00    +0.000 C 
ATOM     19  O   UNL     1       1.543  12.312  19.968  0.00  0.00    +0.000 OA
ENDBRANCH   6  19
ENDBRANCH   1  11
BRANCH   3  20
ATOM     20  C   UNL     1       2.474   6.358  19.750  0.00  0.00    +0.000 A 
ATOM     21  C   UNL     1       1.987   5.301  20.534  0.00  0.00    +0.000 A 
ATOM     22  C   UNL     1       2.611   4.052  20.516  0.00  0.00    +0.000 A 
ATOM     23  C   UNL     1       3.730   3.848  19.712  0.00  0.00    +0.000 A 
ATOM     24  C   UNL     1       4.209   4.888  18.913  0.00  0.00    +0.000 A 
ATOM     25  C   UNL     1       3.586   6.137  18.930  0.00  0.00    +0.000 A 
BRANCH  24  26
ATOM     26  C   UNL     1       5.386   4.674  18.048  0.00  0.00    +0.000 C 
ATOM     27  N   UNL     1       5.345   4.909  16.758  0.00  0.00    +0.000 NA
ATOM     28  C   UNL     1       6.711   4.545  16.287  0.00  0.00    +0.000 C 
ATOM     29  C   UNL     1       7.591   4.519  17.538  0.00  0.00    +0.000 C 
ATOM     30  N   UNL     1       6.597   4.261  18.554  0.00  0.00    +0.000 N 
ATOM     31  H   UNL     1       6.821   4.552  19.499  0.00  0.00    +0.000 HD
ENDBRANCH  24  26
ENDBRANCH   3  20
TORSDOF 5
ENDMDL
MODEL 7
REMARK VINA RESULT:      -7.8      2.189      3.167
REMARK  Name = 
REMARK  6 active torsions:
REMARK  status: ('A' for Active; 'I' for Inactive)
REMARK    1  A    between atoms: C_1  and  O_2
REMARK    2  A    between atoms: O_2  and  C_3
REMARK    3  A    between atoms: C_5  and  C_6
REMARK    4  A    between atoms: C_13  and  N_14
REMARK    5  A    between atoms: C_16  and  C_17
REMARK    6  A    between atoms: C_21  and  C_22
REMARK                            x       y       z     vdW  Elec       q    Type
REMARK                         _______ _______ _______ _____ _____    ______ ____
ROOT
ATOM      1  N   UNL     1      -0.279  10.881  22.282  0.00  0.00    +0.000 N 
ATOM      2  C   UNL     1       0.058  10.347  21.062  0.00  0.00    +0.000 A 
ATOM      3  C   UNL     1       0.866   9.274  21.346  0.00  0.00    +0.000 A 
ATOM      4  N   UNL     1       1.043   9.193  22.696  0.00  0.00    +0.000 NA
ATOM      5  N   UNL     1       0.355  10.174  23.258  0.00  0.00    +0.000 NA
ENDROOT
BRANCH   1  11
ATOM      6  C   UNL     1      -0.706  13.329  22.497  0.00  0.00    +0.000 A 
ATOM      7  C   UNL     1      -1.603  14.345  22.852  0.00  0.00    +0.000 A 
ATOM      8  C   UNL     1      -2.857  14.033  23.378  0.00  0.00    +0.000 A 
ATOM      9  C   UNL     1      -3.268  12.708  23.486  0.00  0.00    +0.000 A 
ATOM     10  C   UNL     1      -2.406  11.690  23.094  0.00  0.00    +0.000 A 
ATOM     11  C   UNL     1      -1.113  11.984  22.611  0.00  0.00    +0.000 A 
BRANCH   8  12
ATOM     12  C   UNL     1      -3.729  15.117  23.870  0.00  0.00    +0.000 C 
ATOM     13  N   UNL     1      -3.321  15.980  24.761  0.00  0.00    +0.000 NA
ATOM     14  C   UNL     1      -4.506  16.838  25.029  0.00  0.00    +0.000 C 
ATOM     15  C   UNL     1      -5.668  16.276  24.204  0.00  0.00    +0.000 C 
ATOM     16  N   UNL     1      -5.028  15.231  23.442  0.00  0.00    +0.000 N 
ATOM     17  H   UNL     1      -5.537  14.357  23.367  0.00  0.00    +0.000 HD
ENDBRANCH   8  12
BRANCH   6  19
ATOM     18  C   UNL     1       0.575  14.069  20.645  0.00  0.00    +0.000 C 
ATOM     19  O   UNL     1       0.534  13.632  22.004  0.00  0.00    +0.000 OA
ENDBRANCH   6  19
ENDBRANCH   1  11
BRANCH   3  20
ATOM     20  C   UNL     1       1.432   8.342  20.393  0.00  0.00    +0.000 A 
ATOM     21  C   UNL     1       1.834   8.746  19.110  0.00  0.00    +0.000 A 
ATOM     22  C   UNL     1       2.329   7.817  18.192  0.00  0.00    +0.000 A 
ATOM     23  C   UNL     1       2.428   6.475  18.549  0.00  0.00    +0.000 A 
ATOM     24  C   UNL     1       2.053   6.069  19.831  0.00  0.00    +0.000 A 
ATOM     25  C   UNL     1       1.557   6.996  20.750  0.00  0.00    +0.000 A 
BRANCH  24  26
ATOM     26  C   UNL     1       2.169   4.650  20.221  0.00  0.00    +0.000 C 
ATOM     27  N   UNL     1       2.263   4.286  21.478  0.00  0.00    +0.000 NA
ATOM     28  C   UNL     1       2.383   2.802  21.410  0.00  0.00    +0.000 C 
ATOM     29  C   UNL     1       1.896   2.407  20.015  0.00  0.00    +0.000 C 
ATOM     30  N   UNL     1       2.141   3.633  19.293  0.00  0.00    +0.000 N 
ATOM     31  H   UNL     1       1.590   3.793  18.457  0.00  0.00    +0.000 HD
ENDBRANCH  24  26
ENDBRANCH   3  20
TORSDOF 5
ENDMDL
MODEL 8
REMARK VINA RESULT:      -7.8      3.365      4.470
REMARK  Name = 
REMARK  6 active torsions:
REMARK  status: ('A' for Active; 'I' for Inactive)
REMARK    1  A    between atoms: C_1  and  O_2
REMARK    2  A    between atoms: O_2  and  C_3
REMARK    3  A    between atoms: C_5  and  C_6
REMARK    4  A    between atoms: C_13  and  N_14
REMARK    5  A    between atoms: C_16  and  C_17
REMARK    6  A    between atoms: C_21  and  C_22
REMARK                            x       y       z     vdW  Elec       q    Type
REMARK                         _______ _______ _______ _____ _____    ______ ____
ROOT
ATOM      1  N   UNL     1       1.052   9.603  20.169  0.00  0.00    +0.000 N 
ATOM      2  C   UNL     1       1.838   8.664  19.544  0.00  0.00    +0.000 A 
ATOM      3  C   UNL     1       1.697   7.520  20.290  0.00  0.00    +0.000 A 
ATOM      4  N   UNL     1       0.885   7.776  21.355  0.00  0.00    +0.000 NA
ATOM      5  N   UNL     1       0.504   9.042  21.282  0.00  0.00    +0.000 NA
ENDROOT
BRANCH   1  11
ATOM      6  C   UNL     1      -0.107  11.347  18.815  0.00  0.00    +0.000 A 
ATOM      7  C   UNL     1      -0.296  12.711  18.559  0.00  0.00    +0.000 A 
ATOM      8  C   UNL     1       0.442  13.673  19.251  0.00  0.00    +0.000 A 
ATOM      9  C   UNL     1       1.320  13.296  20.262  0.00  0.00    +0.000 A 
ATOM     10  C   UNL     1       1.483  11.947  20.560  0.00  0.00    +0.000 A 
ATOM     11  C   UNL     1       0.787  10.958  19.833  0.00  0.00    +0.000 A 
BRANCH   8  12
ATOM     12  C   UNL     1       0.325  15.094  18.869  0.00  0.00    +0.000 C 
ATOM     13  N   UNL     1       1.376  15.855  18.715  0.00  0.00    +0.000 NA
ATOM     14  C   UNL     1       0.825  17.202  18.410  0.00  0.00    +0.000 C 
ATOM     15  C   UNL     1      -0.701  17.097  18.490  0.00  0.00    +0.000 C 
ATOM     16  N   UNL     1      -0.902  15.685  18.706  0.00  0.00    +0.000 N 
ATOM     17  H   UNL     1      -1.599  15.434  19.400  0.00  0.00    +0.000 HD
ENDBRANCH   8  12
BRANCH   6  19
ATOM     18  C   UNL     1      -2.178  10.716  17.849  0.00  0.00    +0.000 C 
ATOM     19  O   UNL     1      -0.811  10.402  18.120  0.00  0.00    +0.000 OA
ENDBRANCH   6  19
ENDBRANCH   1  11
BRANCH   3  20
ATOM     20  C   UNL     1       2.280   6.225  20.004  0.00  0.00    +0.000 A 
ATOM     21  C   UNL     1       1.755   5.040  20.543  0.00  0.00    +0.000 A 
ATOM     22  C   UNL     1       2.366   3.810  20.294  0.00  0.00    +0.000 A 
ATOM     23  C   UNL     1       3.510   3.753  19.501  0.00  0.00    +0.000 A 
ATOM     24  C   UNL     1       4.027   4.923  18.943  0.00  0.00    +0.000 A 
ATOM     25  C   UNL     1       3.416   6.155  19.192  0.00  0.00    +0.000 A 
BRANCH  24  26
ATOM     26  C   UNL     1       5.230   4.868  18.090  0.00  0.00    +0.000 C 
ATOM     27  N   UNL     1       5.322   5.563  16.980  0.00  0.00    +0.000 NA
ATOM     28  C   UNL     1       6.662   5.196  16.441  0.00  0.00    +0.000 C 
ATOM     29  C   UNL     1       7.429   4.581  17.613  0.00  0.00    +0.000 C 
ATOM     30  N   UNL     1       6.334   4.122  18.434  0.00  0.00    +0.000 N 
ATOM     31  H   UNL     1       6.519   4.008  19.424  0.00  0.00    +0.000 HD
ENDBRANCH  24  26
ENDBRANCH   3  20
TORSDOF 5
ENDMDL
MODEL 9
REMARK VINA RESULT:      -7.8      2.431      3.621
REMARK  Name = 
REMARK  6 active torsions:
REMARK  status: ('A' for Active; 'I' for Inactive)
REMARK    1  A    between atoms: C_1  and  O_2
REMARK    2  A    between atoms: O_2  and  C_3
REMARK    3  A    between atoms: C_5  and  C_6
REMARK    4  A    between atoms: C_13  and  N_14
REMARK    5  A    between atoms: C_16  and  C_17
REMARK    6  A    between atoms: C_21  and  C_22
REMARK                            x       y       z     vdW  Elec       q    Type
REMARK                         _______ _______ _______ _____ _____    ______ ____
ROOT
ATOM      1  N   UNL     1       1.335   9.252  18.977  0.00  0.00    +0.000 N 
ATOM      2  C   UNL     1       1.908   8.049  19.315  0.00  0.00    +0.000 A 
ATOM      3  C   UNL     1       2.733   7.733  18.265  0.00  0.00    +0.000 A 
ATOM      4  N   UNL     1       2.627   8.697  17.305  0.00  0.00    +0.000 NA
ATOM      5  N   UNL     1       1.772   9.610  17.738  0.00  0.00    +0.000 NA
ENDROOT
BRANCH   1  11
ATOM      6  C   UNL     1      -0.768  10.583  19.128  0.00  0.00    +0.000 A 
ATOM      7  C   UNL     1      -1.602  11.388  19.914  0.00  0.00    +0.000 A 
ATOM      8  C   UNL     1      -1.231  11.743  21.212  0.00  0.00    +0.000 A 
ATOM      9  C   UNL     1      -0.063  11.237  21.775  0.00  0.00    +0.000 A 
ATOM     10  C   UNL     1       0.752  10.398  21.023  0.00  0.00    +0.000 A 
ATOM     11  C   UNL     1       0.420  10.073  19.689  0.00  0.00    +0.000 A 
BRANCH   8  12
ATOM     12  C   UNL     1      -2.059  12.701  21.970  0.00  0.00    +0.000 C 
ATOM     13  N   UNL     1      -2.243  13.927  21.561  0.00  0.00    +0.000 NA
ATOM     14  C   UNL     1      -3.058  14.564  22.629  0.00  0.00    +0.000 C 
ATOM     15  C   UNL     1      -3.242  13.525  23.739  0.00  0.00    +0.000 C 
ATOM     16  N   UNL     1      -2.632  12.350  23.166  0.00  0.00    +0.000 N 
ATOM     17  H   UNL     1      -2.040  11.806  23.786  0.00  0.00    +0.000 HD
ENDBRANCH   8  12
BRANCH   6  19
ATOM     18  C   UNL     1      -2.103  11.091  17.236  0.00  0.00    +0.000 C 
ATOM     19  O   UNL     1      -1.119  10.255  17.847  0.00  0.00    +0.000 OA
ENDBRANCH   6  19
ENDBRANCH   1  11
BRANCH   3  20
ATOM     20  C   UNL     1       3.611   6.585  18.171  0.00  0.00    +0.000 A 
ATOM     21  C   UNL     1       3.829   5.727  19.260  0.00  0.00    +0.000 A 
ATOM     22  C   UNL     1       4.720   4.656  19.159  0.00  0.00    +0.000 A 
ATOM     23  C   UNL     1       5.401   4.432  17.964  0.00  0.00    +0.000 A 
ATOM     24  C   UNL     1       5.173   5.267  16.869  0.00  0.00    +0.000 A 
ATOM     25  C   UNL     1       4.283   6.338  16.969  0.00  0.00    +0.000 A 
BRANCH  24  26
ATOM     26  C   UNL     1       5.880   5.026  15.596  0.00  0.00    +0.000 C 
ATOM     27  N   UNL     1       7.100   5.463  15.391  0.00  0.00    +0.000 NA
ATOM     28  C   UNL     1       7.404   5.026  13.999  0.00  0.00    +0.000 C 
ATOM     29  C   UNL     1       6.382   3.937  13.670  0.00  0.00    +0.000 C 
ATOM     30  N   UNL     1       5.316   4.294  14.575  0.00  0.00    +0.000 N 
ATOM     31  H   UNL     1       4.674   3.556  14.843  0.00  0.00    +0.000 HD
ENDBRANCH  24  26
ENDBRANCH   3  20
TORSDOF 5
ENDMDL
