MODEL 1
REMARK VINA RESULT:      -8.6      0.000      0.000
REMARK  Name = 
REMARK  7 active torsions:
REMARK  status: ('A' for Active; 'I' for Inactive)
REMARK    1  A    between atoms: C_1  and  O_2
REMARK    2  A    between atoms: O_2  and  C_3
REMARK    3  A    between atoms: C_3  and  C_5
REMARK    4  A    between atoms: C_10  and  C_11
REMARK    5  A    between atoms: C_12  and  N_13
REMARK    6  A    between atoms: N_13  and  C_14
REMARK    7  A    between atoms: C_17  and  N_18
REMARK                            x       y       z     vdW  Elec       q    Type
REMARK                         _______ _______ _______ _____ _____    ______ ____
ROOT
ATOM      1  C   UNL     1       4.460   5.564  17.129  0.00  0.00    +0.000 A 
ATOM      2  C   UNL     1       3.909   4.346  16.875  0.00  0.00    +0.000 A 
ATOM      3  C   UNL     1       4.674   3.408  16.053  0.00  0.00    +0.000 A 
ATOM      4  C   UNL     1       5.849   3.740  15.500  0.00  0.00    +0.000 A 
ATOM      5  N   UNL     1       6.379   4.973  15.713  0.00  0.00    +0.000 N 
ATOM      6  C   UNL     1       5.786   5.936  16.498  0.00  0.00    +0.000 A 
ATOM      7  O   UNL     1       6.353   7.007  16.678  0.00  0.00    +0.000 OA
ATOM      8  H   UNL     1       7.265   5.240  15.294  0.00  0.00    +0.000 HD
ENDROOT
BRANCH   1  14
ATOM      9  C   UNL     1       0.927   9.034  20.443  0.00  0.00    +0.000 C 
ATOM     10  C   UNL     1       0.532   9.495  19.011  0.00  0.00    +0.000 C 
ATOM     11  C   UNL     1       1.717   9.502  18.014  0.00  0.00    +0.000 C 
ATOM     12  C   UNL     1       2.584   8.323  18.256  0.00  0.00    +0.000 A 
ATOM     13  N   UNL     1       3.523   7.766  17.427  0.00  0.00    +0.000 N 
ATOM     14  C   UNL     1       3.890   6.548  17.979  0.00  0.00    +0.000 A 
ATOM     15  N   UNL     1       3.385   6.429  19.199  0.00  0.00    +0.000 NA
ATOM     16  C   UNL     1       2.531   7.486  19.342  0.00  0.00    +0.000 A 
ATOM     17  C   UNL     1       1.531   7.614  20.430  0.00  0.00    +0.000 C 
ATOM     18  H   UNL     1       3.777   8.089  16.504  0.00  0.00    +0.000 HD
BRANCH   9  19
ATOM     19  C   UNL     1      -0.269   9.071  21.375  0.00  0.00    +0.000 C 
ATOM     20  O   UNL     1      -0.796   8.091  21.883  0.00  0.00    +0.000 OA
BRANCH  19  22
ATOM     21  C   UNL     1      -0.783  10.801  22.878  0.00  0.00    +0.000 C 
ATOM     22  O   UNL     1      -0.717  10.352  21.522  0.00  0.00    +0.000 OA
ENDBRANCH  19  22
ENDBRANCH   9  19
ENDBRANCH   1  14
BRANCH   2  23
ATOM     23  N   UNL     1       2.674   3.859  17.338  0.00  0.00    +0.000 N 
ATOM     24  H   UNL     1       2.167   4.555  17.880  0.00  0.00    +0.000 HD
BRANCH  23  25
ATOM     25  C   UNL     1       2.544   2.516  17.949  0.00  0.00    +0.000 C 
ATOM     26  C   UNL     1       3.711   2.201  18.907  0.00  0.00    +0.000 C 
ATOM     27  C   UNL     1       3.610   2.883  20.271  0.00  0.00    +0.000 C 
ATOM     28  C   UNL     1       2.276   2.561  20.944  0.00  0.00    +0.000 C 
ATOM     29  C   UNL     1       1.119   3.022  20.054  0.00  0.00    +0.000 C 
ATOM     30  C   UNL     1       1.183   2.393  18.655  0.00  0.00    +0.000 C 
BRANCH  28  31
ATOM     31  N   UNL     1       2.207   3.200  22.258  0.00  0.00    +0.000 NA
ATOM     32  H   UNL     1       2.360   4.204  22.172  0.00  0.00    +0.000 HD
ATOM     33  H   UNL     1       2.966   2.852  22.846  0.00  0.00    +0.000 HD
ENDBRANCH  28  31
ENDBRANCH  23  25
ENDBRANCH   2  23
TORSDOF 6
ENDMDL
MODEL 2
REMARK VINA RESULT:      -8.2      2.160      4.282
REMARK  Name = 
REMARK  7 active torsions:
REMARK  status: ('A' for Active; 'I' for Inactive)
REMARK    1  A    between atoms: C_1  and  O_2
REMARK    2  A    between atoms: O_2  and  C_3
REMARK    3  A    between atoms: C_3  and  C_5
REMARK    4  A    between atoms: C_10  and  C_11
REMARK    5  A    between atoms: C_12  and  N_13
REMARK    6  A    between atoms: N_13  and  C_14
REMARK    7  A    between atoms: C_17  and  N_18
REMARK                            x       y       z     vdW  Elec       q    Type
REMARK                         _______ _______ _______ _____ _____    ______ ____
ROOT
ATOM      1  C   UNL     1       3.085   4.336  19.052  0.00  0.00    +0.000 A 
ATOM      2  C   UNL     1       4.297   3.744  18.872  0.00  0.00    +0.000 A 
ATOM      3  C   UNL     1       4.316   2.335  18.479  0.00  0.00    +0.000 A 
ATOM      4  C   UNL     1       3.194   1.612  18.361  0.00  0.00    +0.000 A 
ATOM      5  N   UNL     1       1.984   2.190  18.588  0.00  0.00    +0.000 N 
ATOM      6  C   UNL     1       1.820   3.515  18.923  0.00  0.00    +0.000 A 
ATOM      7  O   UNL     1       0.691   3.970  19.064  0.00  0.00    +0.000 OA
ATOM      8  H   UNL     1       1.126   1.652  18.510  0.00  0.00    +0.000 HD
ENDROOT
BRANCH   1  14
ATOM      9  C   UNL     1       0.981   9.793  20.193  0.00  0.00    +0.000 C 
ATOM     10  C   UNL     1       0.707   9.686  18.667  0.00  0.00    +0.000 C 
ATOM     11  C   UNL     1       1.795   8.899  17.896  0.00  0.00    +0.000 C 
ATOM     12  C   UNL     1       2.242   7.737  18.704  0.00  0.00    +0.000 A 
ATOM     13  N   UNL     1       2.922   6.620  18.295  0.00  0.00    +0.000 N 
ATOM     14  C   UNL     1       2.894   5.713  19.344  0.00  0.00    +0.000 A 
ATOM     15  N   UNL     1       2.420   6.293  20.437  0.00  0.00    +0.000 NA
ATOM     16  C   UNL     1       1.959   7.513  20.028  0.00  0.00    +0.000 A 
ATOM     17  C   UNL     1       1.092   8.398  20.844  0.00  0.00    +0.000 C 
ATOM     18  H   UNL     1       3.234   6.417  17.355  0.00  0.00    +0.000 HD
BRANCH   9  19
ATOM     19  C   UNL     1      -0.107  10.593  20.886  0.00  0.00    +0.000 C 
ATOM     20  O   UNL     1      -1.085  11.078  20.333  0.00  0.00    +0.000 OA
BRANCH  19  22
ATOM     21  C   UNL     1      -0.889  10.429  23.095  0.00  0.00    +0.000 C 
ATOM     22  O   UNL     1       0.188  10.748  22.209  0.00  0.00    +0.000 OA
ENDBRANCH  19  22
ENDBRANCH   9  19
ENDBRANCH   1  14
BRANCH   2  23
ATOM     23  N   UNL     1       5.563   4.343  18.997  0.00  0.00    +0.000 N 
ATOM     24  H   UNL     1       5.527   5.205  19.536  0.00  0.00    +0.000 HD
BRANCH  23  25
ATOM     25  C   UNL     1       6.479   4.479  17.842  0.00  0.00    +0.000 C 
ATOM     26  C   UNL     1       5.921   5.436  16.770  0.00  0.00    +0.000 C 
ATOM     27  C   UNL     1       6.059   6.919  17.115  0.00  0.00    +0.000 C 
ATOM     28  C   UNL     1       7.512   7.273  17.429  0.00  0.00    +0.000 C 
ATOM     29  C   UNL     1       8.011   6.426  18.602  0.00  0.00    +0.000 C 
ATOM     30  C   UNL     1       7.870   4.923  18.328  0.00  0.00    +0.000 C 
BRANCH  28  31
ATOM     31  N   UNL     1       7.629   8.700  17.730  0.00  0.00    +0.000 NA
ATOM     32  H   UNL     1       7.211   8.906  18.636  0.00  0.00    +0.000 HD
ATOM     33  H   UNL     1       7.093   9.237  17.048  0.00  0.00    +0.000 HD
ENDBRANCH  28  31
ENDBRANCH  23  25
ENDBRANCH   2  23
TORSDOF 6
ENDMDL
MODEL 3
REMARK VINA RESULT:      -8.0      2.211      4.438
REMARK  Name = 
REMARK  7 active torsions:
REMARK  status: ('A' for Active; 'I' for Inactive)
REMARK    1  A    between atoms: C_1  and  O_2
REMARK    2  A    between atoms: O_2  and  C_3
REMARK    3  A    between atoms: C_3  and  C_5
REMARK    4  A    between atoms: C_10  and  C_11
REMARK    5  A    between atoms: C_12  and  N_13
REMARK    6  A    between atoms: N_13  and  C_14
REMARK    7  A    between atoms: C_17  and  N_18
REMARK                            x       y       z     vdW  Elec       q    Type
REMARK                         _______ _______ _______ _____ _____    ______ ____
ROOT
ATOM      1  C   UNL     1       3.014   4.475  19.463  0.00  0.00    +0.000 A 
ATOM      2  C   UNL     1       4.233   3.914  19.241  0.00  0.00    +0.000 A 
ATOM      3  C   UNL     1       4.284   2.480  18.952  0.00  0.00    +0.000 A 
ATOM      4  C   UNL     1       3.186   1.712  18.968  0.00  0.00    +0.000 A 
ATOM      5  N   UNL     1       1.973   2.261  19.237  0.00  0.00    +0.000 N 
ATOM      6  C   UNL     1       1.777   3.601  19.484  0.00  0.00    +0.000 A 
ATOM      7  O   UNL     1       0.642   4.026  19.670  0.00  0.00    +0.000 OA
ATOM      8  H   UNL     1       1.134   1.688  19.259  0.00  0.00    +0.000 HD
ENDROOT
BRANCH   1  14
ATOM      9  C   UNL     1       0.771   9.952  20.156  0.00  0.00    +0.000 C 
ATOM     10  C   UNL     1       0.606   9.759  18.622  0.00  0.00    +0.000 C 
ATOM     11  C   UNL     1       1.755   8.949  17.973  0.00  0.00    +0.000 C 
ATOM     12  C   UNL     1       2.157   7.839  18.872  0.00  0.00    +0.000 A 
ATOM     13  N   UNL     1       2.878   6.712  18.572  0.00  0.00    +0.000 N 
ATOM     14  C   UNL     1       2.787   5.862  19.665  0.00  0.00    +0.000 A 
ATOM     15  N   UNL     1       2.230   6.493  20.689  0.00  0.00    +0.000 NA
ATOM     16  C   UNL     1       1.785   7.682  20.183  0.00  0.00    +0.000 A 
ATOM     17  C   UNL     1       0.853   8.595  20.888  0.00  0.00    +0.000 C 
ATOM     18  H   UNL     1       3.257   6.464  17.669  0.00  0.00    +0.000 HD
BRANCH   9  19
ATOM     19  C   UNL     1      -0.372  10.771  20.727  0.00  0.00    +0.000 C 
ATOM     20  O   UNL     1      -0.514  11.054  21.908  0.00  0.00    +0.000 OA
BRANCH  19  22
ATOM     21  C   UNL     1      -1.659  12.472  19.746  0.00  0.00    +0.000 C 
ATOM     22  O   UNL     1      -1.257  11.100  19.742  0.00  0.00    +0.000 OA
ENDBRANCH  19  22
ENDBRANCH   9  19
ENDBRANCH   1  14
BRANCH   2  23
ATOM     23  N   UNL     1       5.480   4.565  19.232  0.00  0.00    +0.000 N 
ATOM     24  H   UNL     1       5.427   5.497  19.637  0.00  0.00    +0.000 HD
BRANCH  23  25
ATOM     25  C   UNL     1       6.356   4.556  18.039  0.00  0.00    +0.000 C 
ATOM     26  C   UNL     1       5.796   5.435  16.902  0.00  0.00    +0.000 C 
ATOM     27  C   UNL     1       6.004   6.936  17.103  0.00  0.00    +0.000 C 
ATOM     28  C   UNL     1       7.481   7.255  17.333  0.00  0.00    +0.000 C 
ATOM     29  C   UNL     1       7.991   6.498  18.562  0.00  0.00    +0.000 C 
ATOM     30  C   UNL     1       7.780   4.983  18.434  0.00  0.00    +0.000 C 
BRANCH  28  31
ATOM     31  N   UNL     1       7.665   8.696  17.496  0.00  0.00    +0.000 NA
ATOM     32  H   UNL     1       8.512   9.002  17.020  0.00  0.00    +0.000 HD
ATOM     33  H   UNL     1       7.808   8.912  18.483  0.00  0.00    +0.000 HD
ENDBRANCH  28  31
ENDBRANCH  23  25
ENDBRANCH   2  23
TORSDOF 6
ENDMDL
MODEL 4
REMARK VINA RESULT:      -7.8      1.045      1.207
REMARK  Name = 
REMARK  7 active torsions:
REMARK  status: ('A' for Active; 'I' for Inactive)
REMARK    1  A    between atoms: C_1  and  O_2
REMARK    2  A    between atoms: O_2  and  C_3
REMARK    3  A    between atoms: C_3  and  C_5
REMARK    4  A    between atoms: C_10  and  C_11
REMARK    5  A    between atoms: C_12  and  N_13
REMARK    6  A    between atoms: N_13  and  C_14
REMARK    7  A    between atoms: C_17  and  N_18
REMARK                            x       y       z     vdW  Elec       q    Type
REMARK                         _______ _______ _______ _____ _____    ______ ____
ROOT
ATOM      1  C   UNL     1       4.880   5.514  16.759  0.00  0.00    +0.000 A 
ATOM      2  C   UNL     1       5.120   4.202  17.024  0.00  0.00    +0.000 A 
ATOM      3  C   UNL     1       5.836   3.421  16.014  0.00  0.00    +0.000 A 
ATOM      4  C   UNL     1       6.192   3.941  14.832  0.00  0.00    +0.000 A 
ATOM      5  N   UNL     1       5.910   5.240  14.546  0.00  0.00    +0.000 N 
ATOM      6  C   UNL     1       5.280   6.097  15.420  0.00  0.00    +0.000 A 
ATOM      7  O   UNL     1       5.106   7.268  15.103  0.00  0.00    +0.000 OA
ATOM      8  H   UNL     1       6.168   5.645  13.650  0.00  0.00    +0.000 HD
ENDROOT
BRANCH   1  14
ATOM      9  C   UNL     1       1.238   8.712  20.225  0.00  0.00    +0.000 C 
ATOM     10  C   UNL     1       0.894   9.292  18.824  0.00  0.00    +0.000 C 
ATOM     11  C   UNL     1       2.113   9.377  17.874  0.00  0.00    +0.000 C 
ATOM     12  C   UNL     1       2.969   8.178  18.046  0.00  0.00    +0.000 A 
ATOM     13  N   UNL     1       3.937   7.688  17.208  0.00  0.00    +0.000 N 
ATOM     14  C   UNL     1       4.282   6.426  17.669  0.00  0.00    +0.000 A 
ATOM     15  N   UNL     1       3.734   6.208  18.856  0.00  0.00    +0.000 NA
ATOM     16  C   UNL     1       2.877   7.254  19.056  0.00  0.00    +0.000 A 
ATOM     17  C   UNL     1       1.839   7.295  20.115  0.00  0.00    +0.000 C 
ATOM     18  H   UNL     1       4.223   8.086  16.324  0.00  0.00    +0.000 HD
BRANCH   9  19
ATOM     19  C   UNL     1       0.008   8.676  21.115  0.00  0.00    +0.000 C 
ATOM     20  O   UNL     1      -0.489   7.664  21.588  0.00  0.00    +0.000 OA
BRANCH  19  22
ATOM     21  C   UNL     1      -0.388  10.460  22.590  0.00  0.00    +0.000 C 
ATOM     22  O   UNL     1      -0.504   9.932  21.266  0.00  0.00    +0.000 OA
ENDBRANCH  19  22
ENDBRANCH   9  19
ENDBRANCH   1  14
BRANCH   2  23
ATOM     23  N   UNL     1       4.777   3.492  18.189  0.00  0.00    +0.000 N 
ATOM     24  H   UNL     1       5.596   3.230  18.732  0.00  0.00    +0.000 HD
BRANCH  23  25
ATOM     25  C   UNL     1       3.783   2.396  18.170  0.00  0.00    +0.000 C 
ATOM     26  C   UNL     1       3.466   1.877  19.587  0.00  0.00    +0.000 C 
ATOM     27  C   UNL     1       2.529   2.776  20.394  0.00  0.00    +0.000 C 
ATOM     28  C   UNL     1       1.232   3.038  19.629  0.00  0.00    +0.000 C 
ATOM     29  C   UNL     1       1.546   3.700  18.285  0.00  0.00    +0.000 C 
ATOM     30  C   UNL     1       2.510   2.857  17.439  0.00  0.00    +0.000 C 
BRANCH  28  31
ATOM     31  N   UNL     1       0.338   3.877  20.426  0.00  0.00    +0.000 NA
ATOM     32  H   UNL     1       0.364   4.839  20.092  0.00  0.00    +0.000 HD
ATOM     33  H   UNL     1       0.670   3.908  21.391  0.00  0.00    +0.000 HD
ENDBRANCH  28  31
ENDBRANCH  23  25
ENDBRANCH   2  23
TORSDOF 6
ENDMDL
MODEL 5
REMARK VINA RESULT:      -7.8      3.012      7.526
REMARK  Name = 
REMARK  7 active torsions:
REMARK  status: ('A' for Active; 'I' for Inactive)
REMARK    1  A    between atoms: C_1  and  O_2
REMARK    2  A    between atoms: O_2  and  C_3
REMARK    3  A    between atoms: C_3  and  C_5
REMARK    4  A    between atoms: C_10  and  C_11
REMARK    5  A    between atoms: C_12  and  N_13
REMARK    6  A    between atoms: N_13  and  C_14
REMARK    7  A    between atoms: C_17  and  N_18
REMARK                            x       y       z     vdW  Elec       q    Type
REMARK                         _______ _______ _______ _____ _____    ______ ____
ROOT
ATOM      1  C   UNL     1       3.033   4.203  19.640  0.00  0.00    +0.000 A 
ATOM      2  C   UNL     1       1.931   4.841  20.120  0.00  0.00    +0.000 A 
ATOM      3  C   UNL     1       1.170   4.184  21.184  0.00  0.00    +0.000 A 
ATOM      4  C   UNL     1       1.488   2.964  21.638  0.00  0.00    +0.000 A 
ATOM      5  N   UNL     1       2.560   2.304  21.125  0.00  0.00    +0.000 N 
ATOM      6  C   UNL     1       3.385   2.822  20.153  0.00  0.00    +0.000 A 
ATOM      7  O   UNL     1       4.361   2.182  19.778  0.00  0.00    +0.000 OA
ATOM      8  H   UNL     1       2.808   1.376  21.455  0.00  0.00    +0.000 HD
ENDROOT
BRANCH   1  14
ATOM      9  C   UNL     1       6.817   5.213  15.150  0.00  0.00    +0.000 C 
ATOM     10  C   UNL     1       7.744   4.472  16.154  0.00  0.00    +0.000 C 
ATOM     11  C   UNL     1       7.442   4.803  17.636  0.00  0.00    +0.000 C 
ATOM     12  C   UNL     1       5.976   4.906  17.839  0.00  0.00    +0.000 A 
ATOM     13  N   UNL     1       5.267   4.855  19.011  0.00  0.00    +0.000 N 
ATOM     14  C   UNL     1       3.926   4.745  18.678  0.00  0.00    +0.000 A 
ATOM     15  N   UNL     1       3.761   4.936  17.377  0.00  0.00    +0.000 NA
ATOM     16  C   UNL     1       5.023   4.969  16.853  0.00  0.00    +0.000 A 
ATOM     17  C   UNL     1       5.332   4.881  15.405  0.00  0.00    +0.000 C 
ATOM     18  H   UNL     1       5.650   4.742  19.940  0.00  0.00    +0.000 HD
BRANCH   9  19
ATOM     19  C   UNL     1       7.178   4.865  13.717  0.00  0.00    +0.000 C 
ATOM     20  O   UNL     1       7.936   5.509  13.006  0.00  0.00    +0.000 OA
BRANCH  19  22
ATOM     21  C   UNL     1       6.638   3.450  11.922  0.00  0.00    +0.000 C 
ATOM     22  O   UNL     1       6.489   3.759  13.310  0.00  0.00    +0.000 OA
ENDBRANCH  19  22
ENDBRANCH   9  19
ENDBRANCH   1  14
BRANCH   2  23
ATOM     23  N   UNL     1       1.437   6.097  19.726  0.00  0.00    +0.000 N 
ATOM     24  H   UNL     1       1.008   6.067  18.803  0.00  0.00    +0.000 HD
BRANCH  23  25
ATOM     25  C   UNL     1       2.226   7.337  19.901  0.00  0.00    +0.000 C 
ATOM     26  C   UNL     1       2.598   7.983  18.551  0.00  0.00    +0.000 C 
ATOM     27  C   UNL     1       1.457   8.749  17.882  0.00  0.00    +0.000 C 
ATOM     28  C   UNL     1       0.880   9.802  18.827  0.00  0.00    +0.000 C 
ATOM     29  C   UNL     1       0.367   9.131  20.103  0.00  0.00    +0.000 C 
ATOM     30  C   UNL     1       1.463   8.319  20.807  0.00  0.00    +0.000 C 
BRANCH  28  31
ATOM     31  N   UNL     1      -0.192  10.542  18.161  0.00  0.00    +0.000 NA
ATOM     32  H   UNL     1      -0.555  11.270  18.776  0.00  0.00    +0.000 HD
ATOM     33  H   UNL     1      -0.976   9.916  17.979  0.00  0.00    +0.000 HD
ENDBRANCH  28  31
ENDBRANCH  23  25
ENDBRANCH   2  23
TORSDOF 6
ENDMDL
MODEL 6
REMARK VINA RESULT:      -7.6      2.209      4.155
REMARK  Name = 
REMARK  7 active torsions:
REMARK  status: ('A' for Active; 'I' for Inactive)
REMARK    1  A    between atoms: C_1  and  O_2
REMARK    2  A    between atoms: O_2  and  C_3
REMARK    3  A    between atoms: C_3  and  C_5
REMARK    4  A    between atoms: C_10  and  C_11
REMARK    5  A    between atoms: C_12  and  N_13
REMARK    6  A    between atoms: N_13  and  C_14
REMARK    7  A    between atoms: C_17  and  N_18
REMARK                            x       y       z     vdW  Elec       q    Type
REMARK                         _______ _______ _______ _____ _____    ______ ____
ROOT
ATOM      1  C   UNL     1       2.471   4.960  18.824  0.00  0.00    +0.000 A 
ATOM      2  C   UNL     1       3.372   4.578  17.879  0.00  0.00    +0.000 A 
ATOM      3  C   UNL     1       3.264   3.222  17.340  0.00  0.00    +0.000 A 
ATOM      4  C   UNL     1       2.358   2.345  17.795  0.00  0.00    +0.000 A 
ATOM      5  N   UNL     1       1.488   2.709  18.773  0.00  0.00    +0.000 N 
ATOM      6  C   UNL     1       1.453   3.964  19.339  0.00  0.00    +0.000 A 
ATOM      7  O   UNL     1       0.604   4.227  20.182  0.00  0.00    +0.000 OA
ATOM      8  H   UNL     1       0.802   2.052  19.133  0.00  0.00    +0.000 HD
ENDROOT
BRANCH   1  14
ATOM      9  C   UNL     1       0.799  10.148  21.230  0.00  0.00    +0.000 C 
ATOM     10  C   UNL     1       0.277  10.318  19.775  0.00  0.00    +0.000 C 
ATOM     11  C   UNL     1       1.193   9.669  18.710  0.00  0.00    +0.000 C 
ATOM     12  C   UNL     1       1.718   8.378  19.218  0.00  0.00    +0.000 A 
ATOM     13  N   UNL     1       2.278   7.344  18.513  0.00  0.00    +0.000 N 
ATOM     14  C   UNL     1       2.384   6.265  19.378  0.00  0.00    +0.000 A 
ATOM     15  N   UNL     1       2.117   6.646  20.619  0.00  0.00    +0.000 NA
ATOM     16  C   UNL     1       1.645   7.925  20.510  0.00  0.00    +0.000 A 
ATOM     17  C   UNL     1       0.958   8.659  21.601  0.00  0.00    +0.000 C 
ATOM     18  H   UNL     1       2.425   7.308  17.513  0.00  0.00    +0.000 HD
BRANCH   9  19
ATOM     19  C   UNL     1      -0.130  10.824  22.223  0.00  0.00    +0.000 C 
ATOM     20  O   UNL     1      -0.307  10.464  23.379  0.00  0.00    +0.000 OA
BRANCH  19  22
ATOM     21  C   UNL     1      -0.773  13.077  22.374  0.00  0.00    +0.000 C 
ATOM     22  O   UNL     1      -0.790  11.858  21.626  0.00  0.00    +0.000 OA
ENDBRANCH  19  22
ENDBRANCH   9  19
ENDBRANCH   1  14
BRANCH   2  23
ATOM     23  N   UNL     1       4.406   5.355  17.327  0.00  0.00    +0.000 N 
ATOM     24  H   UNL     1       4.094   5.888  16.518  0.00  0.00    +0.000 HD
BRANCH  23  25
ATOM     25  C   UNL     1       5.763   4.805  17.104  0.00  0.00    +0.000 C 
ATOM     26  C   UNL     1       6.646   5.757  16.274  0.00  0.00    +0.000 C 
ATOM     27  C   UNL     1       7.205   6.945  17.058  0.00  0.00    +0.000 C 
ATOM     28  C   UNL     1       7.965   6.470  18.296  0.00  0.00    +0.000 C 
ATOM     29  C   UNL     1       7.034   5.654  19.197  0.00  0.00    +0.000 C 
ATOM     30  C   UNL     1       6.415   4.462  18.455  0.00  0.00    +0.000 C 
BRANCH  28  31
ATOM     31  N   UNL     1       8.514   7.617  19.019  0.00  0.00    +0.000 NA
ATOM     32  H   UNL     1       8.585   7.408  20.014  0.00  0.00    +0.000 HD
ATOM     33  H   UNL     1       7.872   8.406  18.946  0.00  0.00    +0.000 HD
ENDBRANCH  28  31
ENDBRANCH  23  25
ENDBRANCH   2  23
TORSDOF 6
ENDMDL
MODEL 7
REMARK VINA RESULT:      -7.5      1.596      2.194
REMARK  Name = 
REMARK  7 active torsions:
REMARK  status: ('A' for Active; 'I' for Inactive)
REMARK    1  A    between atoms: C_1  and  O_2
REMARK    2  A    between atoms: O_2  and  C_3
REMARK    3  A    between atoms: C_3  and  C_5
REMARK    4  A    between atoms: C_10  and  C_11
REMARK    5  A    between atoms: C_12  and  N_13
REMARK    6  A    between atoms: N_13  and  C_14
REMARK    7  A    between atoms: C_17  and  N_18
REMARK                            x       y       z     vdW  Elec       q    Type
REMARK                         _______ _______ _______ _____ _____    ______ ____
ROOT
ATOM      1  C   UNL     1       4.847   6.047  17.232  0.00  0.00    +0.000 A 
ATOM      2  C   UNL     1       4.904   4.708  16.999  0.00  0.00    +0.000 A 
ATOM      3  C   UNL     1       6.217   4.115  16.741  0.00  0.00    +0.000 A 
ATOM      4  C   UNL     1       7.331   4.856  16.664  0.00  0.00    +0.000 A 
ATOM      5  N   UNL     1       7.269   6.201  16.849  0.00  0.00    +0.000 N 
ATOM      6  C   UNL     1       6.108   6.881  17.139  0.00  0.00    +0.000 A 
ATOM      7  O   UNL     1       6.145   8.090  17.340  0.00  0.00    +0.000 OA
ATOM      8  H   UNL     1       8.105   6.776  16.786  0.00  0.00    +0.000 HD
ENDROOT
BRANCH   1  14
ATOM      9  C   UNL     1       0.774   9.948  19.154  0.00  0.00    +0.000 C 
ATOM     10  C   UNL     1       1.296   9.380  20.504  0.00  0.00    +0.000 C 
ATOM     11  C   UNL     1       1.660   7.877  20.443  0.00  0.00    +0.000 C 
ATOM     12  C   UNL     1       2.315   7.570  19.148  0.00  0.00    +0.000 A 
ATOM     13  N   UNL     1       3.075   6.480  18.809  0.00  0.00    +0.000 N 
ATOM     14  C   UNL     1       3.669   6.756  17.586  0.00  0.00    +0.000 A 
ATOM     15  N   UNL     1       3.150   7.859  17.065  0.00  0.00    +0.000 NA
ATOM     16  C   UNL     1       2.369   8.393  18.051  0.00  0.00    +0.000 A 
ATOM     17  C   UNL     1       1.814   9.768  18.028  0.00  0.00    +0.000 C 
ATOM     18  H   UNL     1       3.304   5.699  19.407  0.00  0.00    +0.000 HD
BRANCH   9  19
ATOM     19  C   UNL     1       0.415  11.417  19.285  0.00  0.00    +0.000 C 
ATOM     20  O   UNL     1       0.997  12.224  19.996  0.00  0.00    +0.000 OA
BRANCH  19  22
ATOM     21  C   UNL     1      -1.695  10.683  18.559  0.00  0.00    +0.000 C 
ATOM     22  O   UNL     1      -0.693  11.703  18.541  0.00  0.00    +0.000 OA
ENDBRANCH  19  22
ENDBRANCH   9  19
ENDBRANCH   1  14
BRANCH   2  23
ATOM     23  N   UNL     1       3.832   3.798  16.999  0.00  0.00    +0.000 N 
ATOM     24  H   UNL     1       2.932   4.268  17.067  0.00  0.00    +0.000 HD
BRANCH  23  25
ATOM     25  C   UNL     1       3.851   2.570  17.825  0.00  0.00    +0.000 C 
ATOM     26  C   UNL     1       4.222   2.865  19.292  0.00  0.00    +0.000 C 
ATOM     27  C   UNL     1       3.086   3.463  20.123  0.00  0.00    +0.000 C 
ATOM     28  C   UNL     1       1.843   2.576  20.063  0.00  0.00    +0.000 C 
ATOM     29  C   UNL     1       1.386   2.417  18.611  0.00  0.00    +0.000 C 
ATOM     30  C   UNL     1       2.497   1.847  17.718  0.00  0.00    +0.000 C 
BRANCH  28  31
ATOM     31  N   UNL     1       0.776   3.149  20.884  0.00  0.00    +0.000 NA
ATOM     32  H   UNL     1       1.072   3.210  21.857  0.00  0.00    +0.000 HD
ATOM     33  H   UNL     1      -0.032   2.525  20.877  0.00  0.00    +0.000 HD
ENDBRANCH  28  31
ENDBRANCH  23  25
ENDBRANCH   2  23
TORSDOF 6
ENDMDL
MODEL 8
REMARK VINA RESULT:      -7.5      1.549      2.205
REMARK  Name = 
REMARK  7 active torsions:
REMARK  status: ('A' for Active; 'I' for Inactive)
REMARK    1  A    between atoms: C_1  and  O_2
REMARK    2  A    between atoms: O_2  and  C_3
REMARK    3  A    between atoms: C_3  and  C_5
REMARK    4  A    between atoms: C_10  and  C_11
REMARK    5  A    between atoms: C_12  and  N_13
REMARK    6  A    between atoms: N_13  and  C_14
REMARK    7  A    between atoms: C_17  and  N_18
REMARK                            x       y       z     vdW  Elec       q    Type
REMARK                         _______ _______ _______ _____ _____    ______ ____
ROOT
ATOM      1  C   UNL     1       4.848   6.003  17.306  0.00  0.00    +0.000 A 
ATOM      2  C   UNL     1       4.895   4.665  17.064  0.00  0.00    +0.000 A 
ATOM      3  C   UNL     1       6.206   4.059  16.829  0.00  0.00    +0.000 A 
ATOM      4  C   UNL     1       7.329   4.788  16.781  0.00  0.00    +0.000 A 
ATOM      5  N   UNL     1       7.279   6.132  16.974  0.00  0.00    +0.000 N 
ATOM      6  C   UNL     1       6.120   6.823  17.246  0.00  0.00    +0.000 A 
ATOM      7  O   UNL     1       6.167   8.030  17.456  0.00  0.00    +0.000 OA
ATOM      8  H   UNL     1       8.122   6.697  16.933  0.00  0.00    +0.000 HD
ENDROOT
BRANCH   1  14
ATOM      9  C   UNL     1       0.781   9.946  19.155  0.00  0.00    +0.000 C 
ATOM     10  C   UNL     1       1.282   9.381  20.514  0.00  0.00    +0.000 C 
ATOM     11  C   UNL     1       1.634   7.874  20.466  0.00  0.00    +0.000 C 
ATOM     12  C   UNL     1       2.304   7.556  19.181  0.00  0.00    +0.000 A 
ATOM     13  N   UNL     1       3.059   6.458  18.858  0.00  0.00    +0.000 N 
ATOM     14  C   UNL     1       3.671   6.723  17.642  0.00  0.00    +0.000 A 
ATOM     15  N   UNL     1       3.168   7.827  17.108  0.00  0.00    +0.000 NA
ATOM     16  C   UNL     1       2.378   8.372  18.081  0.00  0.00    +0.000 A 
ATOM     17  C   UNL     1       1.834   9.751  18.043  0.00  0.00    +0.000 C 
ATOM     18  H   UNL     1       3.275   5.678  19.463  0.00  0.00    +0.000 HD
BRANCH   9  19
ATOM     19  C   UNL     1       0.432  11.418  19.273  0.00  0.00    +0.000 C 
ATOM     20  O   UNL     1      -0.318  12.027  18.523  0.00  0.00    +0.000 OA
BRANCH  19  22
ATOM     21  C   UNL     1       1.978  13.064  19.918  0.00  0.00    +0.000 C 
ATOM     22  O   UNL     1       1.120  11.987  20.305  0.00  0.00    +0.000 OA
ENDBRANCH  19  22
ENDBRANCH   9  19
ENDBRANCH   1  14
BRANCH   2  23
ATOM     23  N   UNL     1       3.812   3.768  17.035  0.00  0.00    +0.000 N 
ATOM     24  H   UNL     1       2.917   4.246  17.102  0.00  0.00    +0.000 HD
BRANCH  23  25
ATOM     25  C   UNL     1       3.808   2.524  17.838  0.00  0.00    +0.000 C 
ATOM     26  C   UNL     1       4.201   2.781  19.306  0.00  0.00    +0.000 C 
ATOM     27  C   UNL     1       3.089   3.391  20.159  0.00  0.00    +0.000 C 
ATOM     28  C   UNL     1       1.823   2.537  20.096  0.00  0.00    +0.000 C 
ATOM     29  C   UNL     1       1.348   2.417  18.646  0.00  0.00    +0.000 C 
ATOM     30  C   UNL     1       2.436   1.838  17.731  0.00  0.00    +0.000 C 
BRANCH  28  31
ATOM     31  N   UNL     1       0.779   3.121  20.938  0.00  0.00    +0.000 NA
ATOM     32  H   UNL     1       1.080   4.025  21.300  0.00  0.00    +0.000 HD
ATOM     33  H   UNL     1       0.631   2.530  21.757  0.00  0.00    +0.000 HD
ENDBRANCH  28  31
ENDBRANCH  23  25
ENDBRANCH   2  23
TORSDOF 6
ENDMDL
MODEL 9
REMARK VINA RESULT:      -7.4      1.684      2.431
REMARK  Name = 
REMARK  7 active torsions:
REMARK  status: ('A' for Active; 'I' for Inactive)
REMARK    1  A    between atoms: C_1  and  O_2
REMARK    2  A    between atoms: O_2  and  C_3
REMARK    3  A    between atoms: C_3  and  C_5
REMARK    4  A    between atoms: C_10  and  C_11
REMARK    5  A    between atoms: C_12  and  N_13
REMARK    6  A    between atoms: N_13  and  C_14
REMARK    7  A    between atoms: C_17  and  N_18
REMARK                            x       y       z     vdW  Elec       q    Type
REMARK                         _______ _______ _______ _____ _____    ______ ____
ROOT
ATOM      1  C   UNL     1       4.774   5.862  17.437  0.00  0.00    +0.000 A 
ATOM      2  C   UNL     1       5.338   4.863  18.169  0.00  0.00    +0.000 A 
ATOM      3  C   UNL     1       6.618   4.320  17.711  0.00  0.00    +0.000 A 
ATOM      4  C   UNL     1       7.200   4.729  16.576  0.00  0.00    +0.000 A 
ATOM      5  N   UNL     1       6.614   5.693  15.818  0.00  0.00    +0.000 N 
ATOM      6  C   UNL     1       5.433   6.317  16.151  0.00  0.00    +0.000 A 
ATOM      7  O   UNL     1       4.995   7.211  15.437  0.00  0.00    +0.000 OA
ATOM      8  H   UNL     1       7.041   6.007  14.950  0.00  0.00    +0.000 HD
ENDROOT
BRANCH   1  14
ATOM      9  C   UNL     1       0.651   9.698  19.383  0.00  0.00    +0.000 C 
ATOM     10  C   UNL     1       1.174   9.121  20.729  0.00  0.00    +0.000 C 
ATOM     11  C   UNL     1       1.554   7.622  20.654  0.00  0.00    +0.000 C 
ATOM     12  C   UNL     1       2.218   7.337  19.358  0.00  0.00    +0.000 A 
ATOM     13  N   UNL     1       2.991   6.259  19.011  0.00  0.00    +0.000 N 
ATOM     14  C   UNL     1       3.587   6.554  17.794  0.00  0.00    +0.000 A 
ATOM     15  N   UNL     1       3.059   7.657  17.282  0.00  0.00    +0.000 NA
ATOM     16  C   UNL     1       2.268   8.172  18.271  0.00  0.00    +0.000 A 
ATOM     17  C   UNL     1       1.698   9.541  18.260  0.00  0.00    +0.000 C 
ATOM     18  H   UNL     1       3.226   5.473  19.601  0.00  0.00    +0.000 HD
BRANCH   9  19
ATOM     19  C   UNL     1       0.276  11.161  19.529  0.00  0.00    +0.000 C 
ATOM     20  O   UNL     1       1.059  12.069  19.771  0.00  0.00    +0.000 OA
BRANCH  19  22
ATOM     21  C   UNL     1      -1.494  11.893  18.169  0.00  0.00    +0.000 C 
ATOM     22  O   UNL     1      -1.075  11.319  19.410  0.00  0.00    +0.000 OA
ENDBRANCH  19  22
ENDBRANCH   9  19
ENDBRANCH   1  14
BRANCH   2  23
ATOM     23  N   UNL     1       4.841   4.292  19.353  0.00  0.00    +0.000 N 
ATOM     24  H   UNL     1       5.388   4.562  20.167  0.00  0.00    +0.000 HD
BRANCH  23  25
ATOM     25  C   UNL     1       4.452   2.865  19.428  0.00  0.00    +0.000 C 
ATOM     26  C   UNL     1       3.690   2.540  20.729  0.00  0.00    +0.000 C 
ATOM     27  C   UNL     1       2.228   2.987  20.733  0.00  0.00    +0.000 C 
ATOM     28  C   UNL     1       1.480   2.415  19.529  0.00  0.00    +0.000 C 
ATOM     29  C   UNL     1       2.152   2.875  18.233  0.00  0.00    +0.000 C 
ATOM     30  C   UNL     1       3.635   2.480  18.183  0.00  0.00    +0.000 C 
BRANCH  28  31
ATOM     31  N   UNL     1       0.078   2.831  19.564  0.00  0.00    +0.000 NA
ATOM     32  H   UNL     1      -0.121   3.333  20.429  0.00  0.00    +0.000 HD
ATOM     33  H   UNL     1      -0.522   2.006  19.576  0.00  0.00    +0.000 HD
ENDBRANCH  28  31
ENDBRANCH  23  25
ENDBRANCH   2  23
TORSDOF 6
ENDMDL
