MODEL 1
REMARK VINA RESULT:      -6.3      0.000      0.000
REMARK  Name = 
REMARK  7 active torsions:
REMARK  status: ('A' for Active; 'I' for Inactive)
REMARK    1  A    between atoms: C_1  and  C_2
REMARK    2  A    between atoms: C_2  and  C_3
REMARK    3  A    between atoms: C_2  and  O_9
REMARK    4  A    between atoms: C_3  and  N_4
REMARK    5  A    between atoms: N_4  and  S_5
REMARK    6  A    between atoms: S_5  and  C_6
REMARK    7  A    between atoms: O_9  and  C_10
REMARK                            x       y       z     vdW  Elec       q    Type
REMARK                         _______ _______ _______ _____ _____    ______ ____
ROOT
ATOM      1  C   UNL     1       3.691   2.030  17.790  0.00  0.00    +0.000 C 
ATOM      2  C   UNL     1       3.805   3.550  17.749  0.00  0.00    +0.000 C 
ENDROOT
BRANCH   2   3
ATOM      3  C   UNL     1       4.508   4.084  16.486  0.00  0.00    +0.000 C 
BRANCH   3   4
ATOM      4  N   UNL     1       5.894   3.594  16.347  0.00  0.00    +0.000 NA
ATOM      5  H   UNL     1       6.052   2.889  15.623  0.00  0.00    +0.000 HD
BRANCH   4   6
ATOM      6  S   UNL     1       7.123   4.743  16.458  0.00  0.00    +0.000 S 
ATOM      7  C   UNL     1       6.310   6.077  17.313  0.00  0.00    +0.000 C 
ATOM      8  O   UNL     1       8.158   4.217  17.318  0.00  0.00    +0.000 OA
ATOM      9  O   UNL     1       7.401   5.197  15.114  0.00  0.00    +0.000 OA
ENDBRANCH   4   6
ENDBRANCH   3   4
ENDBRANCH   2   3
BRANCH   2  10
ATOM     10  O   UNL     1       2.483   4.102  17.877  0.00  0.00    +0.000 OA
BRANCH  10  11
ATOM     11  C   UNL     1       2.331   5.253  18.609  0.00  0.00    +0.000 A 
ATOM     12  C   UNL     1       2.631   6.531  18.128  0.00  0.00    +0.000 A 
ATOM     13  C   UNL     1       2.398   7.668  18.907  0.00  0.00    +0.000 A 
ATOM     14  C   UNL     1       1.884   7.540  20.193  0.00  0.00    +0.000 A 
ATOM     15  C   UNL     1       1.645   6.272  20.716  0.00  0.00    +0.000 A 
ATOM     16  C   UNL     1       1.881   5.133  19.934  0.00  0.00    +0.000 A 
ATOM     17 BR   UNL     1       1.580   3.436  20.732  0.00  0.00    +0.000 Br
ENDBRANCH  10  11
ENDBRANCH   2  10
TORSDOF 5
ENDMDL
MODEL 2
REMARK VINA RESULT:      -6.3      2.271      3.206
REMARK  Name = 
REMARK  7 active torsions:
REMARK  status: ('A' for Active; 'I' for Inactive)
REMARK    1  A    between atoms: C_1  and  C_2
REMARK    2  A    between atoms: C_2  and  C_3
REMARK    3  A    between atoms: C_2  and  O_9
REMARK    4  A    between atoms: C_3  and  N_4
REMARK    5  A    between atoms: N_4  and  S_5
REMARK    6  A    between atoms: S_5  and  C_6
REMARK    7  A    between atoms: O_9  and  C_10
REMARK                            x       y       z     vdW  Elec       q    Type
REMARK                         _______ _______ _______ _____ _____    ______ ____
ROOT
ATOM      1  C   UNL     1       8.082   5.675  19.835  0.00  0.00    +0.000 C 
ATOM      2  C   UNL     1       7.000   5.458  18.784  0.00  0.00    +0.000 C 
ENDROOT
BRANCH   2   3
ATOM      3  C   UNL     1       7.525   4.844  17.472  0.00  0.00    +0.000 C 
BRANCH   3   4
ATOM      4  N   UNL     1       7.451   5.776  16.329  0.00  0.00    +0.000 NA
ATOM      5  H   UNL     1       8.340   6.167  16.009  0.00  0.00    +0.000 HD
BRANCH   4   6
ATOM      6  S   UNL     1       6.398   5.364  15.078  0.00  0.00    +0.000 S 
ATOM      7  C   UNL     1       5.820   3.759  15.590  0.00  0.00    +0.000 C 
ATOM      8  O   UNL     1       5.280   6.279  15.107  0.00  0.00    +0.000 OA
ATOM      9  O   UNL     1       7.203   5.175  13.892  0.00  0.00    +0.000 OA
ENDBRANCH   4   6
ENDBRANCH   3   4
ENDBRANCH   2   3
BRANCH   2  10
ATOM     10  O   UNL     1       5.971   4.637  19.363  0.00  0.00    +0.000 OA
BRANCH  10  11
ATOM     11  C   UNL     1       4.679   4.819  18.934  0.00  0.00    +0.000 A 
ATOM     12  C   UNL     1       4.202   6.009  18.376  0.00  0.00    +0.000 A 
ATOM     13  C   UNL     1       2.890   6.109  17.906  0.00  0.00    +0.000 A 
ATOM     14  C   UNL     1       2.025   5.025  18.013  0.00  0.00    +0.000 A 
ATOM     15  C   UNL     1       2.460   3.855  18.630  0.00  0.00    +0.000 A 
ATOM     16  C   UNL     1       3.777   3.757  19.102  0.00  0.00    +0.000 A 
ATOM     17 BR   UNL     1       4.283   2.149  19.978  0.00  0.00    +0.000 Br
ENDBRANCH  10  11
ENDBRANCH   2  10
TORSDOF 5
ENDMDL
MODEL 3
REMARK VINA RESULT:      -6.2      2.143      3.029
REMARK  Name = 
REMARK  7 active torsions:
REMARK  status: ('A' for Active; 'I' for Inactive)
REMARK    1  A    between atoms: C_1  and  C_2
REMARK    2  A    between atoms: C_2  and  C_3
REMARK    3  A    between atoms: C_2  and  O_9
REMARK    4  A    between atoms: C_3  and  N_4
REMARK    5  A    between atoms: N_4  and  S_5
REMARK    6  A    between atoms: S_5  and  C_6
REMARK    7  A    between atoms: O_9  and  C_10
REMARK                            x       y       z     vdW  Elec       q    Type
REMARK                         _______ _______ _______ _____ _____    ______ ____
ROOT
ATOM      1  C   UNL     1       6.753   5.460  19.530  0.00  0.00    +0.000 C 
ATOM      2  C   UNL     1       5.280   5.423  19.139  0.00  0.00    +0.000 C 
ENDROOT
BRANCH   2   3
ATOM      3  C   UNL     1       5.018   5.831  17.676  0.00  0.00    +0.000 C 
BRANCH   3   4
ATOM      4  N   UNL     1       5.530   4.845  16.703  0.00  0.00    +0.000 NA
ATOM      5  H   UNL     1       4.858   4.507  16.009  0.00  0.00    +0.000 HD
BRANCH   4   6
ATOM      6  S   UNL     1       7.072   5.121  16.079  0.00  0.00    +0.000 S 
ATOM      7  C   UNL     1       6.847   4.758  14.351  0.00  0.00    +0.000 C 
ATOM      8  O   UNL     1       7.369   6.529  16.213  0.00  0.00    +0.000 OA
ATOM      9  O   UNL     1       7.938   4.100  16.626  0.00  0.00    +0.000 OA
ENDBRANCH   4   6
ENDBRANCH   3   4
ENDBRANCH   2   3
BRANCH   2  10
ATOM     10  O   UNL     1       4.779   4.101  19.403  0.00  0.00    +0.000 OA
BRANCH  10  11
ATOM     11  C   UNL     1       3.442   3.958  19.676  0.00  0.00    +0.000 A 
ATOM     12  C   UNL     1       2.701   4.860  20.447  0.00  0.00    +0.000 A 
ATOM     13  C   UNL     1       1.328   4.686  20.639  0.00  0.00    +0.000 A 
ATOM     14  C   UNL     1       0.678   3.589  20.083  0.00  0.00    +0.000 A 
ATOM     15  C   UNL     1       1.411   2.643  19.371  0.00  0.00    +0.000 A 
ATOM     16  C   UNL     1       2.789   2.818  19.181  0.00  0.00    +0.000 A 
ATOM     17 BR   UNL     1       3.730   1.460  18.244  0.00  0.00    +0.000 Br
ENDBRANCH  10  11
ENDBRANCH   2  10
TORSDOF 5
ENDMDL
MODEL 4
REMARK VINA RESULT:      -6.2      2.406      3.275
REMARK  Name = 
REMARK  7 active torsions:
REMARK  status: ('A' for Active; 'I' for Inactive)
REMARK    1  A    between atoms: C_1  and  C_2
REMARK    2  A    between atoms: C_2  and  C_3
REMARK    3  A    between atoms: C_2  and  O_9
REMARK    4  A    between atoms: C_3  and  N_4
REMARK    5  A    between atoms: N_4  and  S_5
REMARK    6  A    between atoms: S_5  and  C_6
REMARK    7  A    between atoms: O_9  and  C_10
REMARK                            x       y       z     vdW  Elec       q    Type
REMARK                         _______ _______ _______ _____ _____    ______ ____
ROOT
ATOM      1  C   UNL     1       4.888   6.564  16.401  0.00  0.00    +0.000 C 
ATOM      2  C   UNL     1       4.270   5.356  17.096  0.00  0.00    +0.000 C 
ENDROOT
BRANCH   2   3
ATOM      3  C   UNL     1       5.181   4.723  18.165  0.00  0.00    +0.000 C 
BRANCH   3   4
ATOM      4  N   UNL     1       5.842   5.724  19.025  0.00  0.00    +0.000 NA
ATOM      5  H   UNL     1       5.424   5.872  19.947  0.00  0.00    +0.000 HD
BRANCH   4   6
ATOM      6  S   UNL     1       7.529   5.726  19.034  0.00  0.00    +0.000 S 
ATOM      7  C   UNL     1       7.909   4.487  17.813  0.00  0.00    +0.000 C 
ATOM      8  O   UNL     1       7.982   7.006  18.538  0.00  0.00    +0.000 OA
ATOM      9  O   UNL     1       7.946   5.210  20.318  0.00  0.00    +0.000 OA
ENDBRANCH   4   6
ENDBRANCH   3   4
ENDBRANCH   2   3
BRANCH   2  10
ATOM     10  O   UNL     1       3.012   5.762  17.665  0.00  0.00    +0.000 OA
BRANCH  10  11
ATOM     11  C   UNL     1       2.274   4.822  18.340  0.00  0.00    +0.000 A 
ATOM     12  C   UNL     1       1.930   3.573  17.813  0.00  0.00    +0.000 A 
ATOM     13  C   UNL     1       1.225   2.639  18.577  0.00  0.00    +0.000 A 
ATOM     14  C   UNL     1       0.829   2.952  19.872  0.00  0.00    +0.000 A 
ATOM     15  C   UNL     1       1.100   4.216  20.389  0.00  0.00    +0.000 A 
ATOM     16  C   UNL     1       1.807   5.152  19.622  0.00  0.00    +0.000 A 
ATOM     17 BR   UNL     1       2.095   6.873  20.374  0.00  0.00    +0.000 Br
ENDBRANCH  10  11
ENDBRANCH   2  10
TORSDOF 5
ENDMDL
MODEL 5
REMARK VINA RESULT:      -6.1      3.485      5.440
REMARK  Name = 
REMARK  7 active torsions:
REMARK  status: ('A' for Active; 'I' for Inactive)
REMARK    1  A    between atoms: C_1  and  C_2
REMARK    2  A    between atoms: C_2  and  C_3
REMARK    3  A    between atoms: C_2  and  O_9
REMARK    4  A    between atoms: C_3  and  N_4
REMARK    5  A    between atoms: N_4  and  S_5
REMARK    6  A    between atoms: S_5  and  C_6
REMARK    7  A    between atoms: O_9  and  C_10
REMARK                            x       y       z     vdW  Elec       q    Type
REMARK                         _______ _______ _______ _____ _____    ______ ____
ROOT
ATOM      1  C   UNL     1       3.595   1.351  18.226  0.00  0.00    +0.000 C 
ATOM      2  C   UNL     1       3.061   2.746  17.922  0.00  0.00    +0.000 C 
ENDROOT
BRANCH   2   3
ATOM      3  C   UNL     1       1.784   3.104  18.706  0.00  0.00    +0.000 C 
BRANCH   3   4
ATOM      4  N   UNL     1       1.576   2.247  19.891  0.00  0.00    +0.000 NA
ATOM      5  H   UNL     1       1.739   1.247  19.757  0.00  0.00    +0.000 HD
BRANCH   4   6
ATOM      6  S   UNL     1       2.142   2.838  21.366  0.00  0.00    +0.000 S 
ATOM      7  C   UNL     1       2.162   4.596  21.081  0.00  0.00    +0.000 C 
ATOM      8  O   UNL     1       1.150   2.554  22.378  0.00  0.00    +0.000 OA
ATOM      9  O   UNL     1       3.515   2.406  21.496  0.00  0.00    +0.000 OA
ENDBRANCH   4   6
ENDBRANCH   3   4
ENDBRANCH   2   3
BRANCH   2  10
ATOM     10  O   UNL     1       4.110   3.694  18.182  0.00  0.00    +0.000 OA
BRANCH  10  11
ATOM     11  C   UNL     1       4.755   4.257  17.109  0.00  0.00    +0.000 A 
ATOM     12  C   UNL     1       5.622   3.556  16.264  0.00  0.00    +0.000 A 
ATOM     13  C   UNL     1       6.202   4.175  15.153  0.00  0.00    +0.000 A 
ATOM     14  C   UNL     1       5.944   5.515  14.886  0.00  0.00    +0.000 A 
ATOM     15  C   UNL     1       5.140   6.248  15.756  0.00  0.00    +0.000 A 
ATOM     16  C   UNL     1       4.560   5.626  16.870  0.00  0.00    +0.000 A 
ATOM     17 BR   UNL     1       3.517   6.702  18.039  0.00  0.00    +0.000 Br
ENDBRANCH  10  11
ENDBRANCH   2  10
TORSDOF 5
ENDMDL
MODEL 6
REMARK VINA RESULT:      -6.0      1.750      2.891
REMARK  Name = 
REMARK  7 active torsions:
REMARK  status: ('A' for Active; 'I' for Inactive)
REMARK    1  A    between atoms: C_1  and  C_2
REMARK    2  A    between atoms: C_2  and  C_3
REMARK    3  A    between atoms: C_2  and  O_9
REMARK    4  A    between atoms: C_3  and  N_4
REMARK    5  A    between atoms: N_4  and  S_5
REMARK    6  A    between atoms: S_5  and  C_6
REMARK    7  A    between atoms: O_9  and  C_10
REMARK                            x       y       z     vdW  Elec       q    Type
REMARK                         _______ _______ _______ _____ _____    ______ ____
ROOT
ATOM      1  C   UNL     1       3.864   7.400  17.518  0.00  0.00    +0.000 C 
ATOM      2  C   UNL     1       3.786   5.881  17.425  0.00  0.00    +0.000 C 
ENDROOT
BRANCH   2   3
ATOM      3  C   UNL     1       4.845   5.262  16.493  0.00  0.00    +0.000 C 
BRANCH   3   4
ATOM      4  N   UNL     1       5.858   4.469  17.217  0.00  0.00    +0.000 NA
ATOM      5  H   UNL     1       5.863   3.464  17.028  0.00  0.00    +0.000 HD
BRANCH   4   6
ATOM      6  S   UNL     1       7.398   5.144  17.355  0.00  0.00    +0.000 S 
ATOM      7  C   UNL     1       7.338   5.883  18.973  0.00  0.00    +0.000 C 
ATOM      8  O   UNL     1       8.363   4.068  17.382  0.00  0.00    +0.000 OA
ATOM      9  O   UNL     1       7.476   6.219  16.391  0.00  0.00    +0.000 OA
ENDBRANCH   4   6
ENDBRANCH   3   4
ENDBRANCH   2   3
BRANCH   2  10
ATOM     10  O   UNL     1       3.894   5.344  18.756  0.00  0.00    +0.000 OA
BRANCH  10  11
ATOM     11  C   UNL     1       2.940   4.449  19.172  0.00  0.00    +0.000 A 
ATOM     12  C   UNL     1       2.899   3.110  18.773  0.00  0.00    +0.000 A 
ATOM     13  C   UNL     1       1.933   2.236  19.281  0.00  0.00    +0.000 A 
ATOM     14  C   UNL     1       0.975   2.698  20.177  0.00  0.00    +0.000 A 
ATOM     15  C   UNL     1       0.957   4.045  20.532  0.00  0.00    +0.000 A 
ATOM     16  C   UNL     1       1.925   4.920  20.021  0.00  0.00    +0.000 A 
ATOM     17 BR   UNL     1       1.805   6.752  20.509  0.00  0.00    +0.000 Br
ENDBRANCH  10  11
ENDBRANCH   2  10
TORSDOF 5
ENDMDL
MODEL 7
REMARK VINA RESULT:      -6.0      3.714      5.567
REMARK  Name = 
REMARK  7 active torsions:
REMARK  status: ('A' for Active; 'I' for Inactive)
REMARK    1  A    between atoms: C_1  and  C_2
REMARK    2  A    between atoms: C_2  and  C_3
REMARK    3  A    between atoms: C_2  and  O_9
REMARK    4  A    between atoms: C_3  and  N_4
REMARK    5  A    between atoms: N_4  and  S_5
REMARK    6  A    between atoms: S_5  and  C_6
REMARK    7  A    between atoms: O_9  and  C_10
REMARK                            x       y       z     vdW  Elec       q    Type
REMARK                         _______ _______ _______ _____ _____    ______ ____
ROOT
ATOM      1  C   UNL     1       2.165   4.134  17.321  0.00  0.00    +0.000 C 
ATOM      2  C   UNL     1       3.155   3.457  18.262  0.00  0.00    +0.000 C 
ENDROOT
BRANCH   2   3
ATOM      3  C   UNL     1       2.663   2.104  18.809  0.00  0.00    +0.000 C 
BRANCH   3   4
ATOM      4  N   UNL     1       1.647   2.247  19.871  0.00  0.00    +0.000 NA
ATOM      5  H   UNL     1       0.928   1.521  19.907  0.00  0.00    +0.000 HD
BRANCH   4   6
ATOM      6  S   UNL     1       2.197   2.737  21.389  0.00  0.00    +0.000 S 
ATOM      7  C   UNL     1       2.163   4.511  21.243  0.00  0.00    +0.000 C 
ATOM      8  O   UNL     1       1.216   2.343  22.374  0.00  0.00    +0.000 OA
ATOM      9  O   UNL     1       3.583   2.338  21.485  0.00  0.00    +0.000 OA
ENDBRANCH   4   6
ENDBRANCH   3   4
ENDBRANCH   2   3
BRANCH   2  10
ATOM     10  O   UNL     1       4.405   3.308  17.564  0.00  0.00    +0.000 OA
BRANCH  10  11
ATOM     11  C   UNL     1       5.388   4.238  17.793  0.00  0.00    +0.000 A 
ATOM     12  C   UNL     1       5.726   4.722  19.061  0.00  0.00    +0.000 A 
ATOM     13  C   UNL     1       6.778   5.627  19.230  0.00  0.00    +0.000 A 
ATOM     14  C   UNL     1       7.492   6.082  18.127  0.00  0.00    +0.000 A 
ATOM     15  C   UNL     1       7.125   5.666  16.850  0.00  0.00    +0.000 A 
ATOM     16  C   UNL     1       6.069   4.760  16.682  0.00  0.00    +0.000 A 
ATOM     17 BR   UNL     1       5.594   4.278  14.907  0.00  0.00    +0.000 Br
ENDBRANCH  10  11
ENDBRANCH   2  10
TORSDOF 5
ENDMDL
MODEL 8
REMARK VINA RESULT:      -6.0      1.995      2.772
REMARK  Name = 
REMARK  7 active torsions:
REMARK  status: ('A' for Active; 'I' for Inactive)
REMARK    1  A    between atoms: C_1  and  C_2
REMARK    2  A    between atoms: C_2  and  C_3
REMARK    3  A    between atoms: C_2  and  O_9
REMARK    4  A    between atoms: C_3  and  N_4
REMARK    5  A    between atoms: N_4  and  S_5
REMARK    6  A    between atoms: S_5  and  C_6
REMARK    7  A    between atoms: O_9  and  C_10
REMARK                            x       y       z     vdW  Elec       q    Type
REMARK                         _______ _______ _______ _____ _____    ______ ____
ROOT
ATOM      1  C   UNL     1       6.516   5.375  19.309  0.00  0.00    +0.000 C 
ATOM      2  C   UNL     1       5.383   5.869  18.417  0.00  0.00    +0.000 C 
ENDROOT
BRANCH   2   3
ATOM      3  C   UNL     1       5.865   6.492  17.092  0.00  0.00    +0.000 C 
BRANCH   3   4
ATOM      4  N   UNL     1       5.526   5.670  15.913  0.00  0.00    +0.000 NA
ATOM      5  H   UNL     1       5.146   6.173  15.108  0.00  0.00    +0.000 HD
BRANCH   4   6
ATOM      6  S   UNL     1       6.611   4.445  15.502  0.00  0.00    +0.000 S 
ATOM      7  C   UNL     1       6.907   4.773  13.777  0.00  0.00    +0.000 C 
ATOM      8  O   UNL     1       7.842   4.670  16.224  0.00  0.00    +0.000 OA
ATOM      9  O   UNL     1       5.889   3.195  15.587  0.00  0.00    +0.000 OA
ENDBRANCH   4   6
ENDBRANCH   3   4
ENDBRANCH   2   3
BRANCH   2  10
ATOM     10  O   UNL     1       4.490   4.768  18.175  0.00  0.00    +0.000 OA
BRANCH  10  11
ATOM     11  C   UNL     1       3.385   4.642  18.980  0.00  0.00    +0.000 A 
ATOM     12  C   UNL     1       2.878   5.673  19.777  0.00  0.00    +0.000 A 
ATOM     13  C   UNL     1       1.713   5.495  20.530  0.00  0.00    +0.000 A 
ATOM     14  C   UNL     1       1.053   4.272  20.516  0.00  0.00    +0.000 A 
ATOM     15  C   UNL     1       1.581   3.212  19.783  0.00  0.00    +0.000 A 
ATOM     16  C   UNL     1       2.750   3.391  19.030  0.00  0.00    +0.000 A 
ATOM     17 BR   UNL     1       3.439   1.886  18.098  0.00  0.00    +0.000 Br
ENDBRANCH  10  11
ENDBRANCH   2  10
TORSDOF 5
ENDMDL
MODEL 9
REMARK VINA RESULT:      -6.0      1.053      1.218
REMARK  Name = 
REMARK  7 active torsions:
REMARK  status: ('A' for Active; 'I' for Inactive)
REMARK    1  A    between atoms: C_1  and  C_2
REMARK    2  A    between atoms: C_2  and  C_3
REMARK    3  A    between atoms: C_2  and  O_9
REMARK    4  A    between atoms: C_3  and  N_4
REMARK    5  A    between atoms: N_4  and  S_5
REMARK    6  A    between atoms: S_5  and  C_6
REMARK    7  A    between atoms: O_9  and  C_10
REMARK                            x       y       z     vdW  Elec       q    Type
REMARK                         _______ _______ _______ _____ _____    ______ ____
ROOT
ATOM      1  C   UNL     1       3.456   1.630  18.262  0.00  0.00    +0.000 C 
ATOM      2  C   UNL     1       3.715   3.114  18.497  0.00  0.00    +0.000 C 
ENDROOT
BRANCH   2   3
ATOM      3  C   UNL     1       4.867   3.683  17.647  0.00  0.00    +0.000 C 
BRANCH   3   4
ATOM      4  N   UNL     1       6.100   3.912  18.428  0.00  0.00    +0.000 NA
ATOM      5  H   UNL     1       6.523   3.085  18.854  0.00  0.00    +0.000 HD
BRANCH   4   6
ATOM      6  S   UNL     1       7.220   4.995  17.781  0.00  0.00    +0.000 S 
ATOM      7  C   UNL     1       6.364   5.602  16.343  0.00  0.00    +0.000 C 
ATOM      8  O   UNL     1       7.380   6.089  18.710  0.00  0.00    +0.000 OA
ATOM      9  O   UNL     1       8.344   4.213  17.317  0.00  0.00    +0.000 OA
ENDBRANCH   4   6
ENDBRANCH   3   4
ENDBRANCH   2   3
BRANCH   2  10
ATOM     10  O   UNL     1       2.490   3.827  18.250  0.00  0.00    +0.000 OA
BRANCH  10  11
ATOM     11  C   UNL     1       2.333   5.063  18.826  0.00  0.00    +0.000 A 
ATOM     12  C   UNL     1       2.615   6.268  18.176  0.00  0.00    +0.000 A 
ATOM     13  C   UNL     1       2.377   7.496  18.801  0.00  0.00    +0.000 A 
ATOM     14  C   UNL     1       1.879   7.535  20.099  0.00  0.00    +0.000 A 
ATOM     15  C   UNL     1       1.659   6.345  20.787  0.00  0.00    +0.000 A 
ATOM     16  C   UNL     1       1.898   5.114  20.160  0.00  0.00    +0.000 A 
ATOM     17 BR   UNL     1       1.624   3.535  21.179  0.00  0.00    +0.000 Br
ENDBRANCH  10  11
ENDBRANCH   2  10
TORSDOF 5
ENDMDL
