MODEL 1
REMARK VINA RESULT:      -7.0      0.000      0.000
REMARK  Name = 
REMARK  3 active torsions:
REMARK  status: ('A' for Active; 'I' for Inactive)
REMARK    1  A    between atoms: C_2  and  C_3
REMARK    2  A    between atoms: C_4  and  N_5
REMARK    3  A    between atoms: C_22  and  C_23
REMARK                            x       y       z     vdW  Elec       q    Type
REMARK                         _______ _______ _______ _____ _____    ______ ____
ROOT
ATOM      1  C   UNL     1       0.859  11.671  18.974  0.00  0.00    +0.000 C 
ATOM      2  C   UNL     1       0.558  12.674  19.856  0.00  0.00    +0.000 C 
ATOM      3  O   UNL     1      -0.216  12.421  20.983  0.00  0.00    +0.000 OA
ATOM      4  C   UNL     1      -1.376  11.715  20.734  0.00  0.00    +0.000 A 
ATOM      5  C   UNL     1      -1.499  11.176  19.525  0.00  0.00    +0.000 A 
ATOM      6  C   UNL     1      -2.600  11.946  18.781  0.00  0.00    +0.000 A 
ATOM      7  O   UNL     1      -2.589  11.996  17.565  0.00  0.00    +0.000 OA
ATOM      8  N   UNL     1      -3.570  12.698  19.520  0.00  0.00    +0.000 N 
ATOM      9  C   UNL     1      -3.599  12.743  20.963  0.00  0.00    +0.000 A 
ATOM     10  C   UNL     1      -2.498  12.145  21.559  0.00  0.00    +0.000 A 
ATOM     11  C   UNL     1      -2.437  11.955  22.927  0.00  0.00    +0.000 A 
ATOM     12  C   UNL     1      -3.472  12.370  23.733  0.00  0.00    +0.000 A 
ATOM     13  C   UNL     1      -4.561  13.071  23.204  0.00  0.00    +0.000 A 
ATOM     14  C   UNL     1      -5.535  13.488  24.120  0.00  0.00    +0.000 A 
ATOM     15  C   UNL     1      -6.603  14.260  23.732  0.00  0.00    +0.000 A 
ATOM     16  C   UNL     1      -6.721  14.620  22.399  0.00  0.00    +0.000 A 
ATOM     17  C   UNL     1      -5.777  14.155  21.444  0.00  0.00    +0.000 A 
ATOM     18  C   UNL     1      -4.652  13.335  21.795  0.00  0.00    +0.000 A 
ATOM     19  C   UNL     1      -0.140  10.533  18.814  0.00  0.00    +0.000 C 
ATOM     20  H   UNL     1      -4.265  13.192  18.993  0.00  0.00    +0.000 HD
ENDROOT
BRANCH  19  21
ATOM     21  C   UNL     1       0.994   9.478  19.265  0.00  0.00    +0.000 A 
ATOM     22  C   UNL     1       0.923   9.006  20.592  0.00  0.00    +0.000 A 
ATOM     23  C   UNL     1       1.570   7.822  20.950  0.00  0.00    +0.000 A 
ATOM     24  C   UNL     1       2.301   7.106  20.002  0.00  0.00    +0.000 A 
ATOM     25  C   UNL     1       2.448   7.606  18.709  0.00  0.00    +0.000 A 
ATOM     26  C   UNL     1       1.827   8.802  18.343  0.00  0.00    +0.000 A 
ENDBRANCH  19  21
BRANCH   2  27
ATOM     27  N   UNL     1       0.825  14.023  19.653  0.00  0.00    +0.000 N 
ATOM     28  H   UNL     1       1.422  14.426  20.379  0.00  0.00    +0.000 HD
ATOM     29  H   UNL     1       1.303  14.142  18.757  0.00  0.00    +0.000 HD
ENDBRANCH   2  27
BRANCH   1  31
ATOM     30  N   UNL     1       3.188  12.465  17.679  0.00  0.00    +0.000 NA
ATOM     31  C   UNL     1       2.132  12.105  18.266  0.00  0.00    +0.000 C 
ENDBRANCH   1  31
TORSDOF 3
ENDMDL
MODEL 2
REMARK VINA RESULT:      -6.7      3.326      7.531
REMARK  Name = 
REMARK  3 active torsions:
REMARK  status: ('A' for Active; 'I' for Inactive)
REMARK    1  A    between atoms: C_2  and  C_3
REMARK    2  A    between atoms: C_4  and  N_5
REMARK    3  A    between atoms: C_22  and  C_23
REMARK                            x       y       z     vdW  Elec       q    Type
REMARK                         _______ _______ _______ _____ _____    ______ ____
ROOT
ATOM      1  C   UNL     1       0.840  14.371  21.170  0.00  0.00    +0.000 C 
ATOM      2  C   UNL     1       1.953  13.648  20.833  0.00  0.00    +0.000 C 
ATOM      3  O   UNL     1       1.912  12.718  19.801  0.00  0.00    +0.000 OA
ATOM      4  C   UNL     1       0.842  11.846  19.858  0.00  0.00    +0.000 A 
ATOM      5  C   UNL     1      -0.117  12.135  20.731  0.00  0.00    +0.000 A 
ATOM      6  C   UNL     1      -0.060  11.084  21.850  0.00  0.00    +0.000 A 
ATOM      7  O   UNL     1      -0.465  11.362  22.964  0.00  0.00    +0.000 OA
ATOM      8  N   UNL     1       0.573   9.821  21.611  0.00  0.00    +0.000 N 
ATOM      9  C   UNL     1       1.140   9.452  20.336  0.00  0.00    +0.000 A 
ATOM     10  C   UNL     1       1.179  10.496  19.423  0.00  0.00    +0.000 A 
ATOM     11  C   UNL     1       1.540  10.285  18.106  0.00  0.00    +0.000 A 
ATOM     12  C   UNL     1       1.884   9.025  17.673  0.00  0.00    +0.000 A 
ATOM     13  C   UNL     1       1.963   7.952  18.567  0.00  0.00    +0.000 A 
ATOM     14  C   UNL     1       2.368   6.724  18.029  0.00  0.00    +0.000 A 
ATOM     15  C   UNL     1       2.570   5.622  18.825  0.00  0.00    +0.000 A 
ATOM     16  C   UNL     1       2.352   5.732  20.189  0.00  0.00    +0.000 A 
ATOM     17  C   UNL     1       1.882   6.952  20.746  0.00  0.00    +0.000 A 
ATOM     18  C   UNL     1       1.642   8.128  19.957  0.00  0.00    +0.000 A 
ATOM     19  C   UNL     1      -0.524  13.733  20.946  0.00  0.00    +0.000 C 
ATOM     20  H   UNL     1       0.594   9.169  22.373  0.00  0.00    +0.000 HD
ENDROOT
BRANCH  19  21
ATOM     21  C   UNL     1      -0.929  14.950  19.967  0.00  0.00    +0.000 A 
ATOM     22  C   UNL     1      -1.845  15.892  20.481  0.00  0.00    +0.000 A 
ATOM     23  C   UNL     1      -1.940  17.161  19.906  0.00  0.00    +0.000 A 
ATOM     24  C   UNL     1      -1.141  17.500  18.814  0.00  0.00    +0.000 A 
ATOM     25  C   UNL     1      -0.293  16.550  18.247  0.00  0.00    +0.000 A 
ATOM     26  C   UNL     1      -0.205  15.269  18.795  0.00  0.00    +0.000 A 
ENDBRANCH  19  21
BRANCH   2  27
ATOM     27  N   UNL     1       3.141  13.627  21.556  0.00  0.00    +0.000 N 
ATOM     28  H   UNL     1       3.600  12.714  21.543  0.00  0.00    +0.000 HD
ATOM     29  H   UNL     1       3.792  14.307  21.155  0.00  0.00    +0.000 HD
ENDBRANCH   2  27
BRANCH   1  31
ATOM     30  N   UNL     1       1.774  16.680  22.407  0.00  0.00    +0.000 NA
ATOM     31  C   UNL     1       1.350  15.633  21.846  0.00  0.00    +0.000 C 
ENDBRANCH   1  31
TORSDOF 3
ENDMDL
MODEL 3
REMARK VINA RESULT:      -6.7      2.104      7.468
REMARK  Name = 
REMARK  3 active torsions:
REMARK  status: ('A' for Active; 'I' for Inactive)
REMARK    1  A    between atoms: C_2  and  C_3
REMARK    2  A    between atoms: C_4  and  N_5
REMARK    3  A    between atoms: C_22  and  C_23
REMARK                            x       y       z     vdW  Elec       q    Type
REMARK                         _______ _______ _______ _____ _____    ______ ____
ROOT
ATOM      1  C   UNL     1      -2.775  14.198  21.004  0.00  0.00    +0.000 C 
ATOM      2  C   UNL     1      -2.983  12.895  20.636  0.00  0.00    +0.000 C 
ATOM      3  O   UNL     1      -2.165  11.881  21.120  0.00  0.00    +0.000 OA
ATOM      4  C   UNL     1      -0.812  12.139  21.020  0.00  0.00    +0.000 A 
ATOM      5  C   UNL     1      -0.463  13.381  20.697  0.00  0.00    +0.000 A 
ATOM      6  C   UNL     1       0.117  13.347  19.276  0.00  0.00    +0.000 A 
ATOM      7  O   UNL     1       0.063  14.342  18.576  0.00  0.00    +0.000 OA
ATOM      8  N   UNL     1       0.615  12.117  18.736  0.00  0.00    +0.000 N 
ATOM      9  C   UNL     1       0.641  10.883  19.484  0.00  0.00    +0.000 A 
ATOM     10  C   UNL     1      -0.024  10.955  20.699  0.00  0.00    +0.000 A 
ATOM     11  C   UNL     1       0.036   9.921  21.614  0.00  0.00    +0.000 A 
ATOM     12  C   UNL     1       0.755   8.782  21.329  0.00  0.00    +0.000 A 
ATOM     13  C   UNL     1       1.362   8.606  20.081  0.00  0.00    +0.000 A 
ATOM     14  C   UNL     1       2.027   7.391  19.880  0.00  0.00    +0.000 A 
ATOM     15  C   UNL     1       2.583   7.067  18.666  0.00  0.00    +0.000 A 
ATOM     16  C   UNL     1       2.491   7.976  17.624  0.00  0.00    +0.000 A 
ATOM     17  C   UNL     1       1.874   9.240  17.825  0.00  0.00    +0.000 A 
ATOM     18  C   UNL     1       1.291   9.632  19.077  0.00  0.00    +0.000 A 
ATOM     19  C   UNL     1      -1.354  14.632  21.333  0.00  0.00    +0.000 C 
ATOM     20  H   UNL     1       0.977  12.140  17.801  0.00  0.00    +0.000 HD
ENDROOT
BRANCH  19  21
ATOM     21  C   UNL     1      -1.830  15.058  22.815  0.00  0.00    +0.000 A 
ATOM     22  C   UNL     1      -2.163  16.416  23.003  0.00  0.00    +0.000 A 
ATOM     23  C   UNL     1      -2.958  16.799  24.085  0.00  0.00    +0.000 A 
ATOM     24  C   UNL     1      -3.416  15.844  24.994  0.00  0.00    +0.000 A 
ATOM     25  C   UNL     1      -3.025  14.512  24.865  0.00  0.00    +0.000 A 
ATOM     26  C   UNL     1      -2.210  14.118  23.801  0.00  0.00    +0.000 A 
ENDBRANCH  19  21
BRANCH   2  27
ATOM     27  N   UNL     1      -3.871  12.475  19.652  0.00  0.00    +0.000 N 
ATOM     28  H   UNL     1      -4.109  13.214  18.987  0.00  0.00    +0.000 HD
ATOM     29  H   UNL     1      -3.450  11.707  19.124  0.00  0.00    +0.000 HD
ENDBRANCH   2  27
BRANCH   1  31
ATOM     30  N   UNL     1      -5.219  15.483  20.673  0.00  0.00    +0.000 NA
ATOM     31  C   UNL     1      -4.111  14.900  20.823  0.00  0.00    +0.000 C 
ENDBRANCH   1  31
TORSDOF 3
ENDMDL
MODEL 4
REMARK VINA RESULT:      -6.6      2.384      7.416
REMARK  Name = 
REMARK  3 active torsions:
REMARK  status: ('A' for Active; 'I' for Inactive)
REMARK    1  A    between atoms: C_2  and  C_3
REMARK    2  A    between atoms: C_4  and  N_5
REMARK    3  A    between atoms: C_22  and  C_23
REMARK                            x       y       z     vdW  Elec       q    Type
REMARK                         _______ _______ _______ _____ _____    ______ ____
ROOT
ATOM      1  C   UNL     1      -3.039  14.485  21.001  0.00  0.00    +0.000 C 
ATOM      2  C   UNL     1      -3.229  13.163  20.699  0.00  0.00    +0.000 C 
ATOM      3  O   UNL     1      -2.390  12.186  21.221  0.00  0.00    +0.000 OA
ATOM      4  C   UNL     1      -1.042  12.460  21.092  0.00  0.00    +0.000 A 
ATOM      5  C   UNL     1      -0.718  13.690  20.705  0.00  0.00    +0.000 A 
ATOM      6  C   UNL     1      -0.154  13.596  19.279  0.00  0.00    +0.000 A 
ATOM      7  O   UNL     1      -0.232  14.555  18.533  0.00  0.00    +0.000 OA
ATOM      8  N   UNL     1       0.357  12.350  18.794  0.00  0.00    +0.000 N 
ATOM      9  C   UNL     1       0.413  11.153  19.600  0.00  0.00    +0.000 A 
ATOM     10  C   UNL     1      -0.239  11.275  20.818  0.00  0.00    +0.000 A 
ATOM     11  C   UNL     1      -0.151  10.287  21.781  0.00  0.00    +0.000 A 
ATOM     12  C   UNL     1       0.582   9.147  21.543  0.00  0.00    +0.000 A 
ATOM     13  C   UNL     1       1.177   8.920  20.297  0.00  0.00    +0.000 A 
ATOM     14  C   UNL     1       1.860   7.707  20.148  0.00  0.00    +0.000 A 
ATOM     15  C   UNL     1       2.407   7.333  18.943  0.00  0.00    +0.000 A 
ATOM     16  C   UNL     1       2.287   8.189  17.860  0.00  0.00    +0.000 A 
ATOM     17  C   UNL     1       1.652   9.452  18.007  0.00  0.00    +0.000 A 
ATOM     18  C   UNL     1       1.077   9.895  19.246  0.00  0.00    +0.000 A 
ATOM     19  C   UNL     1      -1.621  14.957  21.290  0.00  0.00    +0.000 C 
ATOM     20  H   UNL     1       0.708  12.333  17.854  0.00  0.00    +0.000 HD
ENDROOT
BRANCH  19  21
ATOM     21  C   UNL     1      -2.087  15.447  22.755  0.00  0.00    +0.000 A 
ATOM     22  C   UNL     1      -1.889  14.537  23.815  0.00  0.00    +0.000 A 
ATOM     23  C   UNL     1      -1.864  14.994  25.134  0.00  0.00    +0.000 A 
ATOM     24  C   UNL     1      -2.048  16.348  25.414  0.00  0.00    +0.000 A 
ATOM     25  C   UNL     1      -2.327  17.243  24.381  0.00  0.00    +0.000 A 
ATOM     26  C   UNL     1      -2.379  16.797  23.059  0.00  0.00    +0.000 A 
ENDBRANCH  19  21
BRANCH   2  27
ATOM     27  N   UNL     1      -4.122  12.681  19.747  0.00  0.00    +0.000 N 
ATOM     28  H   UNL     1      -4.610  13.426  19.244  0.00  0.00    +0.000 HD
ATOM     29  H   UNL     1      -3.612  12.124  19.058  0.00  0.00    +0.000 HD
ENDBRANCH   2  27
BRANCH   1  31
ATOM     30  N   UNL     1      -5.507  15.715  20.639  0.00  0.00    +0.000 NA
ATOM     31  C   UNL     1      -4.388  15.157  20.803  0.00  0.00    +0.000 C 
ENDBRANCH   1  31
TORSDOF 3
ENDMDL
MODEL 5
REMARK VINA RESULT:      -6.5      3.669      7.950
REMARK  Name = 
REMARK  3 active torsions:
REMARK  status: ('A' for Active; 'I' for Inactive)
REMARK    1  A    between atoms: C_2  and  C_3
REMARK    2  A    between atoms: C_4  and  N_5
REMARK    3  A    between atoms: C_22  and  C_23
REMARK                            x       y       z     vdW  Elec       q    Type
REMARK                         _______ _______ _______ _____ _____    ______ ____
ROOT
ATOM      1  C   UNL     1      -6.057  13.935  22.882  0.00  0.00    +0.000 C 
ATOM      2  C   UNL     1      -5.868  12.642  22.475  0.00  0.00    +0.000 C 
ATOM      3  O   UNL     1      -4.694  12.264  21.835  0.00  0.00    +0.000 OA
ATOM      4  C   UNL     1      -4.313  13.094  20.798  0.00  0.00    +0.000 A 
ATOM      5  C   UNL     1      -4.965  14.247  20.688  0.00  0.00    +0.000 A 
ATOM      6  C   UNL     1      -5.833  14.172  19.423  0.00  0.00    +0.000 A 
ATOM      7  O   UNL     1      -6.846  14.843  19.343  0.00  0.00    +0.000 OA
ATOM      8  N   UNL     1      -5.512  13.232  18.391  0.00  0.00    +0.000 N 
ATOM      9  C   UNL     1      -4.368  12.354  18.453  0.00  0.00    +0.000 A 
ATOM     10  C   UNL     1      -3.717  12.377  19.678  0.00  0.00    +0.000 A 
ATOM     11  C   UNL     1      -2.513  11.724  19.864  0.00  0.00    +0.000 A 
ATOM     12  C   UNL     1      -1.937  11.021  18.830  0.00  0.00    +0.000 A 
ATOM     13  C   UNL     1      -2.593  10.876  17.604  0.00  0.00    +0.000 A 
ATOM     14  C   UNL     1      -1.939  10.101  16.638  0.00  0.00    +0.000 A 
ATOM     15  C   UNL     1      -2.526   9.813  15.428  0.00  0.00    +0.000 A 
ATOM     16  C   UNL     1      -3.789  10.316  15.161  0.00  0.00    +0.000 A 
ATOM     17  C   UNL     1      -4.444  11.154  16.103  0.00  0.00    +0.000 A 
ATOM     18  C   UNL     1      -3.869  11.497  17.373  0.00  0.00    +0.000 A 
ATOM     19  C   UNL     1      -5.385  15.044  22.085  0.00  0.00    +0.000 C 
ATOM     20  H   UNL     1      -6.111  13.213  17.587  0.00  0.00    +0.000 HD
ENDROOT
BRANCH  19  21
ATOM     21  C   UNL     1      -4.597  15.516  23.412  0.00  0.00    +0.000 A 
ATOM     22  C   UNL     1      -3.298  14.996  23.591  0.00  0.00    +0.000 A 
ATOM     23  C   UNL     1      -2.400  15.636  24.446  0.00  0.00    +0.000 A 
ATOM     24  C   UNL     1      -2.784  16.785  25.139  0.00  0.00    +0.000 A 
ATOM     25  C   UNL     1      -4.090  17.260  25.033  0.00  0.00    +0.000 A 
ATOM     26  C   UNL     1      -5.008  16.616  24.201  0.00  0.00    +0.000 A 
ENDBRANCH  19  21
BRANCH   2  27
ATOM     27  N   UNL     1      -6.840  11.648  22.492  0.00  0.00    +0.000 N 
ATOM     28  H   UNL     1      -6.574  10.820  21.953  0.00  0.00    +0.000 HD
ATOM     29  H   UNL     1      -7.003  11.351  23.457  0.00  0.00    +0.000 HD
ENDBRANCH   2  27
BRANCH   1  31
ATOM     30  N   UNL     1      -7.916  13.821  24.948  0.00  0.00    +0.000 NA
ATOM     31  C   UNL     1      -7.074  13.873  24.011  0.00  0.00    +0.000 C 
ENDBRANCH   1  31
TORSDOF 3
ENDMDL
MODEL 6
REMARK VINA RESULT:      -6.4      4.638      7.698
REMARK  Name = 
REMARK  3 active torsions:
REMARK  status: ('A' for Active; 'I' for Inactive)
REMARK    1  A    between atoms: C_2  and  C_3
REMARK    2  A    between atoms: C_4  and  N_5
REMARK    3  A    between atoms: C_22  and  C_23
REMARK                            x       y       z     vdW  Elec       q    Type
REMARK                         _______ _______ _______ _____ _____    ______ ____
ROOT
ATOM      1  C   UNL     1       3.193   3.999  18.284  0.00  0.00    +0.000 C 
ATOM      2  C   UNL     1       2.121   4.703  17.804  0.00  0.00    +0.000 C 
ATOM      3  O   UNL     1       2.209   6.073  17.589  0.00  0.00    +0.000 OA
ATOM      4  C   UNL     1       2.746   6.786  18.644  0.00  0.00    +0.000 A 
ATOM      5  C   UNL     1       3.310   6.077  19.617  0.00  0.00    +0.000 A 
ATOM      6  C   UNL     1       2.416   6.198  20.860  0.00  0.00    +0.000 A 
ATOM      7  O   UNL     1       2.419   5.314  21.697  0.00  0.00    +0.000 OA
ATOM      8  N   UNL     1       1.499   7.292  20.977  0.00  0.00    +0.000 N 
ATOM      9  C   UNL     1       1.390   8.338  19.987  0.00  0.00    +0.000 A 
ATOM     10  C   UNL     1       2.120   8.088  18.834  0.00  0.00    +0.000 A 
ATOM     11  C   UNL     1       2.260   9.050  17.851  0.00  0.00    +0.000 A 
ATOM     12  C   UNL     1       1.663  10.282  17.993  0.00  0.00    +0.000 A 
ATOM     13  C   UNL     1       0.831  10.557  19.083  0.00  0.00    +0.000 A 
ATOM     14  C   UNL     1       0.237  11.825  19.105  0.00  0.00    +0.000 A 
ATOM     15  C   UNL     1      -0.669  12.178  20.077  0.00  0.00    +0.000 A 
ATOM     16  C   UNL     1      -0.986  11.258  21.063  0.00  0.00    +0.000 A 
ATOM     17  C   UNL     1      -0.348   9.988  21.093  0.00  0.00    +0.000 A 
ATOM     18  C   UNL     1       0.615   9.576  20.111  0.00  0.00    +0.000 A 
ATOM     19  C   UNL     1       4.176   4.722  19.195  0.00  0.00    +0.000 C 
ATOM     20  H   UNL     1       0.930   7.327  21.801  0.00  0.00    +0.000 HD
ENDROOT
BRANCH  19  21
ATOM     21  C   UNL     1       5.368   4.406  18.155  0.00  0.00    +0.000 A 
ATOM     22  C   UNL     1       5.011   4.335  16.792  0.00  0.00    +0.000 A 
ATOM     23  C   UNL     1       5.988   4.481  15.804  0.00  0.00    +0.000 A 
ATOM     24  C   UNL     1       7.322   4.684  16.158  0.00  0.00    +0.000 A 
ATOM     25  C   UNL     1       7.698   4.673  17.501  0.00  0.00    +0.000 A 
ATOM     26  C   UNL     1       6.736   4.503  18.499  0.00  0.00    +0.000 A 
ENDBRANCH  19  21
BRANCH   2  27
ATOM     27  N   UNL     1       0.836   4.195  17.652  0.00  0.00    +0.000 N 
ATOM     28  H   UNL     1       0.814   3.175  17.596  0.00  0.00    +0.000 HD
ATOM     29  H   UNL     1       0.265   4.475  18.454  0.00  0.00    +0.000 HD
ENDBRANCH   2  27
BRANCH   1  31
ATOM     30  N   UNL     1       2.808   1.369  17.467  0.00  0.00    +0.000 NA
ATOM     31  C   UNL     1       2.983   2.562  17.837  0.00  0.00    +0.000 C 
ENDBRANCH   1  31
TORSDOF 3
ENDMDL
MODEL 7
REMARK VINA RESULT:      -6.4      2.130      4.111
REMARK  Name = 
REMARK  3 active torsions:
REMARK  status: ('A' for Active; 'I' for Inactive)
REMARK    1  A    between atoms: C_2  and  C_3
REMARK    2  A    between atoms: C_4  and  N_5
REMARK    3  A    between atoms: C_22  and  C_23
REMARK                            x       y       z     vdW  Elec       q    Type
REMARK                         _______ _______ _______ _____ _____    ______ ____
ROOT
ATOM      1  C   UNL     1       0.297  11.882  19.759  0.00  0.00    +0.000 C 
ATOM      2  C   UNL     1      -1.025  11.772  19.420  0.00  0.00    +0.000 C 
ATOM      3  O   UNL     1      -1.912  12.812  19.671  0.00  0.00    +0.000 OA
ATOM      4  C   UNL     1      -1.845  13.325  20.951  0.00  0.00    +0.000 A 
ATOM      5  C   UNL     1      -0.817  12.935  21.697  0.00  0.00    +0.000 A 
ATOM      6  C   UNL     1      -1.364  12.027  22.808  0.00  0.00    +0.000 A 
ATOM      7  O   UNL     1      -0.645  11.181  23.308  0.00  0.00    +0.000 OA
ATOM      8  N   UNL     1      -2.747  12.098  23.172  0.00  0.00    +0.000 N 
ATOM      9  C   UNL     1      -3.674  13.026  22.569  0.00  0.00    +0.000 A 
ATOM     10  C   UNL     1      -3.146  13.711  21.484  0.00  0.00    +0.000 A 
ATOM     11  C   UNL     1      -3.834  14.750  20.887  0.00  0.00    +0.000 A 
ATOM     12  C   UNL     1      -5.074  15.122  21.354  0.00  0.00    +0.000 A 
ATOM     13  C   UNL     1      -5.703  14.406  22.378  0.00  0.00    +0.000 A 
ATOM     14  C   UNL     1      -6.983  14.841  22.745  0.00  0.00    +0.000 A 
ATOM     15  C   UNL     1      -7.735  14.162  23.674  0.00  0.00    +0.000 A 
ATOM     16  C   UNL     1      -7.202  13.029  24.267  0.00  0.00    +0.000 A 
ATOM     17  C   UNL     1      -5.882  12.607  23.954  0.00  0.00    +0.000 A 
ATOM     18  C   UNL     1      -5.050  13.288  23.002  0.00  0.00    +0.000 A 
ATOM     19  C   UNL     1       0.660  12.749  20.956  0.00  0.00    +0.000 C 
ATOM     20  H   UNL     1      -3.063  11.481  23.896  0.00  0.00    +0.000 HD
ENDROOT
BRANCH  19  21
ATOM     21  C   UNL     1       1.585  13.668  20.006  0.00  0.00    +0.000 A 
ATOM     22  C   UNL     1       0.922  14.659  19.251  0.00  0.00    +0.000 A 
ATOM     23  C   UNL     1       1.637  15.743  18.738  0.00  0.00    +0.000 A 
ATOM     24  C   UNL     1       3.011  15.847  18.956  0.00  0.00    +0.000 A 
ATOM     25  C   UNL     1       3.690  14.832  19.630  0.00  0.00    +0.000 A 
ATOM     26  C   UNL     1       2.992  13.729  20.127  0.00  0.00    +0.000 A 
ENDBRANCH  19  21
BRANCH   2  27
ATOM     27  N   UNL     1      -1.641  10.608  18.972  0.00  0.00    +0.000 N 
ATOM     28  H   UNL     1      -1.072  10.089  18.299  0.00  0.00    +0.000 HD
ATOM     29  H   UNL     1      -1.818   9.992  19.769  0.00  0.00    +0.000 HD
ENDBRANCH   2  27
BRANCH   1  31
ATOM     30  N   UNL     1       1.662  10.118  18.097  0.00  0.00    +0.000 NA
ATOM     31  C   UNL     1       1.043  10.918  18.851  0.00  0.00    +0.000 C 
ENDBRANCH   1  31
TORSDOF 3
ENDMDL
MODEL 8
REMARK VINA RESULT:      -6.4      2.340      7.979
REMARK  Name = 
REMARK  3 active torsions:
REMARK  status: ('A' for Active; 'I' for Inactive)
REMARK    1  A    between atoms: C_2  and  C_3
REMARK    2  A    between atoms: C_4  and  N_5
REMARK    3  A    between atoms: C_22  and  C_23
REMARK                            x       y       z     vdW  Elec       q    Type
REMARK                         _______ _______ _______ _____ _____    ______ ____
ROOT
ATOM      1  C   UNL     1      -1.362  11.668  19.881  0.00  0.00    +0.000 C 
ATOM      2  C   UNL     1      -1.479  10.396  19.387  0.00  0.00    +0.000 C 
ATOM      3  O   UNL     1      -0.715   9.358  19.907  0.00  0.00    +0.000 OA
ATOM      4  C   UNL     1       0.631   9.643  20.029  0.00  0.00    +0.000 A 
ATOM      5  C   UNL     1       0.991  10.911  19.858  0.00  0.00    +0.000 A 
ATOM      6  C   UNL     1       1.774  11.000  18.540  0.00  0.00    +0.000 A 
ATOM      7  O   UNL     1       1.797  12.047  17.919  0.00  0.00    +0.000 OA
ATOM      8  N   UNL     1       2.377   9.825  17.987  0.00  0.00    +0.000 N 
ATOM      9  C   UNL     1       2.326   8.534  18.633  0.00  0.00    +0.000 A 
ATOM     10  C   UNL     1       1.488   8.500  19.738  0.00  0.00    +0.000 A 
ATOM     11  C   UNL     1       1.441   7.397  20.569  0.00  0.00    +0.000 A 
ATOM     12  C   UNL     1       2.222   6.294  20.307  0.00  0.00    +0.000 A 
ATOM     13  C   UNL     1       3.010   6.228  19.152  0.00  0.00    +0.000 A 
ATOM     14  C   UNL     1       3.729   5.042  18.959  0.00  0.00    +0.000 A 
ATOM     15  C   UNL     1       4.466   4.825  17.819  0.00  0.00    +0.000 A 
ATOM     16  C   UNL     1       4.504   5.813  16.849  0.00  0.00    +0.000 A 
ATOM     17  C   UNL     1       3.831   7.048  17.053  0.00  0.00    +0.000 A 
ATOM     18  C   UNL     1       3.060   7.330  18.231  0.00  0.00    +0.000 A 
ATOM     19  C   UNL     1      -0.016  12.095  20.450  0.00  0.00    +0.000 C 
ATOM     20  H   UNL     1       2.871   9.928  17.121  0.00  0.00    +0.000 HD
ENDROOT
BRANCH  19  21
ATOM     21  C   UNL     1      -0.715  12.394  21.873  0.00  0.00    +0.000 A 
ATOM     22  C   UNL     1      -0.755  13.743  22.284  0.00  0.00    +0.000 A 
ATOM     23  C   UNL     1      -1.670  14.152  23.256  0.00  0.00    +0.000 A 
ATOM     24  C   UNL     1      -2.540  13.229  23.836  0.00  0.00    +0.000 A 
ATOM     25  C   UNL     1      -2.453  11.879  23.498  0.00  0.00    +0.000 A 
ATOM     26  C   UNL     1      -1.526  11.450  22.545  0.00  0.00    +0.000 A 
ENDBRANCH  19  21
BRANCH   2  27
ATOM     27  N   UNL     1      -2.202  10.043  18.253  0.00  0.00    +0.000 N 
ATOM     28  H   UNL     1      -2.388   9.039  18.195  0.00  0.00    +0.000 HD
ATOM     29  H   UNL     1      -3.104  10.526  18.264  0.00  0.00    +0.000 HD
ENDBRANCH   2  27
BRANCH   1  31
ATOM     30  N   UNL     1      -3.763  12.940  19.292  0.00  0.00    +0.000 NA
ATOM     31  C   UNL     1      -2.674  12.363  19.559  0.00  0.00    +0.000 C 
ENDBRANCH   1  31
TORSDOF 3
ENDMDL
MODEL 9
REMARK VINA RESULT:      -6.3      2.905      7.683
REMARK  Name = 
REMARK  3 active torsions:
REMARK  status: ('A' for Active; 'I' for Inactive)
REMARK    1  A    between atoms: C_2  and  C_3
REMARK    2  A    between atoms: C_4  and  N_5
REMARK    3  A    between atoms: C_22  and  C_23
REMARK                            x       y       z     vdW  Elec       q    Type
REMARK                         _______ _______ _______ _____ _____    ______ ____
ROOT
ATOM      1  C   UNL     1      -3.414  12.941  22.383  0.00  0.00    +0.000 C 
ATOM      2  C   UNL     1      -2.378  13.798  22.644  0.00  0.00    +0.000 C 
ATOM      3  O   UNL     1      -1.995  14.755  21.711  0.00  0.00    +0.000 OA
ATOM      4  C   UNL     1      -1.831  14.271  20.428  0.00  0.00    +0.000 A 
ATOM      5  C   UNL     1      -2.268  13.037  20.195  0.00  0.00    +0.000 A 
ATOM      6  C   UNL     1      -1.040  12.142  19.974  0.00  0.00    +0.000 A 
ATOM      7  O   UNL     1      -1.107  10.951  20.217  0.00  0.00    +0.000 OA
ATOM      8  N   UNL     1       0.211  12.726  19.594  0.00  0.00    +0.000 N 
ATOM      9  C   UNL     1       0.381  14.141  19.360  0.00  0.00    +0.000 A 
ATOM     10  C   UNL     1      -0.725  14.899  19.715  0.00  0.00    +0.000 A 
ATOM     11  C   UNL     1      -0.800  16.245  19.413  0.00  0.00    +0.000 A 
ATOM     12  C   UNL     1       0.238  16.870  18.760  0.00  0.00    +0.000 A 
ATOM     13  C   UNL     1       1.422  16.184  18.468  0.00  0.00    +0.000 A 
ATOM     14  C   UNL     1       2.431  16.928  17.843  0.00  0.00    +0.000 A 
ATOM     15  C   UNL     1       3.669  16.388  17.589  0.00  0.00    +0.000 A 
ATOM     16  C   UNL     1       3.913  15.072  17.949  0.00  0.00    +0.000 A 
ATOM     17  C   UNL     1       2.882  14.283  18.528  0.00  0.00    +0.000 A 
ATOM     18  C   UNL     1       1.569  14.794  18.801  0.00  0.00    +0.000 A 
ATOM     19  C   UNL     1      -3.677  12.555  20.934  0.00  0.00    +0.000 C 
ATOM     20  H   UNL     1       0.988  12.105  19.468  0.00  0.00    +0.000 HD
ENDROOT
BRANCH  19  21
ATOM     21  C   UNL     1      -5.170  13.156  21.049  0.00  0.00    +0.000 A 
ATOM     22  C   UNL     1      -5.335  14.507  20.676  0.00  0.00    +0.000 A 
ATOM     23  C   UNL     1      -6.602  14.992  20.345  0.00  0.00    +0.000 A 
ATOM     24  C   UNL     1      -7.713  14.150  20.395  0.00  0.00    +0.000 A 
ATOM     25  C   UNL     1      -7.575  12.836  20.842  0.00  0.00    +0.000 A 
ATOM     26  C   UNL     1      -6.318  12.344  21.200  0.00  0.00    +0.000 A 
ENDBRANCH  19  21
BRANCH   2  27
ATOM     27  N   UNL     1      -1.519  13.704  23.733  0.00  0.00    +0.000 N 
ATOM     28  H   UNL     1      -1.472  14.568  24.280  0.00  0.00    +0.000 HD
ATOM     29  H   UNL     1      -1.843  12.961  24.356  0.00  0.00    +0.000 HD
ENDBRANCH   2  27
BRANCH   1  31
ATOM     30  N   UNL     1      -4.371  12.122  24.862  0.00  0.00    +0.000 NA
ATOM     31  C   UNL     1      -3.937  12.494  23.738  0.00  0.00    +0.000 C 
ENDBRANCH   1  31
TORSDOF 3
ENDMDL
