MODEL 1
REMARK VINA RESULT:      -6.7      0.000      0.000
REMARK  Name = 
REMARK  4 active torsions:
REMARK  status: ('A' for Active; 'I' for Inactive)
REMARK    1  A    between atoms: C_1  and  O_2
REMARK    2  A    between atoms: O_2  and  C_3
REMARK    3  A    between atoms: C_5  and  C_6
REMARK    4  A    between atoms: C_10  and  N_11
REMARK                            x       y       z     vdW  Elec       q    Type
REMARK                         _______ _______ _______ _____ _____    ______ ____
ROOT
ATOM      1  C   UNL     1       6.636   4.492  18.027  0.00  0.00    +0.000 A 
ATOM      2  N   UNL     1       5.610   4.133  18.748  0.00  0.00    +0.000 NA
ATOM      3  C   UNL     1       4.427   3.828  18.079  0.00  0.00    +0.000 A 
ATOM      4  C   UNL     1       3.257   3.434  18.933  0.00  0.00    +0.000 C 
ATOM      5  C   UNL     1       4.308   3.876  16.735  0.00  0.00    +0.000 A 
ATOM      6  N   UNL     1       5.405   4.249  15.983  0.00  0.00    +0.000 N 
ATOM      7  C   UNL     1       5.583   4.371  14.634  0.00  0.00    +0.000 A 
ATOM      8  C   UNL     1       6.899   4.776  14.492  0.00  0.00    +0.000 A 
ATOM      9  N   UNL     1       7.526   4.907  15.719  0.00  0.00    +0.000 NA
ATOM     10  C   UNL     1       6.593   4.575  16.590  0.00  0.00    +0.000 A 
ENDROOT
BRANCH   8  11
ATOM     11  N   UNL     1       7.599   5.036  13.254  0.00  0.00    +0.000 N 
ATOM     12  O   UNL     1       7.217   4.399  12.260  0.00  0.00    +0.000 OA
ATOM     13  O   UNL     1       8.519   5.863  13.270  0.00  0.00    +0.000 OA
ENDBRANCH   8  11
BRANCH   1  15
ATOM     14  C   UNL     1       7.973   6.116  19.109  0.00  0.00    +0.000 C 
ATOM     15  O   UNL     1       7.853   4.813  18.535  0.00  0.00    +0.000 OA
ENDBRANCH   1  15
TORSDOF 2
ENDMDL
MODEL 2
REMARK VINA RESULT:      -6.3      2.432      5.016
REMARK  Name = 
REMARK  4 active torsions:
REMARK  status: ('A' for Active; 'I' for Inactive)
REMARK    1  A    between atoms: C_1  and  O_2
REMARK    2  A    between atoms: O_2  and  C_3
REMARK    3  A    between atoms: C_5  and  C_6
REMARK    4  A    between atoms: C_10  and  N_11
REMARK                            x       y       z     vdW  Elec       q    Type
REMARK                         _______ _______ _______ _____ _____    ______ ____
ROOT
ATOM      1  C   UNL     1       7.140   4.583  17.569  0.00  0.00    +0.000 A 
ATOM      2  N   UNL     1       7.515   4.787  16.336  0.00  0.00    +0.000 NA
ATOM      3  C   UNL     1       6.576   4.568  15.332  0.00  0.00    +0.000 A 
ATOM      4  C   UNL     1       7.039   4.795  13.921  0.00  0.00    +0.000 C 
ATOM      5  C   UNL     1       5.310   4.172  15.581  0.00  0.00    +0.000 A 
ATOM      6  N   UNL     1       4.923   3.968  16.891  0.00  0.00    +0.000 N 
ATOM      7  C   UNL     1       3.730   3.588  17.437  0.00  0.00    +0.000 A 
ATOM      8  C   UNL     1       3.965   3.562  18.802  0.00  0.00    +0.000 A 
ATOM      9  N   UNL     1       5.270   3.912  19.100  0.00  0.00    +0.000 NA
ATOM     10  C   UNL     1       5.811   4.154  17.921  0.00  0.00    +0.000 A 
ENDROOT
BRANCH   8  11
ATOM     11  N   UNL     1       3.015   3.232  19.840  0.00  0.00    +0.000 N 
ATOM     12  O   UNL     1       3.442   2.545  20.780  0.00  0.00    +0.000 OA
ATOM     13  O   UNL     1       1.857   3.653  19.722  0.00  0.00    +0.000 OA
ENDBRANCH   8  11
BRANCH   1  15
ATOM     14  C   UNL     1       8.018   6.087  19.170  0.00  0.00    +0.000 C 
ATOM     15  O   UNL     1       7.940   4.758  18.650  0.00  0.00    +0.000 OA
ENDBRANCH   1  15
TORSDOF 2
ENDMDL
MODEL 3
REMARK VINA RESULT:      -6.2      2.243      2.746
REMARK  Name = 
REMARK  4 active torsions:
REMARK  status: ('A' for Active; 'I' for Inactive)
REMARK    1  A    between atoms: C_1  and  O_2
REMARK    2  A    between atoms: O_2  and  C_3
REMARK    3  A    between atoms: C_5  and  C_6
REMARK    4  A    between atoms: C_10  and  N_11
REMARK                            x       y       z     vdW  Elec       q    Type
REMARK                         _______ _______ _______ _____ _____    ______ ____
ROOT
ATOM      1  C   UNL     1       4.621   4.501  19.045  0.00  0.00    +0.000 A 
ATOM      2  N   UNL     1       3.723   5.189  19.694  0.00  0.00    +0.000 NA
ATOM      3  C   UNL     1       3.221   6.334  19.081  0.00  0.00    +0.000 A 
ATOM      4  C   UNL     1       2.200   7.116  19.856  0.00  0.00    +0.000 C 
ATOM      5  C   UNL     1       3.611   6.745  17.855  0.00  0.00    +0.000 A 
ATOM      6  N   UNL     1       4.557   6.002  17.175  0.00  0.00    +0.000 N 
ATOM      7  C   UNL     1       5.123   6.162  15.942  0.00  0.00    +0.000 A 
ATOM      8  C   UNL     1       5.998   5.096  15.821  0.00  0.00    +0.000 A 
ATOM      9  N   UNL     1       5.983   4.295  16.949  0.00  0.00    +0.000 NA
ATOM     10  C   UNL     1       5.098   4.873  17.738  0.00  0.00    +0.000 A 
ENDROOT
BRANCH   8  11
ATOM     11  N   UNL     1       6.843   4.790  14.687  0.00  0.00    +0.000 N 
ATOM     12  O   UNL     1       6.489   3.836  13.978  0.00  0.00    +0.000 OA
ATOM     13  O   UNL     1       7.846   5.492  14.505  0.00  0.00    +0.000 OA
ENDBRANCH   8  11
BRANCH   1  15
ATOM     14  C   UNL     1       4.309   2.304  19.865  0.00  0.00    +0.000 C 
ATOM     15  O   UNL     1       5.198   3.365  19.511  0.00  0.00    +0.000 OA
ENDBRANCH   1  15
TORSDOF 2
ENDMDL
MODEL 4
REMARK VINA RESULT:      -6.2      3.021      5.006
REMARK  Name = 
REMARK  4 active torsions:
REMARK  status: ('A' for Active; 'I' for Inactive)
REMARK    1  A    between atoms: C_1  and  O_2
REMARK    2  A    between atoms: O_2  and  C_3
REMARK    3  A    between atoms: C_5  and  C_6
REMARK    4  A    between atoms: C_10  and  N_11
REMARK                            x       y       z     vdW  Elec       q    Type
REMARK                         _______ _______ _______ _____ _____    ______ ____
ROOT
ATOM      1  C   UNL     1       6.596   4.996  16.007  0.00  0.00    +0.000 A 
ATOM      2  N   UNL     1       7.377   5.998  16.304  0.00  0.00    +0.000 NA
ATOM      3  C   UNL     1       6.938   6.892  17.276  0.00  0.00    +0.000 A 
ATOM      4  C   UNL     1       7.848   8.045  17.587  0.00  0.00    +0.000 C 
ATOM      5  C   UNL     1       5.760   6.757  17.922  0.00  0.00    +0.000 A 
ATOM      6  N   UNL     1       4.947   5.686  17.605  0.00  0.00    +0.000 N 
ATOM      7  C   UNL     1       3.733   5.293  18.092  0.00  0.00    +0.000 A 
ATOM      8  C   UNL     1       3.429   4.144  17.381  0.00  0.00    +0.000 A 
ATOM      9  N   UNL     1       4.425   3.831  16.472  0.00  0.00    +0.000 NA
ATOM     10  C   UNL     1       5.322   4.782  16.643  0.00  0.00    +0.000 A 
ENDROOT
BRANCH   8  11
ATOM     11  N   UNL     1       2.249   3.320  17.524  0.00  0.00    +0.000 N 
ATOM     12  O   UNL     1       1.159   3.883  17.344  0.00  0.00    +0.000 OA
ATOM     13  O   UNL     1       2.406   2.127  17.813  0.00  0.00    +0.000 OA
ENDBRANCH   8  11
BRANCH   1  15
ATOM     14  C   UNL     1       6.646   4.387  13.721  0.00  0.00    +0.000 C 
ATOM     15  O   UNL     1       6.890   4.043  15.087  0.00  0.00    +0.000 OA
ENDBRANCH   1  15
TORSDOF 2
ENDMDL
MODEL 5
REMARK VINA RESULT:      -6.1      2.923      3.956
REMARK  Name = 
REMARK  4 active torsions:
REMARK  status: ('A' for Active; 'I' for Inactive)
REMARK    1  A    between atoms: C_1  and  O_2
REMARK    2  A    between atoms: O_2  and  C_3
REMARK    3  A    between atoms: C_5  and  C_6
REMARK    4  A    between atoms: C_10  and  N_11
REMARK                            x       y       z     vdW  Elec       q    Type
REMARK                         _______ _______ _______ _____ _____    ______ ____
ROOT
ATOM      1  C   UNL     1       3.069   6.661  18.447  0.00  0.00    +0.000 A 
ATOM      2  N   UNL     1       2.129   6.218  19.237  0.00  0.00    +0.000 NA
ATOM      3  C   UNL     1       2.294   4.950  19.787  0.00  0.00    +0.000 A 
ATOM      4  C   UNL     1       1.191   4.458  20.679  0.00  0.00    +0.000 C 
ATOM      5  C   UNL     1       3.377   4.179  19.548  0.00  0.00    +0.000 A 
ATOM      6  N   UNL     1       4.368   4.663  18.717  0.00  0.00    +0.000 N 
ATOM      7  C   UNL     1       5.557   4.126  18.313  0.00  0.00    +0.000 A 
ATOM      8  C   UNL     1       6.110   5.089  17.486  0.00  0.00    +0.000 A 
ATOM      9  N   UNL     1       5.287   6.197  17.374  0.00  0.00    +0.000 NA
ATOM     10  C   UNL     1       4.251   5.901  18.135  0.00  0.00    +0.000 A 
ENDROOT
BRANCH   8  11
ATOM     11  N   UNL     1       7.383   5.021  16.804  0.00  0.00    +0.000 N 
ATOM     12  O   UNL     1       7.540   5.799  15.851  0.00  0.00    +0.000 OA
ATOM     13  O   UNL     1       8.217   4.203  17.212  0.00  0.00    +0.000 OA
ENDBRANCH   8  11
BRANCH   1  15
ATOM     14  C   UNL     1       1.904   8.691  18.097  0.00  0.00    +0.000 C 
ATOM     15  O   UNL     1       3.050   7.875  17.842  0.00  0.00    +0.000 OA
ENDBRANCH   1  15
TORSDOF 2
ENDMDL
MODEL 6
REMARK VINA RESULT:      -6.1      2.739      5.261
REMARK  Name = 
REMARK  4 active torsions:
REMARK  status: ('A' for Active; 'I' for Inactive)
REMARK    1  A    between atoms: C_1  and  O_2
REMARK    2  A    between atoms: O_2  and  C_3
REMARK    3  A    between atoms: C_5  and  C_6
REMARK    4  A    between atoms: C_10  and  N_11
REMARK                            x       y       z     vdW  Elec       q    Type
REMARK                         _______ _______ _______ _____ _____    ______ ____
ROOT
ATOM      1  C   UNL     1       5.757   5.301  15.939  0.00  0.00    +0.000 A 
ATOM      2  N   UNL     1       6.577   6.298  16.130  0.00  0.00    +0.000 NA
ATOM      3  C   UNL     1       6.882   6.639  17.444  0.00  0.00    +0.000 A 
ATOM      4  C   UNL     1       7.816   7.800  17.636  0.00  0.00    +0.000 C 
ATOM      5  C   UNL     1       6.381   5.981  18.511  0.00  0.00    +0.000 A 
ATOM      6  N   UNL     1       5.521   4.922  18.295  0.00  0.00    +0.000 N 
ATOM      7  C   UNL     1       4.882   4.080  19.160  0.00  0.00    +0.000 A 
ATOM      8  C   UNL     1       4.163   3.223  18.344  0.00  0.00    +0.000 A 
ATOM      9  N   UNL     1       4.344   3.525  17.006  0.00  0.00    +0.000 NA
ATOM     10  C   UNL     1       5.172   4.551  17.021  0.00  0.00    +0.000 A 
ENDROOT
BRANCH   8  11
ATOM     11  N   UNL     1       3.320   2.126  18.765  0.00  0.00    +0.000 N 
ATOM     12  O   UNL     1       3.718   0.986  18.484  0.00  0.00    +0.000 OA
ATOM     13  O   UNL     1       2.273   2.397  19.367  0.00  0.00    +0.000 OA
ENDBRANCH   8  11
BRANCH   1  15
ATOM     14  C   UNL     1       6.340   4.101  13.985  0.00  0.00    +0.000 C 
ATOM     15  O   UNL     1       5.370   4.852  14.719  0.00  0.00    +0.000 OA
ENDBRANCH   1  15
TORSDOF 2
ENDMDL
MODEL 7
REMARK VINA RESULT:      -6.0      2.667      3.494
REMARK  Name = 
REMARK  4 active torsions:
REMARK  status: ('A' for Active; 'I' for Inactive)
REMARK    1  A    between atoms: C_1  and  O_2
REMARK    2  A    between atoms: O_2  and  C_3
REMARK    3  A    between atoms: C_5  and  C_6
REMARK    4  A    between atoms: C_10  and  N_11
REMARK                            x       y       z     vdW  Elec       q    Type
REMARK                         _______ _______ _______ _____ _____    ______ ____
ROOT
ATOM      1  C   UNL     1       2.861   5.597  18.715  0.00  0.00    +0.000 A 
ATOM      2  N   UNL     1       1.899   4.759  18.987  0.00  0.00    +0.000 NA
ATOM      3  C   UNL     1       1.968   3.492  18.414  0.00  0.00    +0.000 A 
ATOM      4  C   UNL     1       0.841   2.551  18.730  0.00  0.00    +0.000 C 
ATOM      5  C   UNL     1       2.981   3.100  17.612  0.00  0.00    +0.000 A 
ATOM      6  N   UNL     1       3.997   3.995  17.339  0.00  0.00    +0.000 N 
ATOM      7  C   UNL     1       5.133   3.879  16.589  0.00  0.00    +0.000 A 
ATOM      8  C   UNL     1       5.752   5.113  16.702  0.00  0.00    +0.000 A 
ATOM      9  N   UNL     1       5.019   5.978  17.497  0.00  0.00    +0.000 NA
ATOM     10  C   UNL     1       3.973   5.263  17.864  0.00  0.00    +0.000 A 
ENDROOT
BRANCH   8  11
ATOM     11  N   UNL     1       7.005   5.514  16.104  0.00  0.00    +0.000 N 
ATOM     12  O   UNL     1       7.502   6.571  16.521  0.00  0.00    +0.000 OA
ATOM     13  O   UNL     1       7.490   4.784  15.229  0.00  0.00    +0.000 OA
ENDBRANCH   8  11
BRANCH   1  15
ATOM     14  C   UNL     1       2.252   7.868  18.450  0.00  0.00    +0.000 C 
ATOM     15  O   UNL     1       2.932   6.862  19.202  0.00  0.00    +0.000 OA
ENDBRANCH   1  15
TORSDOF 2
ENDMDL
MODEL 8
REMARK VINA RESULT:      -6.0      2.287      3.099
REMARK  Name = 
REMARK  4 active torsions:
REMARK  status: ('A' for Active; 'I' for Inactive)
REMARK    1  A    between atoms: C_1  and  O_2
REMARK    2  A    between atoms: O_2  and  C_3
REMARK    3  A    between atoms: C_5  and  C_6
REMARK    4  A    between atoms: C_10  and  N_11
REMARK                            x       y       z     vdW  Elec       q    Type
REMARK                         _______ _______ _______ _____ _____    ______ ____
ROOT
ATOM      1  C   UNL     1       4.008   4.127  18.515  0.00  0.00    +0.000 A 
ATOM      2  N   UNL     1       3.240   4.875  19.258  0.00  0.00    +0.000 NA
ATOM      3  C   UNL     1       3.101   6.213  18.901  0.00  0.00    +0.000 A 
ATOM      4  C   UNL     1       2.224   7.055  19.782  0.00  0.00    +0.000 C 
ATOM      5  C   UNL     1       3.710   6.755  17.824  0.00  0.00    +0.000 A 
ATOM      6  N   UNL     1       4.514   5.950  17.040  0.00  0.00    +0.000 N 
ATOM      7  C   UNL     1       5.232   6.210  15.908  0.00  0.00    +0.000 A 
ATOM      8  C   UNL     1       5.829   5.003  15.589  0.00  0.00    +0.000 A 
ATOM      9  N   UNL     1       5.497   4.015  16.500  0.00  0.00    +0.000 NA
ATOM     10  C   UNL     1       4.700   4.626  17.355  0.00  0.00    +0.000 A 
ENDROOT
BRANCH   8  11
ATOM     11  N   UNL     1       6.690   4.731  14.460  0.00  0.00    +0.000 N 
ATOM     12  O   UNL     1       7.719   5.419  14.373  0.00  0.00    +0.000 OA
ATOM     13  O   UNL     1       6.347   3.843  13.669  0.00  0.00    +0.000 OA
ENDBRANCH   8  11
BRANCH   1  15
ATOM     14  C   UNL     1       3.171   1.917  18.397  0.00  0.00    +0.000 C 
ATOM     15  O   UNL     1       4.236   2.808  18.735  0.00  0.00    +0.000 OA
ENDBRANCH   1  15
TORSDOF 2
ENDMDL
MODEL 9
REMARK VINA RESULT:      -6.0      2.216      4.912
REMARK  Name = 
REMARK  4 active torsions:
REMARK  status: ('A' for Active; 'I' for Inactive)
REMARK    1  A    between atoms: C_1  and  O_2
REMARK    2  A    between atoms: O_2  and  C_3
REMARK    3  A    between atoms: C_5  and  C_6
REMARK    4  A    between atoms: C_10  and  N_11
REMARK                            x       y       z     vdW  Elec       q    Type
REMARK                         _______ _______ _______ _____ _____    ______ ____
ROOT
ATOM      1  C   UNL     1       7.164   5.570  16.783  0.00  0.00    +0.000 A 
ATOM      2  N   UNL     1       7.451   5.499  15.512  0.00  0.00    +0.000 NA
ATOM      3  C   UNL     1       6.665   4.668  14.719  0.00  0.00    +0.000 A 
ATOM      4  C   UNL     1       7.027   4.592  13.263  0.00  0.00    +0.000 C 
ATOM      5  C   UNL     1       5.626   3.954  15.203  0.00  0.00    +0.000 A 
ATOM      6  N   UNL     1       5.327   4.045  16.549  0.00  0.00    +0.000 N 
ATOM      7  C   UNL     1       4.348   3.463  17.304  0.00  0.00    +0.000 A 
ATOM      8  C   UNL     1       4.564   3.944  18.584  0.00  0.00    +0.000 A 
ATOM      9  N   UNL     1       5.651   4.800  18.629  0.00  0.00    +0.000 NA
ATOM     10  C   UNL     1       6.078   4.837  17.382  0.00  0.00    +0.000 A 
ENDROOT
BRANCH   8  11
ATOM     11  N   UNL     1       3.789   3.644  19.767  0.00  0.00    +0.000 N 
ATOM     12  O   UNL     1       3.058   4.552  20.192  0.00  0.00    +0.000 OA
ATOM     13  O   UNL     1       3.906   2.518  20.267  0.00  0.00    +0.000 OA
ENDBRANCH   8  11
BRANCH   1  15
ATOM     14  C   UNL     1       7.643   7.749  17.568  0.00  0.00    +0.000 C 
ATOM     15  O   UNL     1       7.836   6.338  17.677  0.00  0.00    +0.000 OA
ENDBRANCH   1  15
TORSDOF 2
ENDMDL
