MODEL 1
REMARK VINA RESULT:      -7.6      0.000      0.000
REMARK  Name = 
REMARK  6 active torsions:
REMARK  status: ('A' for Active; 'I' for Inactive)
REMARK    1  A    between atoms: C_1  and  O_2
REMARK    2  A    between atoms: O_2  and  C_3
REMARK    3  A    between atoms: C_6  and  C_7
REMARK    4  A    between atoms: C_7  and  C_8
REMARK    5  A    between atoms: C_16  and  C_18
REMARK    6  A    between atoms: C_22  and  C_23
REMARK                            x       y       z     vdW  Elec       q    Type
REMARK                         _______ _______ _______ _____ _____    ______ ____
ROOT
ATOM      1  C   UNL     1       1.255  10.422  18.792  0.00  0.00    +0.000 C 
ATOM      2  C   UNL     1       1.969  11.774  18.646  0.00  0.00    +0.000 C 
ATOM      3  C   UNL     1       1.421  12.764  19.660  0.00  0.00    +0.000 C 
ATOM      4  O   UNL     1       0.015  12.919  19.510  0.00  0.00    +0.000 OA
ATOM      5  C   UNL     1      -0.762  11.716  19.641  0.00  0.00    +0.000 C 
ATOM      6  C   UNL     1      -0.721  11.152  21.081  0.00  0.00    +0.000 C 
ATOM      7  C   UNL     1      -1.260  12.158  22.088  0.00  0.00    +0.000 C 
ATOM      8  N   UNL     1      -2.615  12.549  21.718  0.00  0.00    +0.000 N 
ATOM      9  C   UNL     1      -3.606  12.444  22.691  0.00  0.00    +0.000 C 
ATOM     10  O   UNL     1      -3.366  12.078  23.842  0.00  0.00    +0.000 OA
ATOM     11  C   UNL     1      -2.702  13.150  20.381  0.00  0.00    +0.000 C 
ATOM     12  C   UNL     1      -2.213  12.145  19.328  0.00  0.00    +0.000 C 
ATOM     13  C   UNL     1      -0.259  10.666  18.623  0.00  0.00    +0.000 C 
ENDROOT
BRANCH   9  14
ATOM     14  C   UNL     1      -5.024  12.766  22.387  0.00  0.00    +0.000 A 
ATOM     15  C   UNL     1      -5.852  13.146  23.453  0.00  0.00    +0.000 A 
ATOM     16  C   UNL     1      -7.196  13.448  23.231  0.00  0.00    +0.000 A 
ATOM     17  C   UNL     1      -7.714  13.389  21.936  0.00  0.00    +0.000 A 
ATOM     18  C   UNL     1      -6.902  12.978  20.875  0.00  0.00    +0.000 A 
ATOM     19  C   UNL     1      -5.572  12.625  21.112  0.00  0.00    +0.000 A 
BRANCH  18  20
ATOM     20  C   UNL     1      -7.416  12.939  19.541  0.00  0.00    +0.000 C 
ATOM     21  N   UNL     1      -7.859  12.913  18.466  0.00  0.00    +0.000 NA
ENDBRANCH  18  20
ENDBRANCH   9  14
BRANCH   1  22
ATOM     22  C   UNL     1       1.777   9.347  17.821  0.00  0.00    +0.000 C 
BRANCH  22  26
ATOM     23  C   UNL     1       2.739   5.607  19.784  0.00  0.00    +0.000 A 
ATOM     24  C   UNL     1       3.120   5.818  18.460  0.00  0.00    +0.000 A 
ATOM     25  C   UNL     1       2.871   7.043  17.831  0.00  0.00    +0.000 A 
ATOM     26  C   UNL     1       2.178   8.058  18.513  0.00  0.00    +0.000 A 
ATOM     27  C   UNL     1       1.826   7.845  19.845  0.00  0.00    +0.000 A 
ATOM     28  C   UNL     1       2.101   6.633  20.482  0.00  0.00    +0.000 A 
BRANCH  23  30
ATOM     29  C   UNL     1       1.968   3.796  21.091  0.00  0.00    +0.000 C 
ATOM     30  O   UNL     1       2.993   4.357  20.279  0.00  0.00    +0.000 OA
ENDBRANCH  23  30
ENDBRANCH  22  26
ENDBRANCH   1  22
TORSDOF 5
ENDMDL
MODEL 2
REMARK VINA RESULT:      -7.5      0.728      1.142
REMARK  Name = 
REMARK  6 active torsions:
REMARK  status: ('A' for Active; 'I' for Inactive)
REMARK    1  A    between atoms: C_1  and  O_2
REMARK    2  A    between atoms: O_2  and  C_3
REMARK    3  A    between atoms: C_6  and  C_7
REMARK    4  A    between atoms: C_7  and  C_8
REMARK    5  A    between atoms: C_16  and  C_18
REMARK    6  A    between atoms: C_22  and  C_23
REMARK                            x       y       z     vdW  Elec       q    Type
REMARK                         _______ _______ _______ _____ _____    ______ ____
ROOT
ATOM      1  C   UNL     1       1.576   9.804  18.483  0.00  0.00    +0.000 C 
ATOM      2  C   UNL     1       2.256  11.123  18.084  0.00  0.00    +0.000 C 
ATOM      3  C   UNL     1       1.753  12.255  18.965  0.00  0.00    +0.000 C 
ATOM      4  O   UNL     1       0.339  12.373  18.882  0.00  0.00    +0.000 OA
ATOM      5  C   UNL     1      -0.408  11.199  19.247  0.00  0.00    +0.000 C 
ATOM      6  C   UNL     1      -0.269  10.867  20.751  0.00  0.00    +0.000 C 
ATOM      7  C   UNL     1      -0.763  12.013  21.622  0.00  0.00    +0.000 C 
ATOM      8  N   UNL     1      -2.144  12.331  21.282  0.00  0.00    +0.000 N 
ATOM      9  C   UNL     1      -3.072  12.371  22.320  0.00  0.00    +0.000 C 
ATOM     10  O   UNL     1      -2.756  12.191  23.496  0.00  0.00    +0.000 OA
ATOM     11  C   UNL     1      -2.324  12.716  19.876  0.00  0.00    +0.000 C 
ATOM     12  C   UNL     1      -1.882  11.562  18.963  0.00  0.00    +0.000 C 
ATOM     13  C   UNL     1       0.051  10.007  18.373  0.00  0.00    +0.000 C 
ENDROOT
BRANCH   9  14
ATOM     14  C   UNL     1      -4.512  12.631  22.061  0.00  0.00    +0.000 A 
ATOM     15  C   UNL     1      -5.288  13.128  23.117  0.00  0.00    +0.000 A 
ATOM     16  C   UNL     1      -6.648  13.379  22.936  0.00  0.00    +0.000 A 
ATOM     17  C   UNL     1      -7.235  13.150  21.690  0.00  0.00    +0.000 A 
ATOM     18  C   UNL     1      -6.473  12.622  20.644  0.00  0.00    +0.000 A 
ATOM     19  C   UNL     1      -5.125  12.322  20.847  0.00  0.00    +0.000 A 
BRANCH  18  20
ATOM     20  C   UNL     1      -7.059  12.409  19.356  0.00  0.00    +0.000 C 
ATOM     21  N   UNL     1      -7.523  12.258  18.301  0.00  0.00    +0.000 NA
ENDBRANCH  18  20
ENDBRANCH   9  14
BRANCH   1  22
ATOM     22  C   UNL     1       2.057   8.596  17.659  0.00  0.00    +0.000 C 
BRANCH  22  26
ATOM     23  C   UNL     1       2.446   4.944  19.956  0.00  0.00    +0.000 A 
ATOM     24  C   UNL     1       2.022   6.117  20.578  0.00  0.00    +0.000 A 
ATOM     25  C   UNL     1       1.832   7.290  19.838  0.00  0.00    +0.000 A 
ATOM     26  C   UNL     1       2.125   7.312  18.463  0.00  0.00    +0.000 A 
ATOM     27  C   UNL     1       2.523   6.126  17.848  0.00  0.00    +0.000 A 
ATOM     28  C   UNL     1       2.683   4.948  18.581  0.00  0.00    +0.000 A 
BRANCH  23  30
ATOM     29  C   UNL     1       1.459   3.194  21.200  0.00  0.00    +0.000 C 
ATOM     30  O   UNL     1       2.639   3.873  20.786  0.00  0.00    +0.000 OA
ENDBRANCH  23  30
ENDBRANCH  22  26
ENDBRANCH   1  22
TORSDOF 5
ENDMDL
MODEL 3
REMARK VINA RESULT:      -7.5      5.870     11.999
REMARK  Name = 
REMARK  6 active torsions:
REMARK  status: ('A' for Active; 'I' for Inactive)
REMARK    1  A    between atoms: C_1  and  O_2
REMARK    2  A    between atoms: O_2  and  C_3
REMARK    3  A    between atoms: C_6  and  C_7
REMARK    4  A    between atoms: C_7  and  C_8
REMARK    5  A    between atoms: C_16  and  C_18
REMARK    6  A    between atoms: C_22  and  C_23
REMARK                            x       y       z     vdW  Elec       q    Type
REMARK                         _______ _______ _______ _____ _____    ______ ____
ROOT
ATOM      1  C   UNL     1       2.105   5.939  20.492  0.00  0.00    +0.000 C 
ATOM      2  C   UNL     1       1.733   4.493  20.853  0.00  0.00    +0.000 C 
ATOM      3  C   UNL     1       2.810   3.540  20.362  0.00  0.00    +0.000 C 
ATOM      4  O   UNL     1       3.005   3.673  18.960  0.00  0.00    +0.000 OA
ATOM      5  C   UNL     1       3.372   4.987  18.504  0.00  0.00    +0.000 C 
ATOM      6  C   UNL     1       4.779   5.400  18.996  0.00  0.00    +0.000 C 
ATOM      7  C   UNL     1       5.846   4.430  18.508  0.00  0.00    +0.000 C 
ATOM      8  N   UNL     1       5.806   4.343  17.054  0.00  0.00    +0.000 N 
ATOM      9  C   UNL     1       6.997   4.549  16.361  0.00  0.00    +0.000 C 
ATOM     10  O   UNL     1       8.067   4.757  16.934  0.00  0.00    +0.000 OA
ATOM     11  C   UNL     1       4.508   3.893  16.534  0.00  0.00    +0.000 C 
ATOM     12  C   UNL     1       3.409   4.876  16.963  0.00  0.00    +0.000 C 
ATOM     13  C   UNL     1       2.305   6.008  18.964  0.00  0.00    +0.000 C 
ENDROOT
BRANCH   9  14
ATOM     14  C   UNL     1       7.040   4.535  14.876  0.00  0.00    +0.000 A 
ATOM     15  C   UNL     1       7.909   5.430  14.238  0.00  0.00    +0.000 A 
ATOM     16  C   UNL     1       7.983   5.471  12.845  0.00  0.00    +0.000 A 
ATOM     17  C   UNL     1       7.198   4.603  12.085  0.00  0.00    +0.000 A 
ATOM     18  C   UNL     1       6.304   3.733  12.715  0.00  0.00    +0.000 A 
ATOM     19  C   UNL     1       6.196   3.734  14.107  0.00  0.00    +0.000 A 
BRANCH  18  20
ATOM     20  C   UNL     1       5.515   2.821  11.945  0.00  0.00    +0.000 C 
ATOM     21  N   UNL     1       4.864   2.101  11.305  0.00  0.00    +0.000 NA
ENDBRANCH  18  20
ENDBRANCH   9  14
BRANCH   1  22
ATOM     22  C   UNL     1       1.080   6.976  20.986  0.00  0.00    +0.000 C 
BRANCH  22  26
ATOM     23  C   UNL     1       1.389  10.827  19.028  0.00  0.00    +0.000 A 
ATOM     24  C   UNL     1       0.942  10.749  20.346  0.00  0.00    +0.000 A 
ATOM     25  C   UNL     1       0.894   9.519  21.013  0.00  0.00    +0.000 A 
ATOM     26  C   UNL     1       1.244   8.337  20.337  0.00  0.00    +0.000 A 
ATOM     27  C   UNL     1       1.714   8.431  19.028  0.00  0.00    +0.000 A 
ATOM     28  C   UNL     1       1.790   9.663  18.373  0.00  0.00    +0.000 A 
BRANCH  23  30
ATOM     29  C   UNL     1       2.612  12.634  18.121  0.00  0.00    +0.000 C 
ATOM     30  O   UNL     1       1.349  12.074  18.466  0.00  0.00    +0.000 OA
ENDBRANCH  23  30
ENDBRANCH  22  26
ENDBRANCH   1  22
TORSDOF 5
ENDMDL
MODEL 4
REMARK VINA RESULT:      -7.3      1.707      2.136
REMARK  Name = 
REMARK  6 active torsions:
REMARK  status: ('A' for Active; 'I' for Inactive)
REMARK    1  A    between atoms: C_1  and  O_2
REMARK    2  A    between atoms: O_2  and  C_3
REMARK    3  A    between atoms: C_6  and  C_7
REMARK    4  A    between atoms: C_7  and  C_8
REMARK    5  A    between atoms: C_16  and  C_18
REMARK    6  A    between atoms: C_22  and  C_23
REMARK                            x       y       z     vdW  Elec       q    Type
REMARK                         _______ _______ _______ _____ _____    ______ ____
ROOT
ATOM      1  C   UNL     1       1.116   9.775  18.563  0.00  0.00    +0.000 C 
ATOM      2  C   UNL     1       2.057  10.983  18.432  0.00  0.00    +0.000 C 
ATOM      3  C   UNL     1       1.702  12.035  19.469  0.00  0.00    +0.000 C 
ATOM      4  O   UNL     1       0.344  12.438  19.339  0.00  0.00    +0.000 OA
ATOM      5  C   UNL     1      -0.632  11.389  19.459  0.00  0.00    +0.000 C 
ATOM      6  C   UNL     1      -0.679  10.800  20.888  0.00  0.00    +0.000 C 
ATOM      7  C   UNL     1      -1.022  11.867  21.919  0.00  0.00    +0.000 C 
ATOM      8  N   UNL     1      -2.290  12.497  21.571  0.00  0.00    +0.000 N 
ATOM      9  C   UNL     1      -3.275  12.551  22.555  0.00  0.00    +0.000 C 
ATOM     10  O   UNL     1      -3.093  12.127  23.696  0.00  0.00    +0.000 OA
ATOM     11  C   UNL     1      -2.281  13.130  20.246  0.00  0.00    +0.000 C 
ATOM     12  C   UNL     1      -1.987  12.073  19.170  0.00  0.00    +0.000 C 
ATOM     13  C   UNL     1      -0.331  10.286  18.416  0.00  0.00    +0.000 C 
ENDROOT
BRANCH   9  14
ATOM     14  C   UNL     1      -4.616  13.124  22.274  0.00  0.00    +0.000 A 
ATOM     15  C   UNL     1      -5.478  12.396  21.442  0.00  0.00    +0.000 A 
ATOM     16  C   UNL     1      -6.746  12.890  21.132  0.00  0.00    +0.000 A 
ATOM     17  C   UNL     1      -7.164  14.109  21.668  0.00  0.00    +0.000 A 
ATOM     18  C   UNL     1      -6.296  14.855  22.471  0.00  0.00    +0.000 A 
ATOM     19  C   UNL     1      -5.009  14.381  22.733  0.00  0.00    +0.000 A 
BRANCH  18  20
ATOM     20  C   UNL     1      -6.724  16.093  23.046  0.00  0.00    +0.000 C 
ATOM     21  N   UNL     1      -7.078  17.086  23.538  0.00  0.00    +0.000 NA
ENDBRANCH  18  20
ENDBRANCH   9  14
BRANCH   1  22
ATOM     22  C   UNL     1       1.432   8.643  17.568  0.00  0.00    +0.000 C 
BRANCH  22  26
ATOM     23  C   UNL     1       4.272   5.695  18.984  0.00  0.00    +0.000 A 
ATOM     24  C   UNL     1       4.538   6.419  17.823  0.00  0.00    +0.000 A 
ATOM     25  C   UNL     1       3.661   7.417  17.385  0.00  0.00    +0.000 A 
ATOM     26  C   UNL     1       2.466   7.662  18.085  0.00  0.00    +0.000 A 
ATOM     27  C   UNL     1       2.223   6.950  19.259  0.00  0.00    +0.000 A 
ATOM     28  C   UNL     1       3.115   5.974  19.711  0.00  0.00    +0.000 A 
BRANCH  23  30
ATOM     29  C   UNL     1       6.279   4.595  18.394  0.00  0.00    +0.000 C 
ATOM     30  O   UNL     1       5.177   4.715  19.288  0.00  0.00    +0.000 OA
ENDBRANCH  23  30
ENDBRANCH  22  26
ENDBRANCH   1  22
TORSDOF 5
ENDMDL
MODEL 5
REMARK VINA RESULT:      -7.3      1.299      1.624
REMARK  Name = 
REMARK  6 active torsions:
REMARK  status: ('A' for Active; 'I' for Inactive)
REMARK    1  A    between atoms: C_1  and  O_2
REMARK    2  A    between atoms: O_2  and  C_3
REMARK    3  A    between atoms: C_6  and  C_7
REMARK    4  A    between atoms: C_7  and  C_8
REMARK    5  A    between atoms: C_16  and  C_18
REMARK    6  A    between atoms: C_22  and  C_23
REMARK                            x       y       z     vdW  Elec       q    Type
REMARK                         _______ _______ _______ _____ _____    ______ ____
ROOT
ATOM      1  C   UNL     1       1.392   9.894  18.619  0.00  0.00    +0.000 C 
ATOM      2  C   UNL     1       2.189  11.183  18.371  0.00  0.00    +0.000 C 
ATOM      3  C   UNL     1       1.679  12.293  19.275  0.00  0.00    +0.000 C 
ATOM      4  O   UNL     1       0.289  12.515  19.072  0.00  0.00    +0.000 OA
ATOM      5  C   UNL     1      -0.562  11.376  19.290  0.00  0.00    +0.000 C 
ATOM      6  C   UNL     1      -0.588  10.946  20.776  0.00  0.00    +0.000 C 
ATOM      7  C   UNL     1      -1.088  12.070  21.672  0.00  0.00    +0.000 C 
ATOM      8  N   UNL     1      -2.407  12.503  21.230  0.00  0.00    +0.000 N 
ATOM      9  C   UNL     1      -3.425  12.547  22.180  0.00  0.00    +0.000 C 
ATOM     10  O   UNL     1      -3.234  12.275  23.366  0.00  0.00    +0.000 OA
ATOM     11  C   UNL     1      -2.428  12.983  19.842  0.00  0.00    +0.000 C 
ATOM     12  C   UNL     1      -1.977  11.858  18.899  0.00  0.00    +0.000 C 
ATOM     13  C   UNL     1      -0.100  10.209  18.386  0.00  0.00    +0.000 C 
ENDROOT
BRANCH   9  14
ATOM     14  C   UNL     1      -4.814  12.921  21.809  0.00  0.00    +0.000 A 
ATOM     15  C   UNL     1      -5.502  12.084  20.920  0.00  0.00    +0.000 A 
ATOM     16  C   UNL     1      -6.804  12.391  20.525  0.00  0.00    +0.000 A 
ATOM     17  C   UNL     1      -7.431  13.531  21.032  0.00  0.00    +0.000 A 
ATOM     18  C   UNL     1      -6.737  14.388  21.892  0.00  0.00    +0.000 A 
ATOM     19  C   UNL     1      -5.415  14.103  22.241  0.00  0.00    +0.000 A 
BRANCH  18  20
ATOM     20  C   UNL     1      -7.379  15.544  22.437  0.00  0.00    +0.000 C 
ATOM     21  N   UNL     1      -7.916  16.467  22.897  0.00  0.00    +0.000 NA
ENDBRANCH  18  20
ENDBRANCH   9  14
BRANCH   1  22
ATOM     22  C   UNL     1       1.870   8.705  17.765  0.00  0.00    +0.000 C 
BRANCH  22  26
ATOM     23  C   UNL     1       2.574   5.119  20.089  0.00  0.00    +0.000 A 
ATOM     24  C   UNL     1       2.983   5.179  18.758  0.00  0.00    +0.000 A 
ATOM     25  C   UNL     1       2.818   6.351  18.011  0.00  0.00    +0.000 A 
ATOM     26  C   UNL     1       2.182   7.467  18.583  0.00  0.00    +0.000 A 
ATOM     27  C   UNL     1       1.802   7.404  19.922  0.00  0.00    +0.000 A 
ATOM     28  C   UNL     1       1.994   6.244  20.676  0.00  0.00    +0.000 A 
BRANCH  23  30
ATOM     29  C   UNL     1       1.557   3.291  21.188  0.00  0.00    +0.000 C 
ATOM     30  O   UNL     1       2.745   3.909  20.704  0.00  0.00    +0.000 OA
ENDBRANCH  23  30
ENDBRANCH  22  26
ENDBRANCH   1  22
TORSDOF 5
ENDMDL
MODEL 6
REMARK VINA RESULT:      -7.3      1.723      2.106
REMARK  Name = 
REMARK  6 active torsions:
REMARK  status: ('A' for Active; 'I' for Inactive)
REMARK    1  A    between atoms: C_1  and  O_2
REMARK    2  A    between atoms: O_2  and  C_3
REMARK    3  A    between atoms: C_6  and  C_7
REMARK    4  A    between atoms: C_7  and  C_8
REMARK    5  A    between atoms: C_16  and  C_18
REMARK    6  A    between atoms: C_22  and  C_23
REMARK                            x       y       z     vdW  Elec       q    Type
REMARK                         _______ _______ _______ _____ _____    ______ ____
ROOT
ATOM      1  C   UNL     1       1.488   9.405  18.362  0.00  0.00    +0.000 C 
ATOM      2  C   UNL     1       2.299  10.541  17.719  0.00  0.00    +0.000 C 
ATOM      3  C   UNL     1       2.118  11.824  18.514  0.00  0.00    +0.000 C 
ATOM      4  O   UNL     1       0.743  12.175  18.604  0.00  0.00    +0.000 OA
ATOM      5  C   UNL     1      -0.114  11.189  19.204  0.00  0.00    +0.000 C 
ATOM      6  C   UNL     1       0.195  10.988  20.707  0.00  0.00    +0.000 C 
ATOM      7  C   UNL     1       0.023  12.283  21.488  0.00  0.00    +0.000 C 
ATOM      8  N   UNL     1      -1.327  12.799  21.297  0.00  0.00    +0.000 N 
ATOM      9  C   UNL     1      -2.071  13.101  22.436  0.00  0.00    +0.000 C 
ATOM     10  O   UNL     1      -1.613  12.985  23.573  0.00  0.00    +0.000 OA
ATOM     11  C   UNL     1      -1.653  13.069  19.890  0.00  0.00    +0.000 C 
ATOM     12  C   UNL     1      -1.539  11.772  19.075  0.00  0.00    +0.000 C 
ATOM     13  C   UNL     1       0.015   9.856  18.430  0.00  0.00    +0.000 C 
ENDROOT
BRANCH   9  14
ATOM     14  C   UNL     1      -3.474  13.578  22.338  0.00  0.00    +0.000 A 
ATOM     15  C   UNL     1      -3.726  14.930  22.611  0.00  0.00    +0.000 A 
ATOM     16  C   UNL     1      -5.026  15.433  22.547  0.00  0.00    +0.000 A 
ATOM     17  C   UNL     1      -6.078  14.588  22.193  0.00  0.00    +0.000 A 
ATOM     18  C   UNL     1      -5.838  13.232  21.953  0.00  0.00    +0.000 A 
ATOM     19  C   UNL     1      -4.543  12.723  22.071  0.00  0.00    +0.000 A 
BRANCH  18  20
ATOM     20  C   UNL     1      -6.906  12.363  21.564  0.00  0.00    +0.000 C 
ATOM     21  N   UNL     1      -7.789  11.679  21.241  0.00  0.00    +0.000 NA
ENDBRANCH  18  20
ENDBRANCH   9  14
BRANCH   1  22
ATOM     22  C   UNL     1       1.645   8.056  17.636  0.00  0.00    +0.000 C 
BRANCH  22  26
ATOM     23  C   UNL     1       4.949   5.587  18.959  0.00  0.00    +0.000 A 
ATOM     24  C   UNL     1       5.089   6.395  17.832  0.00  0.00    +0.000 A 
ATOM     25  C   UNL     1       4.053   7.244  17.426  0.00  0.00    +0.000 A 
ATOM     26  C   UNL     1       2.832   7.248  18.123  0.00  0.00    +0.000 A 
ATOM     27  C   UNL     1       2.713   6.456  19.264  0.00  0.00    +0.000 A 
ATOM     28  C   UNL     1       3.759   5.631  19.685  0.00  0.00    +0.000 A 
BRANCH  23  30
ATOM     29  C   UNL     1       7.272   5.413  19.354  0.00  0.00    +0.000 C 
ATOM     30  O   UNL     1       6.009   4.767  19.232  0.00  0.00    +0.000 OA
ENDBRANCH  23  30
ENDBRANCH  22  26
ENDBRANCH   1  22
TORSDOF 5
ENDMDL
MODEL 7
REMARK VINA RESULT:      -7.3      2.923      4.045
REMARK  Name = 
REMARK  6 active torsions:
REMARK  status: ('A' for Active; 'I' for Inactive)
REMARK    1  A    between atoms: C_1  and  O_2
REMARK    2  A    between atoms: O_2  and  C_3
REMARK    3  A    between atoms: C_6  and  C_7
REMARK    4  A    between atoms: C_7  and  C_8
REMARK    5  A    between atoms: C_16  and  C_18
REMARK    6  A    between atoms: C_22  and  C_23
REMARK                            x       y       z     vdW  Elec       q    Type
REMARK                         _______ _______ _______ _____ _____    ______ ____
ROOT
ATOM      1  C   UNL     1       2.094   7.908  19.505  0.00  0.00    +0.000 C 
ATOM      2  C   UNL     1       2.031   8.274  18.014  0.00  0.00    +0.000 C 
ATOM      3  C   UNL     1       1.832   9.772  17.854  0.00  0.00    +0.000 C 
ATOM      4  O   UNL     1       0.655  10.202  18.526  0.00  0.00    +0.000 OA
ATOM      5  C   UNL     1       0.607   9.925  19.937  0.00  0.00    +0.000 C 
ATOM      6  C   UNL     1       1.661  10.738  20.725  0.00  0.00    +0.000 C 
ATOM      7  C   UNL     1       1.458  12.235  20.545  0.00  0.00    +0.000 C 
ATOM      8  N   UNL     1       0.107  12.602  20.949  0.00  0.00    +0.000 N 
ATOM      9  C   UNL     1      -0.033  13.635  21.873  0.00  0.00    +0.000 C 
ATOM     10  O   UNL     1       0.931  14.260  22.316  0.00  0.00    +0.000 OA
ATOM     11  C   UNL     1      -0.938  11.905  20.187  0.00  0.00    +0.000 C 
ATOM     12  C   UNL     1      -0.797  10.388  20.384  0.00  0.00    +0.000 C 
ATOM     13  C   UNL     1       0.793   8.407  20.169  0.00  0.00    +0.000 C 
ENDROOT
BRANCH   9  14
ATOM     14  C   UNL     1      -1.368  14.038  22.385  0.00  0.00    +0.000 A 
ATOM     15  C   UNL     1      -1.821  15.330  22.083  0.00  0.00    +0.000 A 
ATOM     16  C   UNL     1      -3.062  15.769  22.547  0.00  0.00    +0.000 A 
ATOM     17  C   UNL     1      -3.862  14.910  23.302  0.00  0.00    +0.000 A 
ATOM     18  C   UNL     1      -3.400  13.634  23.635  0.00  0.00    +0.000 A 
ATOM     19  C   UNL     1      -2.135  13.219  23.213  0.00  0.00    +0.000 A 
BRANCH  18  20
ATOM     20  C   UNL     1      -4.224  12.737  24.385  0.00  0.00    +0.000 C 
ATOM     21  N   UNL     1      -4.914  12.027  24.995  0.00  0.00    +0.000 NA
ENDBRANCH  18  20
ENDBRANCH   9  14
BRANCH   1  22
ATOM     22  C   UNL     1       2.330   6.408  19.758  0.00  0.00    +0.000 C 
BRANCH  22  26
ATOM     23  C   UNL     1       4.840   4.425  16.837  0.00  0.00    +0.000 A 
ATOM     24  C   UNL     1       3.522   4.012  17.018  0.00  0.00    +0.000 A 
ATOM     25  C   UNL     1       2.679   4.681  17.914  0.00  0.00    +0.000 A 
ATOM     26  C   UNL     1       3.175   5.746  18.686  0.00  0.00    +0.000 A 
ATOM     27  C   UNL     1       4.487   6.167  18.477  0.00  0.00    +0.000 A 
ATOM     28  C   UNL     1       5.319   5.517  17.561  0.00  0.00    +0.000 A 
BRANCH  23  30
ATOM     29  C   UNL     1       6.603   4.364  15.265  0.00  0.00    +0.000 C 
ATOM     30  O   UNL     1       5.581   3.668  15.971  0.00  0.00    +0.000 OA
ENDBRANCH  23  30
ENDBRANCH  22  26
ENDBRANCH   1  22
TORSDOF 5
ENDMDL
MODEL 8
REMARK VINA RESULT:      -7.2      1.554      2.010
REMARK  Name = 
REMARK  6 active torsions:
REMARK  status: ('A' for Active; 'I' for Inactive)
REMARK    1  A    between atoms: C_1  and  O_2
REMARK    2  A    between atoms: O_2  and  C_3
REMARK    3  A    between atoms: C_6  and  C_7
REMARK    4  A    between atoms: C_7  and  C_8
REMARK    5  A    between atoms: C_16  and  C_18
REMARK    6  A    between atoms: C_22  and  C_23
REMARK                            x       y       z     vdW  Elec       q    Type
REMARK                         _______ _______ _______ _____ _____    ______ ____
ROOT
ATOM      1  C   UNL     1       1.666   9.950  18.456  0.00  0.00    +0.000 C 
ATOM      2  C   UNL     1       2.390  11.163  17.852  0.00  0.00    +0.000 C 
ATOM      3  C   UNL     1       2.089  12.409  18.670  0.00  0.00    +0.000 C 
ATOM      4  O   UNL     1       0.689  12.643  18.742  0.00  0.00    +0.000 OA
ATOM      5  C   UNL     1      -0.094  11.577  19.306  0.00  0.00    +0.000 C 
ATOM      6  C   UNL     1       0.206  11.369  20.809  0.00  0.00    +0.000 C 
ATOM      7  C   UNL     1      -0.086  12.627  21.614  0.00  0.00    +0.000 C 
ATOM      8  N   UNL     1      -1.471  13.034  21.408  0.00  0.00    +0.000 N 
ATOM      9  C   UNL     1      -2.256  13.248  22.539  0.00  0.00    +0.000 C 
ATOM     10  O   UNL     1      -1.810  13.145  23.682  0.00  0.00    +0.000 OA
ATOM     11  C   UNL     1      -1.795  13.307  20.002  0.00  0.00    +0.000 C 
ATOM     12  C   UNL     1      -1.560  12.042  19.162  0.00  0.00    +0.000 C 
ATOM     13  C   UNL     1       0.159  10.276  18.507  0.00  0.00    +0.000 C 
ENDROOT
BRANCH   9  14
ATOM     14  C   UNL     1      -3.692  13.609  22.425  0.00  0.00    +0.000 A 
ATOM     15  C   UNL     1      -4.015  14.817  21.791  0.00  0.00    +0.000 A 
ATOM     16  C   UNL     1      -5.346  15.216  21.666  0.00  0.00    +0.000 A 
ATOM     17  C   UNL     1      -6.363  14.397  22.160  0.00  0.00    +0.000 A 
ATOM     18  C   UNL     1      -6.045  13.208  22.823  0.00  0.00    +0.000 A 
ATOM     19  C   UNL     1      -4.709  12.841  22.993  0.00  0.00    +0.000 A 
BRANCH  18  20
ATOM     20  C   UNL     1      -7.081  12.350  23.310  0.00  0.00    +0.000 C 
ATOM     21  N   UNL     1      -7.916  11.634  23.686  0.00  0.00    +0.000 NA
ENDBRANCH  18  20
ENDBRANCH   9  14
BRANCH   1  22
ATOM     22  C   UNL     1       1.946   8.635  17.706  0.00  0.00    +0.000 C 
BRANCH  22  26
ATOM     23  C   UNL     1       2.316   5.196  20.312  0.00  0.00    +0.000 A 
ATOM     24  C   UNL     1       1.892   6.419  20.828  0.00  0.00    +0.000 A 
ATOM     25  C   UNL     1       1.709   7.524  19.989  0.00  0.00    +0.000 A 
ATOM     26  C   UNL     1       2.007   7.426  18.619  0.00  0.00    +0.000 A 
ATOM     27  C   UNL     1       2.405   6.190  18.110  0.00  0.00    +0.000 A 
ATOM     28  C   UNL     1       2.559   5.080  18.944  0.00  0.00    +0.000 A 
BRANCH  23  30
ATOM     29  C   UNL     1       1.517   3.174  21.239  0.00  0.00    +0.000 C 
ATOM     30  O   UNL     1       2.503   4.201  21.233  0.00  0.00    +0.000 OA
ENDBRANCH  23  30
ENDBRANCH  22  26
ENDBRANCH   1  22
TORSDOF 5
ENDMDL
MODEL 9
REMARK VINA RESULT:      -7.2      3.385      9.762
REMARK  Name = 
REMARK  6 active torsions:
REMARK  status: ('A' for Active; 'I' for Inactive)
REMARK    1  A    between atoms: C_1  and  O_2
REMARK    2  A    between atoms: O_2  and  C_3
REMARK    3  A    between atoms: C_6  and  C_7
REMARK    4  A    between atoms: C_7  and  C_8
REMARK    5  A    between atoms: C_16  and  C_18
REMARK    6  A    between atoms: C_22  and  C_23
REMARK                            x       y       z     vdW  Elec       q    Type
REMARK                         _______ _______ _______ _____ _____    ______ ____
ROOT
ATOM      1  C   UNL     1      -0.796  12.162  20.020  0.00  0.00    +0.000 C 
ATOM      2  C   UNL     1       0.303  12.853  20.841  0.00  0.00    +0.000 C 
ATOM      3  C   UNL     1       1.607  12.083  20.718  0.00  0.00    +0.000 C 
ATOM      4  O   UNL     1       1.441  10.734  21.134  0.00  0.00    +0.000 OA
ATOM      5  C   UNL     1       0.444   9.980  20.423  0.00  0.00    +0.000 C 
ATOM      6  C   UNL     1       0.839   9.743  18.946  0.00  0.00    +0.000 C 
ATOM      7  C   UNL     1       2.153   8.983  18.836  0.00  0.00    +0.000 C 
ATOM      8  N   UNL     1       2.054   7.721  19.560  0.00  0.00    +0.000 N 
ATOM      9  C   UNL     1       2.395   6.556  18.876  0.00  0.00    +0.000 C 
ATOM     10  O   UNL     1       2.808   6.568  17.716  0.00  0.00    +0.000 OA
ATOM     11  C   UNL     1       1.743   7.891  20.985  0.00  0.00    +0.000 C 
ATOM     12  C   UNL     1       0.396   8.612  21.139  0.00  0.00    +0.000 C 
ATOM     13  C   UNL     1      -0.917  10.709  20.521  0.00  0.00    +0.000 C 
ENDROOT
BRANCH   9  14
ATOM     14  C   UNL     1       2.272   5.221  19.516  0.00  0.00    +0.000 A 
ATOM     15  C   UNL     1       1.002   4.818  19.951  0.00  0.00    +0.000 A 
ATOM     16  C   UNL     1       0.827   3.580  20.570  0.00  0.00    +0.000 A 
ATOM     17  C   UNL     1       1.921   2.731  20.741  0.00  0.00    +0.000 A 
ATOM     18  C   UNL     1       3.196   3.142  20.340  0.00  0.00    +0.000 A 
ATOM     19  C   UNL     1       3.374   4.404  19.770  0.00  0.00    +0.000 A 
BRANCH  18  20
ATOM     20  C   UNL     1       4.319   2.268  20.488  0.00  0.00    +0.000 C 
ATOM     21  N   UNL     1       5.226   1.547  20.583  0.00  0.00    +0.000 NA
ENDBRANCH  18  20
ENDBRANCH   9  14
BRANCH   1  22
ATOM     22  C   UNL     1      -2.147  12.901  20.062  0.00  0.00    +0.000 C 
BRANCH  22  26
ATOM     23  C   UNL     1      -3.036  14.237  24.085  0.00  0.00    +0.000 A 
ATOM     24  C   UNL     1      -2.520  15.133  23.151  0.00  0.00    +0.000 A 
ATOM     25  C   UNL     1      -2.284  14.733  21.831  0.00  0.00    +0.000 A 
ATOM     26  C   UNL     1      -2.513  13.400  21.447  0.00  0.00    +0.000 A 
ATOM     27  C   UNL     1      -3.055  12.520  22.382  0.00  0.00    +0.000 A 
ATOM     28  C   UNL     1      -3.318  12.929  23.692  0.00  0.00    +0.000 A 
BRANCH  23  30
ATOM     29  C   UNL     1      -2.076  15.467  25.860  0.00  0.00    +0.000 C 
ATOM     30  O   UNL     1      -3.183  14.727  25.354  0.00  0.00    +0.000 OA
ENDBRANCH  23  30
ENDBRANCH  22  26
ENDBRANCH   1  22
TORSDOF 5
ENDMDL
