MODEL 1
REMARK VINA RESULT:      -7.9      0.000      0.000
REMARK  Name = 
REMARK  18 active torsions:
REMARK  status: ('A' for Active; 'I' for Inactive)
REMARK    1  A    between atoms: C_1  and  C_2
REMARK    2  A    between atoms: C_2  and  C_3
REMARK    3  A    between atoms: C_3  and  C_4
REMARK    4  A    between atoms: C_3  and  C_6
REMARK    5  A    between atoms: C_3  and  C_19
REMARK    6  A    between atoms: C_4  and  C_5
REMARK    7  A    between atoms: C_9  and  O_10
REMARK    8  A    between atoms: O_10  and  C_11
REMARK    9  A    between atoms: C_11  and  C_12
REMARK   10  A    between atoms: N_14  and  O_15
REMARK   11  A    between atoms: C_16  and  C_17
REMARK   12  A    between atoms: C_22  and  O_23
REMARK   13  A    between atoms: O_23  and  C_24
REMARK   14  A    between atoms: C_24  and  C_25
REMARK   15  A    between atoms: C_25  and  C_26
REMARK   16  A    between atoms: C_25  and  C_27
REMARK   17  A    between atoms: C_25  and  O_28
REMARK   18  A    between atoms: C_29  and  C_30
REMARK                            x       y       z     vdW  Elec       q    Type
REMARK                         _______ _______ _______ _____ _____    ______ ____
ROOT
ATOM      1  C   UNL     1       2.706   4.482  18.988  0.00  0.00    +0.000 C 
ENDROOT
BRANCH   1   2
ATOM      2  C   UNL     1       3.913   4.609  18.010  0.00  0.00    +0.000 A 
ATOM      3  C   UNL     1       3.879   3.983  16.757  0.00  0.00    +0.000 A 
ATOM      4  C   UNL     1       4.970   4.025  15.891  0.00  0.00    +0.000 A 
ATOM      5  C   UNL     1       6.180   4.609  16.274  0.00  0.00    +0.000 A 
ATOM      6  C   UNL     1       6.245   5.271  17.506  0.00  0.00    +0.000 A 
ATOM      7  C   UNL     1       7.480   5.955  18.026  0.00  0.00    +0.000 C 
ATOM      8  C   UNL     1       5.109   5.267  18.351  0.00  0.00    +0.000 A 
BRANCH   5   9
ATOM      9  O   UNL     1       7.321   4.533  15.504  0.00  0.00    +0.000 OA
BRANCH   9  10
ATOM     10  C   UNL     1       7.231   5.242  14.265  0.00  0.00    +0.000 C 
BRANCH  10  11
ATOM     11  C   UNL     1       7.108   4.378  13.021  0.00  0.00    +0.000 C 
ATOM     12  O   UNL     1       7.561   4.722  11.930  0.00  0.00    +0.000 OA
ATOM     13  N   UNL     1       6.479   3.174  13.198  0.00  0.00    +0.000 N 
ATOM     14  H   UNL     1       5.843   3.026  13.978  0.00  0.00    +0.000 HD
BRANCH  13  15
ATOM     15  O   UNL     1       6.234   2.438  12.013  0.00  0.00    +0.000 OA
ATOM     16  H   UNL     1       5.387   1.970  12.229  0.00  0.00    +0.000 HD
ENDBRANCH  13  15
ENDBRANCH  10  11
ENDBRANCH   9  10
ENDBRANCH   5   9
ENDBRANCH   1   2
BRANCH   1  17
ATOM     17  C   UNL     1       2.256   5.924  19.356  0.00  0.00    +0.000 A 
ATOM     18  C   UNL     1       1.787   6.192  20.644  0.00  0.00    +0.000 A 
ATOM     19  C   UNL     1       1.419   7.474  21.036  0.00  0.00    +0.000 A 
ATOM     20  C   UNL     1       1.483   8.563  20.155  0.00  0.00    +0.000 A 
ATOM     21  C   UNL     1       1.907   8.321  18.841  0.00  0.00    +0.000 A 
ATOM     22  C   UNL     1       1.983   9.371  17.766  0.00  0.00    +0.000 C 
ATOM     23  C   UNL     1       2.289   7.011  18.461  0.00  0.00    +0.000 A 
BRANCH  20  24
ATOM     24  O   UNL     1       1.146   9.849  20.538  0.00  0.00    +0.000 OA
BRANCH  24  25
ATOM     25  C   UNL     1      -0.268  10.028  20.761  0.00  0.00    +0.000 C 
BRANCH  25  26
ATOM     26  C   UNL     1      -0.779  11.454  20.488  0.00  0.00    +0.000 C 
ATOM     27  C   UNL     1      -1.433  12.072  21.717  0.00  0.00    +0.000 C 
ATOM     28  C   UNL     1       0.414  12.305  20.030  0.00  0.00    +0.000 C 
BRANCH  26  29
ATOM     29  O   UNL     1      -1.732  11.434  19.425  0.00  0.00    +0.000 OA
ATOM     30  H   UNL     1      -2.612  11.432  19.844  0.00  0.00    +0.000 HD
ENDBRANCH  26  29
ENDBRANCH  25  26
ENDBRANCH  24  25
ENDBRANCH  20  24
ENDBRANCH   1  17
BRANCH   1  32
ATOM     31  C   UNL     1       0.826   2.652  19.152  0.00  0.00    +0.000 C 
ATOM     32  C   UNL     1       1.488   3.742  18.309  0.00  0.00    +0.000 C 
ENDBRANCH   1  32
BRANCH   1  33
ATOM     33  C   UNL     1       3.117   3.662  20.268  0.00  0.00    +0.000 C 
ATOM     34  C   UNL     1       4.152   2.562  20.051  0.00  0.00    +0.000 C 
ENDBRANCH   1  33
TORSDOF 12
ENDMDL
MODEL 2
REMARK VINA RESULT:      -7.8      1.010      1.580
REMARK  Name = 
REMARK  18 active torsions:
REMARK  status: ('A' for Active; 'I' for Inactive)
REMARK    1  A    between atoms: C_1  and  C_2
REMARK    2  A    between atoms: C_2  and  C_3
REMARK    3  A    between atoms: C_3  and  C_4
REMARK    4  A    between atoms: C_3  and  C_6
REMARK    5  A    between atoms: C_3  and  C_19
REMARK    6  A    between atoms: C_4  and  C_5
REMARK    7  A    between atoms: C_9  and  O_10
REMARK    8  A    between atoms: O_10  and  C_11
REMARK    9  A    between atoms: C_11  and  C_12
REMARK   10  A    between atoms: N_14  and  O_15
REMARK   11  A    between atoms: C_16  and  C_17
REMARK   12  A    between atoms: C_22  and  O_23
REMARK   13  A    between atoms: O_23  and  C_24
REMARK   14  A    between atoms: C_24  and  C_25
REMARK   15  A    between atoms: C_25  and  C_26
REMARK   16  A    between atoms: C_25  and  C_27
REMARK   17  A    between atoms: C_25  and  O_28
REMARK   18  A    between atoms: C_29  and  C_30
REMARK                            x       y       z     vdW  Elec       q    Type
REMARK                         _______ _______ _______ _____ _____    ______ ____
ROOT
ATOM      1  C   UNL     1       2.733   5.003  18.923  0.00  0.00    +0.000 C 
ENDROOT
BRANCH   1   2
ATOM      2  C   UNL     1       3.920   4.982  17.913  0.00  0.00    +0.000 A 
ATOM      3  C   UNL     1       3.880   4.147  16.790  0.00  0.00    +0.000 A 
ATOM      4  C   UNL     1       4.956   4.060  15.907  0.00  0.00    +0.000 A 
ATOM      5  C   UNL     1       6.157   4.727  16.158  0.00  0.00    +0.000 A 
ATOM      6  C   UNL     1       6.226   5.595  17.254  0.00  0.00    +0.000 A 
ATOM      7  C   UNL     1       7.453   6.385  17.621  0.00  0.00    +0.000 C 
ATOM      8  C   UNL     1       5.106   5.714  18.110  0.00  0.00    +0.000 A 
BRANCH   5   9
ATOM      9  O   UNL     1       7.286   4.542  15.389  0.00  0.00    +0.000 OA
BRANCH   9  10
ATOM     10  C   UNL     1       7.236   5.197  14.119  0.00  0.00    +0.000 C 
BRANCH  10  11
ATOM     11  C   UNL     1       7.055   4.286  12.916  0.00  0.00    +0.000 C 
ATOM     12  O   UNL     1       7.479   4.576  11.798  0.00  0.00    +0.000 OA
ATOM     13  N   UNL     1       6.408   3.104  13.162  0.00  0.00    +0.000 N 
ATOM     14  H   UNL     1       5.796   3.001  13.967  0.00  0.00    +0.000 HD
BRANCH  13  15
ATOM     15  O   UNL     1       6.111   2.326  12.016  0.00  0.00    +0.000 OA
ATOM     16  H   UNL     1       5.629   2.975  11.443  0.00  0.00    +0.000 HD
ENDBRANCH  13  15
ENDBRANCH  10  11
ENDBRANCH   9  10
ENDBRANCH   5   9
ENDBRANCH   1   2
BRANCH   1  17
ATOM     17  C   UNL     1       2.289   6.485  19.084  0.00  0.00    +0.000 A 
ATOM     18  C   UNL     1       2.226   7.311  17.960  0.00  0.00    +0.000 A 
ATOM     19  C   UNL     1       1.788   8.628  18.045  0.00  0.00    +0.000 A 
ATOM     20  C   UNL     1       1.404   9.202  19.265  0.00  0.00    +0.000 A 
ATOM     21  C   UNL     1       1.499   8.413  20.420  0.00  0.00    +0.000 A 
ATOM     22  C   UNL     1       1.173   8.897  21.808  0.00  0.00    +0.000 C 
ATOM     23  C   UNL     1       1.936   7.070  20.315  0.00  0.00    +0.000 A 
BRANCH  20  24
ATOM     24  O   UNL     1       0.942  10.502  19.362  0.00  0.00    +0.000 OA
BRANCH  24  25
ATOM     25  C   UNL     1      -0.273  10.734  18.619  0.00  0.00    +0.000 C 
BRANCH  25  26
ATOM     26  C   UNL     1      -0.795  12.180  18.691  0.00  0.00    +0.000 C 
ATOM     27  C   UNL     1      -1.889  12.342  19.738  0.00  0.00    +0.000 C 
ATOM     28  C   UNL     1       0.394  13.097  19.012  0.00  0.00    +0.000 C 
BRANCH  26  29
ATOM     29  O   UNL     1      -1.316  12.573  17.422  0.00  0.00    +0.000 OA
ATOM     30  H   UNL     1      -2.034  11.948  17.212  0.00  0.00    +0.000 HD
ENDBRANCH  26  29
ENDBRANCH  25  26
ENDBRANCH  24  25
ENDBRANCH  20  24
ENDBRANCH   1  17
BRANCH   1  32
ATOM     31  C   UNL     1       1.579   2.663  18.604  0.00  0.00    +0.000 C 
ATOM     32  C   UNL     1       1.502   4.174  18.385  0.00  0.00    +0.000 C 
ENDBRANCH   1  32
BRANCH   1  33
ATOM     33  C   UNL     1       3.171   4.380  20.302  0.00  0.00    +0.000 C 
ATOM     34  C   UNL     1       2.044   4.085  21.288  0.00  0.00    +0.000 C 
ENDBRANCH   1  33
TORSDOF 12
ENDMDL
MODEL 3
REMARK VINA RESULT:      -7.7      1.304      2.010
REMARK  Name = 
REMARK  18 active torsions:
REMARK  status: ('A' for Active; 'I' for Inactive)
REMARK    1  A    between atoms: C_1  and  C_2
REMARK    2  A    between atoms: C_2  and  C_3
REMARK    3  A    between atoms: C_3  and  C_4
REMARK    4  A    between atoms: C_3  and  C_6
REMARK    5  A    between atoms: C_3  and  C_19
REMARK    6  A    between atoms: C_4  and  C_5
REMARK    7  A    between atoms: C_9  and  O_10
REMARK    8  A    between atoms: O_10  and  C_11
REMARK    9  A    between atoms: C_11  and  C_12
REMARK   10  A    between atoms: N_14  and  O_15
REMARK   11  A    between atoms: C_16  and  C_17
REMARK   12  A    between atoms: C_22  and  O_23
REMARK   13  A    between atoms: O_23  and  C_24
REMARK   14  A    between atoms: C_24  and  C_25
REMARK   15  A    between atoms: C_25  and  C_26
REMARK   16  A    between atoms: C_25  and  C_27
REMARK   17  A    between atoms: C_25  and  O_28
REMARK   18  A    between atoms: C_29  and  C_30
REMARK                            x       y       z     vdW  Elec       q    Type
REMARK                         _______ _______ _______ _____ _____    ______ ____
ROOT
ATOM      1  C   UNL     1       2.705   4.893  19.097  0.00  0.00    +0.000 C 
ENDROOT
BRANCH   1   2
ATOM      2  C   UNL     1       3.862   4.879  18.054  0.00  0.00    +0.000 A 
ATOM      3  C   UNL     1       3.758   4.110  16.888  0.00  0.00    +0.000 A 
ATOM      4  C   UNL     1       4.805   4.027  15.972  0.00  0.00    +0.000 A 
ATOM      5  C   UNL     1       6.040   4.629  16.224  0.00  0.00    +0.000 A 
ATOM      6  C   UNL     1       6.175   5.431  17.363  0.00  0.00    +0.000 A 
ATOM      7  C   UNL     1       7.444   6.148  17.737  0.00  0.00    +0.000 C 
ATOM      8  C   UNL     1       5.083   5.550  18.256  0.00  0.00    +0.000 A 
BRANCH   5   9
ATOM      9  O   UNL     1       7.140   4.440  15.414  0.00  0.00    +0.000 OA
BRANCH   9  10
ATOM     10  C   UNL     1       6.820   3.958  14.107  0.00  0.00    +0.000 C 
BRANCH  10  11
ATOM     11  C   UNL     1       7.448   4.722  12.953  0.00  0.00    +0.000 C 
ATOM     12  O   UNL     1       7.282   4.398  11.778  0.00  0.00    +0.000 OA
ATOM     13  N   UNL     1       8.195   5.815  13.305  0.00  0.00    +0.000 N 
ATOM     14  H   UNL     1       8.590   5.900  14.238  0.00  0.00    +0.000 HD
BRANCH  13  15
ATOM     15  O   UNL     1       8.898   6.437  12.244  0.00  0.00    +0.000 OA
ATOM     16  H   UNL     1       8.276   6.314  11.481  0.00  0.00    +0.000 HD
ENDBRANCH  13  15
ENDBRANCH  10  11
ENDBRANCH   9  10
ENDBRANCH   5   9
ENDBRANCH   1   2
BRANCH   1  17
ATOM     17  C   UNL     1       2.267   6.374  19.282  0.00  0.00    +0.000 A 
ATOM     18  C   UNL     1       2.221   7.222  18.173  0.00  0.00    +0.000 A 
ATOM     19  C   UNL     1       1.789   8.540  18.278  0.00  0.00    +0.000 A 
ATOM     20  C   UNL     1       1.395   9.092  19.504  0.00  0.00    +0.000 A 
ATOM     21  C   UNL     1       1.472   8.281  20.645  0.00  0.00    +0.000 A 
ATOM     22  C   UNL     1       1.133   8.739  22.038  0.00  0.00    +0.000 C 
ATOM     23  C   UNL     1       1.903   6.938  20.519  0.00  0.00    +0.000 A 
BRANCH  20  24
ATOM     24  O   UNL     1       0.938  10.393  19.621  0.00  0.00    +0.000 OA
BRANCH  24  25
ATOM     25  C   UNL     1      -0.498  10.490  19.708  0.00  0.00    +0.000 C 
BRANCH  25  26
ATOM     26  C   UNL     1      -1.167  11.130  18.479  0.00  0.00    +0.000 C 
ATOM     27  C   UNL     1      -1.574  10.090  17.443  0.00  0.00    +0.000 C 
ATOM     28  C   UNL     1      -2.397  11.913  18.964  0.00  0.00    +0.000 C 
BRANCH  26  29
ATOM     29  O   UNL     1      -0.275  12.059  17.866  0.00  0.00    +0.000 OA
ATOM     30  H   UNL     1      -0.485  12.059  16.915  0.00  0.00    +0.000 HD
ENDBRANCH  26  29
ENDBRANCH  25  26
ENDBRANCH  24  25
ENDBRANCH  20  24
ENDBRANCH   1  17
BRANCH   1  32
ATOM     31  C   UNL     1       0.648   3.360  19.673  0.00  0.00    +0.000 C 
ATOM     32  C   UNL     1       1.458   4.070  18.587  0.00  0.00    +0.000 C 
ENDBRANCH   1  32
BRANCH   1  33
ATOM     33  C   UNL     1       3.180   4.259  20.458  0.00  0.00    +0.000 C 
ATOM     34  C   UNL     1       3.848   2.890  20.358  0.00  0.00    +0.000 C 
ENDBRANCH   1  33
TORSDOF 12
ENDMDL
MODEL 4
REMARK VINA RESULT:      -7.6      1.216      1.885
REMARK  Name = 
REMARK  18 active torsions:
REMARK  status: ('A' for Active; 'I' for Inactive)
REMARK    1  A    between atoms: C_1  and  C_2
REMARK    2  A    between atoms: C_2  and  C_3
REMARK    3  A    between atoms: C_3  and  C_4
REMARK    4  A    between atoms: C_3  and  C_6
REMARK    5  A    between atoms: C_3  and  C_19
REMARK    6  A    between atoms: C_4  and  C_5
REMARK    7  A    between atoms: C_9  and  O_10
REMARK    8  A    between atoms: O_10  and  C_11
REMARK    9  A    between atoms: C_11  and  C_12
REMARK   10  A    between atoms: N_14  and  O_15
REMARK   11  A    between atoms: C_16  and  C_17
REMARK   12  A    between atoms: C_22  and  O_23
REMARK   13  A    between atoms: O_23  and  C_24
REMARK   14  A    between atoms: C_24  and  C_25
REMARK   15  A    between atoms: C_25  and  C_26
REMARK   16  A    between atoms: C_25  and  C_27
REMARK   17  A    between atoms: C_25  and  O_28
REMARK   18  A    between atoms: C_29  and  C_30
REMARK                            x       y       z     vdW  Elec       q    Type
REMARK                         _______ _______ _______ _____ _____    ______ ____
ROOT
ATOM      1  C   UNL     1       2.703   4.697  19.080  0.00  0.00    +0.000 C 
ENDROOT
BRANCH   1   2
ATOM      2  C   UNL     1       3.829   4.609  18.006  0.00  0.00    +0.000 A 
ATOM      3  C   UNL     1       3.523   4.260  16.685  0.00  0.00    +0.000 A 
ATOM      4  C   UNL     1       4.518   4.109  15.721  0.00  0.00    +0.000 A 
ATOM      5  C   UNL     1       5.871   4.203  16.053  0.00  0.00    +0.000 A 
ATOM      6  C   UNL     1       6.218   4.580  17.356  0.00  0.00    +0.000 A 
ATOM      7  C   UNL     1       7.636   4.735  17.834  0.00  0.00    +0.000 C 
ATOM      8  C   UNL     1       5.192   4.783  18.310  0.00  0.00    +0.000 A 
BRANCH   5   9
ATOM      9  O   UNL     1       6.880   3.910  15.160  0.00  0.00    +0.000 OA
BRANCH   9  10
ATOM     10  C   UNL     1       6.685   4.474  13.861  0.00  0.00    +0.000 C 
BRANCH  10  11
ATOM     11  C   UNL     1       6.040   3.555  12.835  0.00  0.00    +0.000 C 
ATOM     12  O   UNL     1       4.843   3.610  12.559  0.00  0.00    +0.000 OA
ATOM     13  N   UNL     1       6.887   2.673  12.218  0.00  0.00    +0.000 N 
ATOM     14  H   UNL     1       7.769   2.406  12.648  0.00  0.00    +0.000 HD
BRANCH  13  15
ATOM     15  O   UNL     1       6.262   1.721  11.375  0.00  0.00    +0.000 OA
ATOM     16  H   UNL     1       6.313   2.162  10.488  0.00  0.00    +0.000 HD
ENDBRANCH  13  15
ENDBRANCH  10  11
ENDBRANCH   9  10
ENDBRANCH   5   9
ENDBRANCH   1   2
BRANCH   1  17
ATOM     17  C   UNL     1       2.307   6.195  19.213  0.00  0.00    +0.000 A 
ATOM     18  C   UNL     1       2.385   7.029  18.095  0.00  0.00    +0.000 A 
ATOM     19  C   UNL     1       1.995   8.363  18.151  0.00  0.00    +0.000 A 
ATOM     20  C   UNL     1       1.522   8.946  19.334  0.00  0.00    +0.000 A 
ATOM     21  C   UNL     1       1.474   8.148  20.486  0.00  0.00    +0.000 A 
ATOM     22  C   UNL     1       1.039   8.637  21.841  0.00  0.00    +0.000 C 
ATOM     23  C   UNL     1       1.863   6.789  20.410  0.00  0.00    +0.000 A 
BRANCH  20  24
ATOM     24  O   UNL     1       1.106  10.264  19.399  0.00  0.00    +0.000 OA
BRANCH  24  25
ATOM     25  C   UNL     1       0.480  10.727  18.185  0.00  0.00    +0.000 C 
BRANCH  25  26
ATOM     26  C   UNL     1      -0.973  11.203  18.361  0.00  0.00    +0.000 C 
ATOM     27  C   UNL     1      -1.976  10.170  17.866  0.00  0.00    +0.000 C 
ATOM     28  C   UNL     1      -1.198  11.497  19.851  0.00  0.00    +0.000 C 
BRANCH  26  29
ATOM     29  O   UNL     1      -1.178  12.419  17.642  0.00  0.00    +0.000 OA
ATOM     30  H   UNL     1      -1.908  12.884  18.090  0.00  0.00    +0.000 HD
ENDBRANCH  26  29
ENDBRANCH  25  26
ENDBRANCH  24  25
ENDBRANCH  20  24
ENDBRANCH   1  17
BRANCH   1  32
ATOM     31  C   UNL     1       1.532   2.365  18.768  0.00  0.00    +0.000 C 
ATOM     32  C   UNL     1       1.423   3.885  18.642  0.00  0.00    +0.000 C 
ENDBRANCH   1  32
BRANCH   1  33
ATOM     33  C   UNL     1       3.203   4.110  20.454  0.00  0.00    +0.000 C 
ATOM     34  C   UNL     1       2.119   3.821  21.489  0.00  0.00    +0.000 C 
ENDBRANCH   1  33
TORSDOF 12
ENDMDL
MODEL 5
REMARK VINA RESULT:      -7.6      1.501      2.181
REMARK  Name = 
REMARK  18 active torsions:
REMARK  status: ('A' for Active; 'I' for Inactive)
REMARK    1  A    between atoms: C_1  and  C_2
REMARK    2  A    between atoms: C_2  and  C_3
REMARK    3  A    between atoms: C_3  and  C_4
REMARK    4  A    between atoms: C_3  and  C_6
REMARK    5  A    between atoms: C_3  and  C_19
REMARK    6  A    between atoms: C_4  and  C_5
REMARK    7  A    between atoms: C_9  and  O_10
REMARK    8  A    between atoms: O_10  and  C_11
REMARK    9  A    between atoms: C_11  and  C_12
REMARK   10  A    between atoms: N_14  and  O_15
REMARK   11  A    between atoms: C_16  and  C_17
REMARK   12  A    between atoms: C_22  and  O_23
REMARK   13  A    between atoms: O_23  and  C_24
REMARK   14  A    between atoms: C_24  and  C_25
REMARK   15  A    between atoms: C_25  and  C_26
REMARK   16  A    between atoms: C_25  and  C_27
REMARK   17  A    between atoms: C_25  and  O_28
REMARK   18  A    between atoms: C_29  and  C_30
REMARK                            x       y       z     vdW  Elec       q    Type
REMARK                         _______ _______ _______ _____ _____    ______ ____
ROOT
ATOM      1  C   UNL     1       2.509   5.527  19.581  0.00  0.00    +0.000 C 
ENDROOT
BRANCH   1   2
ATOM      2  C   UNL     1       3.818   5.612  18.741  0.00  0.00    +0.000 A 
ATOM      3  C   UNL     1       3.765   5.600  17.341  0.00  0.00    +0.000 A 
ATOM      4  C   UNL     1       4.923   5.607  16.567  0.00  0.00    +0.000 A 
ATOM      5  C   UNL     1       6.189   5.527  17.152  0.00  0.00    +0.000 A 
ATOM      6  C   UNL     1       6.286   5.567  18.548  0.00  0.00    +0.000 A 
ATOM      7  C   UNL     1       7.588   5.507  19.299  0.00  0.00    +0.000 C 
ATOM      8  C   UNL     1       5.101   5.615  19.320  0.00  0.00    +0.000 A 
BRANCH   5   9
ATOM      9  O   UNL     1       7.344   5.378  16.413  0.00  0.00    +0.000 OA
BRANCH   9  10
ATOM     10  C   UNL     1       7.300   4.295  15.482  0.00  0.00    +0.000 C 
BRANCH  10  11
ATOM     11  C   UNL     1       7.284   4.690  14.014  0.00  0.00    +0.000 C 
ATOM     12  O   UNL     1       6.569   4.128  13.186  0.00  0.00    +0.000 OA
ATOM     13  N   UNL     1       8.104   5.734  13.674  0.00  0.00    +0.000 N 
ATOM     14  H   UNL     1       8.903   5.981  14.253  0.00  0.00    +0.000 HD
BRANCH  13  15
ATOM     15  O   UNL     1       8.200   6.003  12.287  0.00  0.00    +0.000 OA
ATOM     16  H   UNL     1       9.179   5.964  12.134  0.00  0.00    +0.000 HD
ENDBRANCH  13  15
ENDBRANCH  10  11
ENDBRANCH   9  10
ENDBRANCH   5   9
ENDBRANCH   1   2
BRANCH   1  17
ATOM     17  C   UNL     1       1.975   6.978  19.752  0.00  0.00    +0.000 A 
ATOM     18  C   UNL     1       2.068   7.876  18.686  0.00  0.00    +0.000 A 
ATOM     19  C   UNL     1       1.561   9.168  18.774  0.00  0.00    +0.000 A 
ATOM     20  C   UNL     1       0.948   9.644  19.941  0.00  0.00    +0.000 A 
ATOM     21  C   UNL     1       0.879   8.783  21.045  0.00  0.00    +0.000 A 
ATOM     22  C   UNL     1       0.298   9.159  22.382  0.00  0.00    +0.000 C 
ATOM     23  C   UNL     1       1.389   7.466  20.936  0.00  0.00    +0.000 A 
BRANCH  20  24
ATOM     24  O   UNL     1       0.416  10.918  20.035  0.00  0.00    +0.000 OA
BRANCH  24  25
ATOM     25  C   UNL     1       0.386  11.620  18.775  0.00  0.00    +0.000 C 
BRANCH  25  26
ATOM     26  C   UNL     1      -0.792  12.598  18.621  0.00  0.00    +0.000 C 
ATOM     27  C   UNL     1      -1.898  12.326  19.631  0.00  0.00    +0.000 C 
ATOM     28  C   UNL     1      -0.248  14.024  18.793  0.00  0.00    +0.000 C 
BRANCH  26  29
ATOM     29  O   UNL     1      -1.339  12.498  17.307  0.00  0.00    +0.000 OA
ATOM     30  H   UNL     1      -1.904  11.704  17.303  0.00  0.00    +0.000 HD
ENDBRANCH  26  29
ENDBRANCH  25  26
ENDBRANCH  24  25
ENDBRANCH  20  24
ENDBRANCH   1  17
BRANCH   1  32
ATOM     31  C   UNL     1       1.908   3.442  18.097  0.00  0.00    +0.000 C 
ATOM     32  C   UNL     1       1.402   4.678  18.842  0.00  0.00    +0.000 C 
ENDBRANCH   1  32
BRANCH   1  33
ATOM     33  C   UNL     1       2.789   4.849  20.974  0.00  0.00    +0.000 C 
ATOM     34  C   UNL     1       1.808   3.758  21.394  0.00  0.00    +0.000 C 
ENDBRANCH   1  33
TORSDOF 12
ENDMDL
MODEL 6
REMARK VINA RESULT:      -7.6      1.218      1.600
REMARK  Name = 
REMARK  18 active torsions:
REMARK  status: ('A' for Active; 'I' for Inactive)
REMARK    1  A    between atoms: C_1  and  C_2
REMARK    2  A    between atoms: C_2  and  C_3
REMARK    3  A    between atoms: C_3  and  C_4
REMARK    4  A    between atoms: C_3  and  C_6
REMARK    5  A    between atoms: C_3  and  C_19
REMARK    6  A    between atoms: C_4  and  C_5
REMARK    7  A    between atoms: C_9  and  O_10
REMARK    8  A    between atoms: O_10  and  C_11
REMARK    9  A    between atoms: C_11  and  C_12
REMARK   10  A    between atoms: N_14  and  O_15
REMARK   11  A    between atoms: C_16  and  C_17
REMARK   12  A    between atoms: C_22  and  O_23
REMARK   13  A    between atoms: O_23  and  C_24
REMARK   14  A    between atoms: C_24  and  C_25
REMARK   15  A    between atoms: C_25  and  C_26
REMARK   16  A    between atoms: C_25  and  C_27
REMARK   17  A    between atoms: C_25  and  O_28
REMARK   18  A    between atoms: C_29  and  C_30
REMARK                            x       y       z     vdW  Elec       q    Type
REMARK                         _______ _______ _______ _____ _____    ______ ____
ROOT
ATOM      1  C   UNL     1       2.322   4.698  19.835  0.00  0.00    +0.000 C 
ENDROOT
BRANCH   1   2
ATOM      2  C   UNL     1       3.387   4.556  18.707  0.00  0.00    +0.000 A 
ATOM      3  C   UNL     1       3.030   4.041  17.454  0.00  0.00    +0.000 A 
ATOM      4  C   UNL     1       3.975   3.841  16.451  0.00  0.00    +0.000 A 
ATOM      5  C   UNL     1       5.336   4.052  16.682  0.00  0.00    +0.000 A 
ATOM      6  C   UNL     1       5.731   4.595  17.911  0.00  0.00    +0.000 A 
ATOM      7  C   UNL     1       7.161   4.887  18.277  0.00  0.00    +0.000 C 
ATOM      8  C   UNL     1       4.751   4.844  18.901  0.00  0.00    +0.000 A 
BRANCH   5   9
ATOM      9  O   UNL     1       6.309   3.720  15.764  0.00  0.00    +0.000 OA
BRANCH   9  10
ATOM     10  C   UNL     1       5.928   3.954  14.406  0.00  0.00    +0.000 C 
BRANCH  10  11
ATOM     11  C   UNL     1       7.004   4.550  13.513  0.00  0.00    +0.000 C 
ATOM     12  O   UNL     1       7.150   4.214  12.339  0.00  0.00    +0.000 OA
ATOM     13  N   UNL     1       7.791   5.508  14.096  0.00  0.00    +0.000 N 
ATOM     14  H   UNL     1       7.890   5.559  15.107  0.00  0.00    +0.000 HD
BRANCH  13  15
ATOM     15  O   UNL     1       8.883   5.954  13.314  0.00  0.00    +0.000 OA
ATOM     16  H   UNL     1       9.595   6.069  13.995  0.00  0.00    +0.000 HD
ENDBRANCH  13  15
ENDBRANCH  10  11
ENDBRANCH   9  10
ENDBRANCH   5   9
ENDBRANCH   1   2
BRANCH   1  17
ATOM     17  C   UNL     1       1.923   6.200  19.907  0.00  0.00    +0.000 A 
ATOM     18  C   UNL     1       1.316   6.697  21.063  0.00  0.00    +0.000 A 
ATOM     19  C   UNL     1       0.986   8.041  21.194  0.00  0.00    +0.000 A 
ATOM     20  C   UNL     1       1.227   8.965  20.168  0.00  0.00    +0.000 A 
ATOM     21  C   UNL     1       1.793   8.490  18.976  0.00  0.00    +0.000 A 
ATOM     22  C   UNL     1       2.067   9.343  17.767  0.00  0.00    +0.000 C 
ATOM     23  C   UNL     1       2.135   7.121  18.863  0.00  0.00    +0.000 A 
BRANCH  20  24
ATOM     24  O   UNL     1       0.928  10.310  20.293  0.00  0.00    +0.000 OA
BRANCH  24  25
ATOM     25  C   UNL     1      -0.486  10.576  20.384  0.00  0.00    +0.000 C 
BRANCH  25  26
ATOM     26  C   UNL     1      -1.054  11.406  19.219  0.00  0.00    +0.000 C 
ATOM     27  C   UNL     1      -0.016  12.355  18.635  0.00  0.00    +0.000 C 
ATOM     28  C   UNL     1      -1.552  10.430  18.143  0.00  0.00    +0.000 C 
BRANCH  26  29
ATOM     29  O   UNL     1      -2.173  12.171  19.664  0.00  0.00    +0.000 OA
ATOM     30  H   UNL     1      -1.919  13.107  19.578  0.00  0.00    +0.000 HD
ENDBRANCH  26  29
ENDBRANCH  25  26
ENDBRANCH  24  25
ENDBRANCH  20  24
ENDBRANCH   1  17
BRANCH   1  32
ATOM     31  C   UNL     1       1.266   2.506  18.839  0.00  0.00    +0.000 C 
ATOM     32  C   UNL     1       1.025   3.857  19.514  0.00  0.00    +0.000 C 
ENDBRANCH   1  32
BRANCH   1  33
ATOM     33  C   UNL     1       2.900   4.190  21.209  0.00  0.00    +0.000 C 
ATOM     34  C   UNL     1       2.556   2.751  21.585  0.00  0.00    +0.000 C 
ENDBRANCH   1  33
TORSDOF 12
ENDMDL
MODEL 7
REMARK VINA RESULT:      -7.5      1.070      1.327
REMARK  Name = 
REMARK  18 active torsions:
REMARK  status: ('A' for Active; 'I' for Inactive)
REMARK    1  A    between atoms: C_1  and  C_2
REMARK    2  A    between atoms: C_2  and  C_3
REMARK    3  A    between atoms: C_3  and  C_4
REMARK    4  A    between atoms: C_3  and  C_6
REMARK    5  A    between atoms: C_3  and  C_19
REMARK    6  A    between atoms: C_4  and  C_5
REMARK    7  A    between atoms: C_9  and  O_10
REMARK    8  A    between atoms: O_10  and  C_11
REMARK    9  A    between atoms: C_11  and  C_12
REMARK   10  A    between atoms: N_14  and  O_15
REMARK   11  A    between atoms: C_16  and  C_17
REMARK   12  A    between atoms: C_22  and  O_23
REMARK   13  A    between atoms: O_23  and  C_24
REMARK   14  A    between atoms: C_24  and  C_25
REMARK   15  A    between atoms: C_25  and  C_26
REMARK   16  A    between atoms: C_25  and  C_27
REMARK   17  A    between atoms: C_25  and  O_28
REMARK   18  A    between atoms: C_29  and  C_30
REMARK                            x       y       z     vdW  Elec       q    Type
REMARK                         _______ _______ _______ _____ _____    ______ ____
ROOT
ATOM      1  C   UNL     1       2.572   4.743  19.675  0.00  0.00    +0.000 C 
ENDROOT
BRANCH   1   2
ATOM      2  C   UNL     1       3.827   4.757  18.750  0.00  0.00    +0.000 A 
ATOM      3  C   UNL     1       3.782   4.158  17.485  0.00  0.00    +0.000 A 
ATOM      4  C   UNL     1       4.909   4.099  16.666  0.00  0.00    +0.000 A 
ATOM      5  C   UNL     1       6.155   4.546  17.111  0.00  0.00    +0.000 A 
ATOM      6  C   UNL     1       6.235   5.178  18.358  0.00  0.00    +0.000 A 
ATOM      7  C   UNL     1       7.511   5.720  18.942  0.00  0.00    +0.000 C 
ATOM      8  C   UNL     1       5.069   5.280  19.155  0.00  0.00    +0.000 A 
BRANCH   5   9
ATOM      9  O   UNL     1       7.314   4.363  16.387  0.00  0.00    +0.000 OA
BRANCH   9  10
ATOM     10  C   UNL     1       7.487   5.302  15.324  0.00  0.00    +0.000 C 
BRANCH  10  11
ATOM     11  C   UNL     1       7.264   4.756  13.922  0.00  0.00    +0.000 C 
ATOM     12  O   UNL     1       7.686   5.325  12.917  0.00  0.00    +0.000 OA
ATOM     13  N   UNL     1       6.578   3.573  13.852  0.00  0.00    +0.000 N 
ATOM     14  H   UNL     1       5.970   3.274  14.611  0.00  0.00    +0.000 HD
BRANCH  13  15
ATOM     15  O   UNL     1       6.243   3.143  12.544  0.00  0.00    +0.000 OA
ATOM     16  H   UNL     1       5.552   2.455  12.722  0.00  0.00    +0.000 HD
ENDBRANCH  13  15
ENDBRANCH  10  11
ENDBRANCH   9  10
ENDBRANCH   5   9
ENDBRANCH   1   2
BRANCH   1  17
ATOM     17  C   UNL     1       2.090   6.214  19.822  0.00  0.00    +0.000 A 
ATOM     18  C   UNL     1       1.479   6.622  21.010  0.00  0.00    +0.000 A 
ATOM     19  C   UNL     1       1.076   7.938  21.209  0.00  0.00    +0.000 A 
ATOM     20  C   UNL     1       1.243   8.920  20.223  0.00  0.00    +0.000 A 
ATOM     21  C   UNL     1       1.812   8.533  19.001  0.00  0.00    +0.000 A 
ATOM     22  C   UNL     1       2.013   9.453  17.828  0.00  0.00    +0.000 C 
ATOM     23  C   UNL     1       2.228   7.191  18.819  0.00  0.00    +0.000 A 
BRANCH  20  24
ATOM     24  O   UNL     1       0.871  10.239  20.415  0.00  0.00    +0.000 OA
BRANCH  24  25
ATOM     25  C   UNL     1      -0.010  10.426  21.542  0.00  0.00    +0.000 C 
BRANCH  25  26
ATOM     26  C   UNL     1      -0.586  11.847  21.669  0.00  0.00    +0.000 C 
ATOM     27  C   UNL     1      -1.422  12.236  20.457  0.00  0.00    +0.000 C 
ATOM     28  C   UNL     1      -1.437  11.900  22.947  0.00  0.00    +0.000 C 
BRANCH  26  29
ATOM     29  O   UNL     1       0.475  12.791  21.814  0.00  0.00    +0.000 OA
ATOM     30  H   UNL     1       1.081  12.425  22.483  0.00  0.00    +0.000 HD
ENDBRANCH  26  29
ENDBRANCH  25  26
ENDBRANCH  24  25
ENDBRANCH  20  24
ENDBRANCH   1  17
BRANCH   1  32
ATOM     31  C   UNL     1       1.087   4.200  17.574  0.00  0.00    +0.000 C 
ATOM     32  C   UNL     1       1.398   3.899  19.041  0.00  0.00    +0.000 C 
ENDBRANCH   1  32
BRANCH   1  33
ATOM     33  C   UNL     1       2.924   4.109  21.073  0.00  0.00    +0.000 C 
ATOM     34  C   UNL     1       2.029   2.958  21.527  0.00  0.00    +0.000 C 
ENDBRANCH   1  33
TORSDOF 12
ENDMDL
MODEL 8
REMARK VINA RESULT:      -7.4      1.567      2.214
REMARK  Name = 
REMARK  18 active torsions:
REMARK  status: ('A' for Active; 'I' for Inactive)
REMARK    1  A    between atoms: C_1  and  C_2
REMARK    2  A    between atoms: C_2  and  C_3
REMARK    3  A    between atoms: C_3  and  C_4
REMARK    4  A    between atoms: C_3  and  C_6
REMARK    5  A    between atoms: C_3  and  C_19
REMARK    6  A    between atoms: C_4  and  C_5
REMARK    7  A    between atoms: C_9  and  O_10
REMARK    8  A    between atoms: O_10  and  C_11
REMARK    9  A    between atoms: C_11  and  C_12
REMARK   10  A    between atoms: N_14  and  O_15
REMARK   11  A    between atoms: C_16  and  C_17
REMARK   12  A    between atoms: C_22  and  O_23
REMARK   13  A    between atoms: O_23  and  C_24
REMARK   14  A    between atoms: C_24  and  C_25
REMARK   15  A    between atoms: C_25  and  C_26
REMARK   16  A    between atoms: C_25  and  C_27
REMARK   17  A    between atoms: C_25  and  O_28
REMARK   18  A    between atoms: C_29  and  C_30
REMARK                            x       y       z     vdW  Elec       q    Type
REMARK                         _______ _______ _______ _____ _____    ______ ____
ROOT
ATOM      1  C   UNL     1       2.498   5.825  19.327  0.00  0.00    +0.000 C 
ENDROOT
BRANCH   1   2
ATOM      2  C   UNL     1       3.836   6.001  18.548  0.00  0.00    +0.000 A 
ATOM      3  C   UNL     1       3.827   6.369  17.197  0.00  0.00    +0.000 A 
ATOM      4  C   UNL     1       5.006   6.468  16.460  0.00  0.00    +0.000 A 
ATOM      5  C   UNL     1       6.239   6.108  17.010  0.00  0.00    +0.000 A 
ATOM      6  C   UNL     1       6.294   5.763  18.365  0.00  0.00    +0.000 A 
ATOM      7  C   UNL     1       7.559   5.374  19.081  0.00  0.00    +0.000 C 
ATOM      8  C   UNL     1       5.094   5.721  19.115  0.00  0.00    +0.000 A 
BRANCH   5   9
ATOM      9  O   UNL     1       7.398   6.049  16.265  0.00  0.00    +0.000 OA
BRANCH   9  10
ATOM     10  C   UNL     1       7.622   4.781  15.642  0.00  0.00    +0.000 C 
BRANCH  10  11
ATOM     11  C   UNL     1       7.173   4.673  14.194  0.00  0.00    +0.000 C 
ATOM     12  O   UNL     1       7.531   5.472  13.330  0.00  0.00    +0.000 OA
ATOM     13  N   UNL     1       6.361   3.609  13.905  0.00  0.00    +0.000 N 
ATOM     14  H   UNL     1       5.820   3.151  14.635  0.00  0.00    +0.000 HD
BRANCH  13  15
ATOM     15  O   UNL     1       5.826   3.593  12.593  0.00  0.00    +0.000 OA
ATOM     16  H   UNL     1       6.643   3.528  12.036  0.00  0.00    +0.000 HD
ENDBRANCH  13  15
ENDBRANCH  10  11
ENDBRANCH   9  10
ENDBRANCH   5   9
ENDBRANCH   1   2
BRANCH   1  17
ATOM     17  C   UNL     1       1.932   7.248  19.600  0.00  0.00    +0.000 A 
ATOM     18  C   UNL     1       1.906   8.188  18.567  0.00  0.00    +0.000 A 
ATOM     19  C   UNL     1       1.365   9.457  18.748  0.00  0.00    +0.000 A 
ATOM     20  C   UNL     1       0.835   9.866  19.980  0.00  0.00    +0.000 A 
ATOM     21  C   UNL     1       0.887   8.961  21.050  0.00  0.00    +0.000 A 
ATOM     22  C   UNL     1       0.406   9.265  22.443  0.00  0.00    +0.000 C 
ATOM     23  C   UNL     1       1.430   7.669  20.846  0.00  0.00    +0.000 A 
BRANCH  20  24
ATOM     24  O   UNL     1       0.270  11.115  20.168  0.00  0.00    +0.000 OA
BRANCH  24  25
ATOM     25  C   UNL     1       1.165  12.201  19.853  0.00  0.00    +0.000 C 
BRANCH  25  26
ATOM     26  C   UNL     1       0.515  13.353  19.068  0.00  0.00    +0.000 C 
ATOM     27  C   UNL     1      -0.579  14.046  19.870  0.00  0.00    +0.000 C 
ATOM     28  C   UNL     1       1.620  14.353  18.693  0.00  0.00    +0.000 C 
BRANCH  26  29
ATOM     29  O   UNL     1      -0.052  12.858  17.855  0.00  0.00    +0.000 OA
ATOM     30  H   UNL     1      -0.980  13.155  17.843  0.00  0.00    +0.000 HD
ENDBRANCH  26  29
ENDBRANCH  25  26
ENDBRANCH  24  25
ENDBRANCH  20  24
ENDBRANCH   1  17
BRANCH   1  32
ATOM     31  C   UNL     1       2.003   3.931  17.573  0.00  0.00    +0.000 C 
ATOM     32  C   UNL     1       1.435   5.026  18.476  0.00  0.00    +0.000 C 
ENDBRANCH   1  32
BRANCH   1  33
ATOM     33  C   UNL     1       2.738   5.034  20.668  0.00  0.00    +0.000 C 
ATOM     34  C   UNL     1       1.674   4.004  21.034  0.00  0.00    +0.000 C 
ENDBRANCH   1  33
TORSDOF 12
ENDMDL
MODEL 9
REMARK VINA RESULT:      -7.4      1.359      1.889
REMARK  Name = 
REMARK  18 active torsions:
REMARK  status: ('A' for Active; 'I' for Inactive)
REMARK    1  A    between atoms: C_1  and  C_2
REMARK    2  A    between atoms: C_2  and  C_3
REMARK    3  A    between atoms: C_3  and  C_4
REMARK    4  A    between atoms: C_3  and  C_6
REMARK    5  A    between atoms: C_3  and  C_19
REMARK    6  A    between atoms: C_4  and  C_5
REMARK    7  A    between atoms: C_9  and  O_10
REMARK    8  A    between atoms: O_10  and  C_11
REMARK    9  A    between atoms: C_11  and  C_12
REMARK   10  A    between atoms: N_14  and  O_15
REMARK   11  A    between atoms: C_16  and  C_17
REMARK   12  A    between atoms: C_22  and  O_23
REMARK   13  A    between atoms: O_23  and  C_24
REMARK   14  A    between atoms: C_24  and  C_25
REMARK   15  A    between atoms: C_25  and  C_26
REMARK   16  A    between atoms: C_25  and  C_27
REMARK   17  A    between atoms: C_25  and  O_28
REMARK   18  A    between atoms: C_29  and  C_30
REMARK                            x       y       z     vdW  Elec       q    Type
REMARK                         _______ _______ _______ _____ _____    ______ ____
ROOT
ATOM      1  C   UNL     1       2.854   4.906  18.759  0.00  0.00    +0.000 C 
ENDROOT
BRANCH   1   2
ATOM      2  C   UNL     1       4.078   4.961  17.796  0.00  0.00    +0.000 A 
ATOM      3  C   UNL     1       4.171   4.072  16.717  0.00  0.00    +0.000 A 
ATOM      4  C   UNL     1       5.285   4.055  15.881  0.00  0.00    +0.000 A 
ATOM      5  C   UNL     1       6.400   4.856  16.139  0.00  0.00    +0.000 A 
ATOM      6  C   UNL     1       6.335   5.779  17.189  0.00  0.00    +0.000 A 
ATOM      7  C   UNL     1       7.457   6.710  17.559  0.00  0.00    +0.000 C 
ATOM      8  C   UNL     1       5.173   5.822  17.997  0.00  0.00    +0.000 A 
BRANCH   5   9
ATOM      9  O   UNL     1       7.574   4.753  15.422  0.00  0.00    +0.000 OA
BRANCH   9  10
ATOM     10  C   UNL     1       7.381   4.483  14.032  0.00  0.00    +0.000 C 
BRANCH  10  11
ATOM     11  C   UNL     1       8.067   5.445  13.075  0.00  0.00    +0.000 C 
ATOM     12  O   UNL     1       9.075   6.078  13.383  0.00  0.00    +0.000 OA
ATOM     13  N   UNL     1       7.501   5.545  11.831  0.00  0.00    +0.000 N 
ATOM     14  H   UNL     1       6.528   5.291  11.678  0.00  0.00    +0.000 HD
BRANCH  13  15
ATOM     15  O   UNL     1       8.049   6.548  10.994  0.00  0.00    +0.000 OA
ATOM     16  H   UNL     1       8.557   6.012  10.333  0.00  0.00    +0.000 HD
ENDBRANCH  13  15
ENDBRANCH  10  11
ENDBRANCH   9  10
ENDBRANCH   5   9
ENDBRANCH   1   2
BRANCH   1  17
ATOM     17  C   UNL     1       2.377   6.369  18.983  0.00  0.00    +0.000 A 
ATOM     18  C   UNL     1       2.291   7.240  17.895  0.00  0.00    +0.000 A 
ATOM     19  C   UNL     1       1.823   8.542  18.036  0.00  0.00    +0.000 A 
ATOM     20  C   UNL     1       1.430   9.056  19.279  0.00  0.00    +0.000 A 
ATOM     21  C   UNL     1       1.546   8.222  20.400  0.00  0.00    +0.000 A 
ATOM     22  C   UNL     1       1.213   8.639  21.807  0.00  0.00    +0.000 C 
ATOM     23  C   UNL     1       2.013   6.895  20.238  0.00  0.00    +0.000 A 
BRANCH  20  24
ATOM     24  O   UNL     1       0.938  10.340  19.431  0.00  0.00    +0.000 OA
BRANCH  24  25
ATOM     25  C   UNL     1      -0.416  10.494  18.958  0.00  0.00    +0.000 C 
BRANCH  25  26
ATOM     26  C   UNL     1      -0.933  11.943  18.972  0.00  0.00    +0.000 C 
ATOM     27  C   UNL     1      -2.434  12.016  18.724  0.00  0.00    +0.000 C 
ATOM     28  C   UNL     1      -0.585  12.556  20.337  0.00  0.00    +0.000 C 
BRANCH  26  29
ATOM     29  O   UNL     1      -0.267  12.708  17.969  0.00  0.00    +0.000 OA
ATOM     30  H   UNL     1      -0.935  13.306  17.588  0.00  0.00    +0.000 HD
ENDBRANCH  26  29
ENDBRANCH  25  26
ENDBRANCH  24  25
ENDBRANCH  20  24
ENDBRANCH   1  17
BRANCH   1  32
ATOM     31  C   UNL     1       0.902   3.179  19.099  0.00  0.00    +0.000 C 
ATOM     32  C   UNL     1       1.660   4.088  18.131  0.00  0.00    +0.000 C 
ENDBRANCH   1  32
BRANCH   1  33
ATOM     33  C   UNL     1       3.252   4.216  20.118  0.00  0.00    +0.000 C 
ATOM     34  C   UNL     1       4.167   3.000  20.005  0.00  0.00    +0.000 C 
ENDBRANCH   1  33
TORSDOF 12
ENDMDL
