MODEL 1
REMARK VINA RESULT:      -7.6      0.000      0.000
REMARK  Name = 
REMARK  8 active torsions:
REMARK  status: ('A' for Active; 'I' for Inactive)
REMARK    1  A    between atoms: C_1  and  O_2
REMARK    2  A    between atoms: O_2  and  C_3
REMARK    3  A    between atoms: C_8  and  N_9
REMARK    4  A    between atoms: C_10  and  C_11
REMARK    5  A    between atoms: C_14  and  S_15
REMARK    6  A    between atoms: S_15  and  C_16
REMARK    7  A    between atoms: C_16  and  C_17
REMARK    8  A    between atoms: N_19  and  C_20
REMARK                            x       y       z     vdW  Elec       q    Type
REMARK                         _______ _______ _______ _____ _____    ______ ____
ROOT
ATOM      1  N   UNL     1       4.099   4.410  18.766  0.00  0.00    +0.000 N 
ATOM      2  C   UNL     1       3.761   3.476  19.750  0.00  0.00    +0.000 A 
ATOM      3  C   UNL     1       4.313   2.113  19.936  0.00  0.00    +0.000 C 
ATOM      4  N   UNL     1       2.745   3.924  20.464  0.00  0.00    +0.000 NA
ATOM      5  N   UNL     1       2.359   5.128  19.966  0.00  0.00    +0.000 NA
ATOM      6  C   UNL     1       3.145   5.420  18.958  0.00  0.00    +0.000 A 
ENDROOT
BRANCH   1  12
ATOM      7  C   UNL     1       6.485   4.636  18.020  0.00  0.00    +0.000 A 
ATOM      8  C   UNL     1       7.397   4.651  16.948  0.00  0.00    +0.000 A 
ATOM      9  C   UNL     1       6.995   4.351  15.648  0.00  0.00    +0.000 A 
ATOM     10  C   UNL     1       5.677   4.006  15.402  0.00  0.00    +0.000 A 
ATOM     11  C   UNL     1       4.759   3.984  16.454  0.00  0.00    +0.000 A 
ATOM     12  C   UNL     1       5.129   4.342  17.766  0.00  0.00    +0.000 A 
BRANCH   7  14
ATOM     13  C   UNL     1       8.040   5.847  19.340  0.00  0.00    +0.000 C 
ATOM     14  O   UNL     1       6.883   5.006  19.279  0.00  0.00    +0.000 OA
ENDBRANCH   7  14
ENDBRANCH   1  12
BRANCH   6  15
ATOM     15  S   UNL     1       3.063   6.948  18.119  0.00  0.00    +0.000 S 
BRANCH  15  16
ATOM     16  C   UNL     1       1.944   7.902  19.198  0.00  0.00    +0.000 C 
BRANCH  16  17
ATOM     17  C   UNL     1       1.679   9.310  18.671  0.00  0.00    +0.000 C 
ATOM     18  O   UNL     1       1.980   9.614  17.513  0.00  0.00    +0.000 OA
ATOM     19  N   UNL     1       1.059  10.165  19.561  0.00  0.00    +0.000 N 
ATOM     20  H   UNL     1       1.212   9.955  20.545  0.00  0.00    +0.000 HD
BRANCH  19  21
ATOM     21  C   UNL     1       0.663  11.493  19.269  0.00  0.00    +0.000 A 
ATOM     22  C   UNL     1       1.503  12.583  19.522  0.00  0.00    +0.000 A 
ATOM     23  C   UNL     1       1.103  13.879  19.184  0.00  0.00    +0.000 A 
ATOM     24  C   UNL     1      -0.150  14.104  18.616  0.00  0.00    +0.000 A 
ATOM     25  C   UNL     1      -0.998  13.022  18.363  0.00  0.00    +0.000 A 
ATOM     26  C   UNL     1      -0.585  11.723  18.668  0.00  0.00    +0.000 A 
ATOM     27 CL   UNL     1      -1.678  10.416  18.359  0.00  0.00    +0.000 Cl
ENDBRANCH  19  21
ENDBRANCH  16  17
ENDBRANCH  15  16
ENDBRANCH   6  15
TORSDOF 6
ENDMDL
MODEL 2
REMARK VINA RESULT:      -7.5      3.960      7.958
REMARK  Name = 
REMARK  8 active torsions:
REMARK  status: ('A' for Active; 'I' for Inactive)
REMARK    1  A    between atoms: C_1  and  O_2
REMARK    2  A    between atoms: O_2  and  C_3
REMARK    3  A    between atoms: C_8  and  N_9
REMARK    4  A    between atoms: C_10  and  C_11
REMARK    5  A    between atoms: C_14  and  S_15
REMARK    6  A    between atoms: S_15  and  C_16
REMARK    7  A    between atoms: C_16  and  C_17
REMARK    8  A    between atoms: N_19  and  C_20
REMARK                            x       y       z     vdW  Elec       q    Type
REMARK                         _______ _______ _______ _____ _____    ______ ____
ROOT
ATOM      1  N   UNL     1       3.691   5.075  18.193  0.00  0.00    +0.000 N 
ATOM      2  C   UNL     1       3.096   3.953  17.606  0.00  0.00    +0.000 A 
ATOM      3  C   UNL     1       1.657   3.730  17.329  0.00  0.00    +0.000 C 
ATOM      4  N   UNL     1       4.000   3.007  17.428  0.00  0.00    +0.000 NA
ATOM      5  N   UNL     1       5.191   3.445  17.913  0.00  0.00    +0.000 NA
ATOM      6  C   UNL     1       5.019   4.659  18.375  0.00  0.00    +0.000 A 
ENDROOT
BRANCH   1  12
ATOM      7  C   UNL     1       2.466   6.548  19.813  0.00  0.00    +0.000 A 
ATOM      8  C   UNL     1       1.811   7.773  20.043  0.00  0.00    +0.000 A 
ATOM      9  C   UNL     1       1.798   8.781  19.081  0.00  0.00    +0.000 A 
ATOM     10  C   UNL     1       2.462   8.590  17.882  0.00  0.00    +0.000 A 
ATOM     11  C   UNL     1       3.119   7.383  17.637  0.00  0.00    +0.000 A 
ATOM     12  C   UNL     1       3.094   6.326  18.570  0.00  0.00    +0.000 A 
BRANCH   7  14
ATOM     13  C   UNL     1       1.236   4.716  20.684  0.00  0.00    +0.000 C 
ATOM     14  O   UNL     1       2.405   5.540  20.742  0.00  0.00    +0.000 OA
ENDBRANCH   7  14
ENDBRANCH   1  12
BRANCH   6  15
ATOM     15  S   UNL     1       6.340   5.630  18.973  0.00  0.00    +0.000 S 
BRANCH  15  16
ATOM     16  C   UNL     1       6.956   6.400  17.439  0.00  0.00    +0.000 C 
BRANCH  16  17
ATOM     17  C   UNL     1       7.152   5.388  16.313  0.00  0.00    +0.000 C 
ATOM     18  O   UNL     1       7.894   4.414  16.465  0.00  0.00    +0.000 OA
ATOM     19  N   UNL     1       6.419   5.634  15.168  0.00  0.00    +0.000 N 
ATOM     20  H   UNL     1       6.173   6.608  15.009  0.00  0.00    +0.000 HD
BRANCH  19  21
ATOM     21  C   UNL     1       6.397   4.799  14.024  0.00  0.00    +0.000 A 
ATOM     22  C   UNL     1       5.363   3.884  13.802  0.00  0.00    +0.000 A 
ATOM     23  C   UNL     1       5.344   3.103  12.642  0.00  0.00    +0.000 A 
ATOM     24  C   UNL     1       6.373   3.207  11.706  0.00  0.00    +0.000 A 
ATOM     25  C   UNL     1       7.413   4.115  11.921  0.00  0.00    +0.000 A 
ATOM     26  C   UNL     1       7.414   4.921  13.063  0.00  0.00    +0.000 A 
ATOM     27 CL   UNL     1       8.734   6.016  13.299  0.00  0.00    +0.000 Cl
ENDBRANCH  19  21
ENDBRANCH  16  17
ENDBRANCH  15  16
ENDBRANCH   6  15
TORSDOF 6
ENDMDL
MODEL 3
REMARK VINA RESULT:      -7.4      5.226      7.279
REMARK  Name = 
REMARK  8 active torsions:
REMARK  status: ('A' for Active; 'I' for Inactive)
REMARK    1  A    between atoms: C_1  and  O_2
REMARK    2  A    between atoms: O_2  and  C_3
REMARK    3  A    between atoms: C_8  and  N_9
REMARK    4  A    between atoms: C_10  and  C_11
REMARK    5  A    between atoms: C_14  and  S_15
REMARK    6  A    between atoms: S_15  and  C_16
REMARK    7  A    between atoms: C_16  and  C_17
REMARK    8  A    between atoms: N_19  and  C_20
REMARK                            x       y       z     vdW  Elec       q    Type
REMARK                         _______ _______ _______ _____ _____    ______ ____
ROOT
ATOM      1  N   UNL     1       5.838   5.934  16.951  0.00  0.00    +0.000 N 
ATOM      2  C   UNL     1       5.869   5.307  15.701  0.00  0.00    +0.000 A 
ATOM      3  C   UNL     1       4.793   4.519  15.053  0.00  0.00    +0.000 C 
ATOM      4  N   UNL     1       7.080   5.398  15.183  0.00  0.00    +0.000 NA
ATOM      5  N   UNL     1       7.886   6.041  16.068  0.00  0.00    +0.000 NA
ATOM      6  C   UNL     1       7.166   6.353  17.118  0.00  0.00    +0.000 A 
ENDROOT
BRANCH   1  12
ATOM      7  C   UNL     1       4.488   5.172  18.924  0.00  0.00    +0.000 A 
ATOM      8  C   UNL     1       3.322   5.333  19.698  0.00  0.00    +0.000 A 
ATOM      9  C   UNL     1       2.434   6.381  19.465  0.00  0.00    +0.000 A 
ATOM     10  C   UNL     1       2.709   7.301  18.469  0.00  0.00    +0.000 A 
ATOM     11  C   UNL     1       3.860   7.159  17.692  0.00  0.00    +0.000 A 
ATOM     12  C   UNL     1       4.742   6.073  17.869  0.00  0.00    +0.000 A 
BRANCH   7  14
ATOM     13  C   UNL     1       4.663   2.889  19.543  0.00  0.00    +0.000 C 
ATOM     14  O   UNL     1       5.311   4.093  19.120  0.00  0.00    +0.000 OA
ENDBRANCH   7  14
ENDBRANCH   1  12
BRANCH   6  15
ATOM     15  S   UNL     1       7.799   7.305  18.437  0.00  0.00    +0.000 S 
BRANCH  15  16
ATOM     16  C   UNL     1       7.994   8.939  17.652  0.00  0.00    +0.000 C 
BRANCH  16  17
ATOM     17  C   UNL     1       8.828   9.900  18.497  0.00  0.00    +0.000 C 
ATOM     18  O   UNL     1       9.023   9.676  19.695  0.00  0.00    +0.000 OA
ATOM     19  N   UNL     1       9.356  10.978  17.813  0.00  0.00    +0.000 N 
ATOM     20  H   UNL     1       8.838  11.265  16.985  0.00  0.00    +0.000 HD
BRANCH  19  21
ATOM     21  C   UNL     1      10.206  11.959  18.378  0.00  0.00    +0.000 A 
ATOM     22  C   UNL     1      11.490  11.644  18.835  0.00  0.00    +0.000 A 
ATOM     23  C   UNL     1      12.325  12.641  19.349  0.00  0.00    +0.000 A 
ATOM     24  C   UNL     1      11.876  13.959  19.438  0.00  0.00    +0.000 A 
ATOM     25  C   UNL     1      10.593  14.283  18.988  0.00  0.00    +0.000 A 
ATOM     26  C   UNL     1       9.772  13.293  18.442  0.00  0.00    +0.000 A 
ATOM     27 CL   UNL     1       8.182  13.736  17.919  0.00  0.00    +0.000 Cl
ENDBRANCH  19  21
ENDBRANCH  16  17
ENDBRANCH  15  16
ENDBRANCH   6  15
TORSDOF 6
ENDMDL
MODEL 4
REMARK VINA RESULT:      -7.3      1.532      1.809
REMARK  Name = 
REMARK  8 active torsions:
REMARK  status: ('A' for Active; 'I' for Inactive)
REMARK    1  A    between atoms: C_1  and  O_2
REMARK    2  A    between atoms: O_2  and  C_3
REMARK    3  A    between atoms: C_8  and  N_9
REMARK    4  A    between atoms: C_10  and  C_11
REMARK    5  A    between atoms: C_14  and  S_15
REMARK    6  A    between atoms: S_15  and  C_16
REMARK    7  A    between atoms: C_16  and  C_17
REMARK    8  A    between atoms: N_19  and  C_20
REMARK                            x       y       z     vdW  Elec       q    Type
REMARK                         _______ _______ _______ _____ _____    ______ ____
ROOT
ATOM      1  N   UNL     1       3.800   4.287  18.132  0.00  0.00    +0.000 N 
ATOM      2  C   UNL     1       3.193   3.188  18.747  0.00  0.00    +0.000 A 
ATOM      3  C   UNL     1       3.552   1.756  18.606  0.00  0.00    +0.000 C 
ATOM      4  N   UNL     1       2.122   3.580  19.411  0.00  0.00    +0.000 NA
ATOM      5  N   UNL     1       1.963   4.917  19.233  0.00  0.00    +0.000 NA
ATOM      6  C   UNL     1       2.942   5.344  18.472  0.00  0.00    +0.000 A 
ENDROOT
BRANCH   1  12
ATOM      7  C   UNL     1       6.272   4.571  17.811  0.00  0.00    +0.000 A 
ATOM      8  C   UNL     1       7.345   4.708  16.908  0.00  0.00    +0.000 A 
ATOM      9  C   UNL     1       7.158   4.579  15.534  0.00  0.00    +0.000 A 
ATOM     10  C   UNL     1       5.899   4.286  15.039  0.00  0.00    +0.000 A 
ATOM     11  C   UNL     1       4.824   4.145  15.919  0.00  0.00    +0.000 A 
ATOM     12  C   UNL     1       4.977   4.331  17.308  0.00  0.00    +0.000 A 
BRANCH   7  14
ATOM     13  C   UNL     1       7.525   5.669  19.500  0.00  0.00    +0.000 C 
ATOM     14  O   UNL     1       6.462   4.775  19.154  0.00  0.00    +0.000 OA
ENDBRANCH   7  14
ENDBRANCH   1  12
BRANCH   6  15
ATOM     15  S   UNL     1       3.177   7.034  18.107  0.00  0.00    +0.000 S 
BRANCH  15  16
ATOM     16  C   UNL     1       2.212   7.835  19.431  0.00  0.00    +0.000 C 
BRANCH  16  17
ATOM     17  C   UNL     1       1.339   8.975  18.913  0.00  0.00    +0.000 C 
ATOM     18  O   UNL     1       1.590   9.517  17.833  0.00  0.00    +0.000 OA
ATOM     19  N   UNL     1       0.261   9.301  19.713  0.00  0.00    +0.000 N 
ATOM     20  H   UNL     1       0.371   9.085  20.701  0.00  0.00    +0.000 HD
BRANCH  19  21
ATOM     21  C   UNL     1      -0.713  10.281  19.402  0.00  0.00    +0.000 A 
ATOM     22  C   UNL     1      -1.591  10.128  18.324  0.00  0.00    +0.000 A 
ATOM     23  C   UNL     1      -2.571  11.091  18.066  0.00  0.00    +0.000 A 
ATOM     24  C   UNL     1      -2.667  12.231  18.865  0.00  0.00    +0.000 A 
ATOM     25  C   UNL     1      -1.791  12.395  19.942  0.00  0.00    +0.000 A 
ATOM     26  C   UNL     1      -0.834  11.415  20.221  0.00  0.00    +0.000 A 
ATOM     27 CL   UNL     1       0.244  11.671  21.551  0.00  0.00    +0.000 Cl
ENDBRANCH  19  21
ENDBRANCH  16  17
ENDBRANCH  15  16
ENDBRANCH   6  15
TORSDOF 6
ENDMDL
MODEL 5
REMARK VINA RESULT:      -7.3      1.102      1.119
REMARK  Name = 
REMARK  8 active torsions:
REMARK  status: ('A' for Active; 'I' for Inactive)
REMARK    1  A    between atoms: C_1  and  O_2
REMARK    2  A    between atoms: O_2  and  C_3
REMARK    3  A    between atoms: C_8  and  N_9
REMARK    4  A    between atoms: C_10  and  C_11
REMARK    5  A    between atoms: C_14  and  S_15
REMARK    6  A    between atoms: S_15  and  C_16
REMARK    7  A    between atoms: C_16  and  C_17
REMARK    8  A    between atoms: N_19  and  C_20
REMARK                            x       y       z     vdW  Elec       q    Type
REMARK                         _______ _______ _______ _____ _____    ______ ____
ROOT
ATOM      1  N   UNL     1       3.819   4.383  18.082  0.00  0.00    +0.000 N 
ATOM      2  C   UNL     1       3.055   3.314  18.560  0.00  0.00    +0.000 A 
ATOM      3  C   UNL     1       3.202   1.875  18.235  0.00  0.00    +0.000 C 
ATOM      4  N   UNL     1       2.048   3.770  19.283  0.00  0.00    +0.000 NA
ATOM      5  N   UNL     1       2.087   5.128  19.279  0.00  0.00    +0.000 NA
ATOM      6  C   UNL     1       3.122   5.501  18.566  0.00  0.00    +0.000 A 
ENDROOT
BRANCH   1  12
ATOM      7  C   UNL     1       6.301   4.543  17.752  0.00  0.00    +0.000 A 
ATOM      8  C   UNL     1       7.376   4.617  16.845  0.00  0.00    +0.000 A 
ATOM      9  C   UNL     1       7.179   4.482  15.473  0.00  0.00    +0.000 A 
ATOM     10  C   UNL     1       5.906   4.246  14.985  0.00  0.00    +0.000 A 
ATOM     11  C   UNL     1       4.828   4.167  15.869  0.00  0.00    +0.000 A 
ATOM     12  C   UNL     1       4.994   4.360  17.256  0.00  0.00    +0.000 A 
BRANCH   7  14
ATOM     13  C   UNL     1       7.523   5.701  19.423  0.00  0.00    +0.000 C 
ATOM     14  O   UNL     1       6.504   4.751  19.092  0.00  0.00    +0.000 OA
ENDBRANCH   7  14
ENDBRANCH   1  12
BRANCH   6  15
ATOM     15  S   UNL     1       3.603   7.172  18.415  0.00  0.00    +0.000 S 
BRANCH  15  16
ATOM     16  C   UNL     1       2.117   7.917  17.666  0.00  0.00    +0.000 C 
BRANCH  16  17
ATOM     17  C   UNL     1       1.429   8.914  18.595  0.00  0.00    +0.000 C 
ATOM     18  O   UNL     1       1.427   8.737  19.816  0.00  0.00    +0.000 OA
ATOM     19  N   UNL     1       0.866  10.009  17.969  0.00  0.00    +0.000 N 
ATOM     20  H   UNL     1       0.590   9.863  17.000  0.00  0.00    +0.000 HD
BRANCH  19  21
ATOM     21  C   UNL     1       0.232  11.087  18.634  0.00  0.00    +0.000 A 
ATOM     22  C   UNL     1       0.967  12.081  19.288  0.00  0.00    +0.000 A 
ATOM     23  C   UNL     1       0.316  13.157  19.899  0.00  0.00    +0.000 A 
ATOM     24  C   UNL     1      -1.077  13.236  19.889  0.00  0.00    +0.000 A 
ATOM     25  C   UNL     1      -1.820  12.245  19.242  0.00  0.00    +0.000 A 
ATOM     26  C   UNL     1      -1.168  11.188  18.600  0.00  0.00    +0.000 A 
ATOM     27 CL   UNL     1      -2.130   9.971  17.832  0.00  0.00    +0.000 Cl
ENDBRANCH  19  21
ENDBRANCH  16  17
ENDBRANCH  15  16
ENDBRANCH   6  15
TORSDOF 6
ENDMDL
MODEL 6
REMARK VINA RESULT:      -7.3      1.619      2.236
REMARK  Name = 
REMARK  8 active torsions:
REMARK  status: ('A' for Active; 'I' for Inactive)
REMARK    1  A    between atoms: C_1  and  O_2
REMARK    2  A    between atoms: O_2  and  C_3
REMARK    3  A    between atoms: C_8  and  N_9
REMARK    4  A    between atoms: C_10  and  C_11
REMARK    5  A    between atoms: C_14  and  S_15
REMARK    6  A    between atoms: S_15  and  C_16
REMARK    7  A    between atoms: C_16  and  C_17
REMARK    8  A    between atoms: N_19  and  C_20
REMARK                            x       y       z     vdW  Elec       q    Type
REMARK                         _______ _______ _______ _____ _____    ______ ____
ROOT
ATOM      1  N   UNL     1       3.582   4.635  17.980  0.00  0.00    +0.000 N 
ATOM      2  C   UNL     1       2.938   3.397  17.905  0.00  0.00    +0.000 A 
ATOM      3  C   UNL     1       3.557   2.059  17.745  0.00  0.00    +0.000 C 
ATOM      4  N   UNL     1       1.630   3.573  17.865  0.00  0.00    +0.000 NA
ATOM      5  N   UNL     1       1.369   4.906  17.875  0.00  0.00    +0.000 NA
ATOM      6  C   UNL     1       2.514   5.543  17.934  0.00  0.00    +0.000 A 
ENDROOT
BRANCH   1  12
ATOM      7  C   UNL     1       5.829   4.940  16.905  0.00  0.00    +0.000 A 
ATOM      8  C   UNL     1       7.214   5.122  17.080  0.00  0.00    +0.000 A 
ATOM      9  C   UNL     1       7.767   5.318  18.344  0.00  0.00    +0.000 A 
ATOM     10  C   UNL     1       6.940   5.359  19.453  0.00  0.00    +0.000 A 
ATOM     11  C   UNL     1       5.564   5.183  19.298  0.00  0.00    +0.000 A 
ATOM     12  C   UNL     1       4.989   4.924  18.037  0.00  0.00    +0.000 A 
BRANCH   7  14
ATOM     13  C   UNL     1       6.092   3.798  14.843  0.00  0.00    +0.000 C 
ATOM     14  O   UNL     1       5.312   4.676  15.662  0.00  0.00    +0.000 OA
ENDBRANCH   7  14
ENDBRANCH   1  12
BRANCH   6  15
ATOM     15  S   UNL     1       2.614   7.277  18.094  0.00  0.00    +0.000 S 
BRANCH  15  16
ATOM     16  C   UNL     1       1.920   7.534  19.761  0.00  0.00    +0.000 C 
BRANCH  16  17
ATOM     17  C   UNL     1       1.360   8.942  19.953  0.00  0.00    +0.000 C 
ATOM     18  O   UNL     1       1.130   9.377  21.085  0.00  0.00    +0.000 OA
ATOM     19  N   UNL     1       1.181   9.667  18.792  0.00  0.00    +0.000 N 
ATOM     20  H   UNL     1       1.029   9.113  17.951  0.00  0.00    +0.000 HD
BRANCH  19  21
ATOM     21  C   UNL     1       0.733  11.009  18.734  0.00  0.00    +0.000 A 
ATOM     22  C   UNL     1       1.616  12.085  18.873  0.00  0.00    +0.000 A 
ATOM     23  C   UNL     1       1.152  13.400  18.768  0.00  0.00    +0.000 A 
ATOM     24  C   UNL     1      -0.202  13.655  18.553  0.00  0.00    +0.000 A 
ATOM     25  C   UNL     1      -1.093  12.586  18.418  0.00  0.00    +0.000 A 
ATOM     26  C   UNL     1      -0.624  11.272  18.487  0.00  0.00    +0.000 A 
ATOM     27 CL   UNL     1      -1.767   9.980  18.337  0.00  0.00    +0.000 Cl
ENDBRANCH  19  21
ENDBRANCH  16  17
ENDBRANCH  15  16
ENDBRANCH   6  15
TORSDOF 6
ENDMDL
MODEL 7
REMARK VINA RESULT:      -7.3      1.919      2.186
REMARK  Name = 
REMARK  8 active torsions:
REMARK  status: ('A' for Active; 'I' for Inactive)
REMARK    1  A    between atoms: C_1  and  O_2
REMARK    2  A    between atoms: O_2  and  C_3
REMARK    3  A    between atoms: C_8  and  N_9
REMARK    4  A    between atoms: C_10  and  C_11
REMARK    5  A    between atoms: C_14  and  S_15
REMARK    6  A    between atoms: S_15  and  C_16
REMARK    7  A    between atoms: C_16  and  C_17
REMARK    8  A    between atoms: N_19  and  C_20
REMARK                            x       y       z     vdW  Elec       q    Type
REMARK                         _______ _______ _______ _____ _____    ______ ____
ROOT
ATOM      1  N   UNL     1       3.721   3.883  18.139  0.00  0.00    +0.000 N 
ATOM      2  C   UNL     1       3.237   2.693  18.692  0.00  0.00    +0.000 A 
ATOM      3  C   UNL     1       3.750   1.318  18.477  0.00  0.00    +0.000 C 
ATOM      4  N   UNL     1       2.130   2.930  19.370  0.00  0.00    +0.000 NA
ATOM      5  N   UNL     1       1.827   4.250  19.263  0.00  0.00    +0.000 NA
ATOM      6  C   UNL     1       2.754   4.820  18.531  0.00  0.00    +0.000 A 
ENDROOT
BRANCH   1  12
ATOM      7  C   UNL     1       6.136   4.495  17.842  0.00  0.00    +0.000 A 
ATOM      8  C   UNL     1       7.185   4.791  16.950  0.00  0.00    +0.000 A 
ATOM      9  C   UNL     1       7.023   4.668  15.572  0.00  0.00    +0.000 A 
ATOM     10  C   UNL     1       5.815   4.224  15.063  0.00  0.00    +0.000 A 
ATOM     11  C   UNL     1       4.765   3.924  15.932  0.00  0.00    +0.000 A 
ATOM     12  C   UNL     1       4.886   4.098  17.326  0.00  0.00    +0.000 A 
BRANCH   7  14
ATOM     13  C   UNL     1       7.293   5.645  19.565  0.00  0.00    +0.000 C 
ATOM     14  O   UNL     1       6.292   4.693  19.191  0.00  0.00    +0.000 OA
ENDBRANCH   7  14
ENDBRANCH   1  12
BRANCH   6  15
ATOM     15  S   UNL     1       2.803   6.543  18.258  0.00  0.00    +0.000 S 
BRANCH  15  16
ATOM     16  C   UNL     1       2.312   7.190  19.891  0.00  0.00    +0.000 C 
BRANCH  16  17
ATOM     17  C   UNL     1       1.572   8.522  19.796  0.00  0.00    +0.000 C 
ATOM     18  O   UNL     1       1.710   9.248  18.808  0.00  0.00    +0.000 OA
ATOM     19  N   UNL     1       0.736   8.807  20.858  0.00  0.00    +0.000 N 
ATOM     20  H   UNL     1       0.987   8.367  21.741  0.00  0.00    +0.000 HD
BRANCH  19  21
ATOM     21  C   UNL     1      -0.092   9.952  20.954  0.00  0.00    +0.000 A 
ATOM     22  C   UNL     1      -0.534  10.636  19.817  0.00  0.00    +0.000 A 
ATOM     23  C   UNL     1      -1.386  11.738  19.940  0.00  0.00    +0.000 A 
ATOM     24  C   UNL     1      -1.782  12.186  21.200  0.00  0.00    +0.000 A 
ATOM     25  C   UNL     1      -1.342  11.511  22.343  0.00  0.00    +0.000 A 
ATOM     26  C   UNL     1      -0.519  10.388  22.218  0.00  0.00    +0.000 A 
ATOM     27 CL   UNL     1       0.021   9.598  23.661  0.00  0.00    +0.000 Cl
ENDBRANCH  19  21
ENDBRANCH  16  17
ENDBRANCH  15  16
ENDBRANCH   6  15
TORSDOF 6
ENDMDL
MODEL 8
REMARK VINA RESULT:      -7.3      1.486      1.740
REMARK  Name = 
REMARK  8 active torsions:
REMARK  status: ('A' for Active; 'I' for Inactive)
REMARK    1  A    between atoms: C_1  and  O_2
REMARK    2  A    between atoms: O_2  and  C_3
REMARK    3  A    between atoms: C_8  and  N_9
REMARK    4  A    between atoms: C_10  and  C_11
REMARK    5  A    between atoms: C_14  and  S_15
REMARK    6  A    between atoms: S_15  and  C_16
REMARK    7  A    between atoms: C_16  and  C_17
REMARK    8  A    between atoms: N_19  and  C_20
REMARK                            x       y       z     vdW  Elec       q    Type
REMARK                         _______ _______ _______ _____ _____    ______ ____
ROOT
ATOM      1  N   UNL     1       3.768   4.466  17.947  0.00  0.00    +0.000 N 
ATOM      2  C   UNL     1       3.009   3.396  18.431  0.00  0.00    +0.000 A 
ATOM      3  C   UNL     1       3.165   1.956  18.116  0.00  0.00    +0.000 C 
ATOM      4  N   UNL     1       1.999   3.851  19.149  0.00  0.00    +0.000 NA
ATOM      5  N   UNL     1       2.031   5.210  19.135  0.00  0.00    +0.000 NA
ATOM      6  C   UNL     1       3.065   5.583  18.421  0.00  0.00    +0.000 A 
ENDROOT
BRANCH   1  12
ATOM      7  C   UNL     1       6.257   4.516  17.634  0.00  0.00    +0.000 A 
ATOM      8  C   UNL     1       7.340   4.602  16.737  0.00  0.00    +0.000 A 
ATOM      9  C   UNL     1       7.144   4.584  15.358  0.00  0.00    +0.000 A 
ATOM     10  C   UNL     1       5.862   4.455  14.851  0.00  0.00    +0.000 A 
ATOM     11  C   UNL     1       4.777   4.367  15.725  0.00  0.00    +0.000 A 
ATOM     12  C   UNL     1       4.945   4.443  17.123  0.00  0.00    +0.000 A 
BRANCH   7  14
ATOM     13  C   UNL     1       7.342   5.659  19.407  0.00  0.00    +0.000 C 
ATOM     14  O   UNL     1       6.464   4.609  18.987  0.00  0.00    +0.000 OA
ENDBRANCH   7  14
ENDBRANCH   1  12
BRANCH   6  15
ATOM     15  S   UNL     1       3.537   7.255  18.260  0.00  0.00    +0.000 S 
BRANCH  15  16
ATOM     16  C   UNL     1       2.012   8.007  17.602  0.00  0.00    +0.000 C 
BRANCH  16  17
ATOM     17  C   UNL     1       1.383   9.004  18.572  0.00  0.00    +0.000 C 
ATOM     18  O   UNL     1       1.478   8.839  19.792  0.00  0.00    +0.000 OA
ATOM     19  N   UNL     1       0.757  10.085  17.982  0.00  0.00    +0.000 N 
ATOM     20  H   UNL     1       0.409   9.925  17.039  0.00  0.00    +0.000 HD
BRANCH  19  21
ATOM     21  C   UNL     1       0.160  11.160  18.685  0.00  0.00    +0.000 A 
ATOM     22  C   UNL     1      -1.127  11.061  19.224  0.00  0.00    +0.000 A 
ATOM     23  C   UNL     1      -1.674  12.123  19.951  0.00  0.00    +0.000 A 
ATOM     24  C   UNL     1      -0.954  13.305  20.122  0.00  0.00    +0.000 A 
ATOM     25  C   UNL     1       0.331  13.415  19.583  0.00  0.00    +0.000 A 
ATOM     26  C   UNL     1       0.892  12.341  18.887  0.00  0.00    +0.000 A 
ATOM     27 CL   UNL     1       2.478  12.530  18.217  0.00  0.00    +0.000 Cl
ENDBRANCH  19  21
ENDBRANCH  16  17
ENDBRANCH  15  16
ENDBRANCH   6  15
TORSDOF 6
ENDMDL
MODEL 9
REMARK VINA RESULT:      -7.2      1.491      2.160
REMARK  Name = 
REMARK  8 active torsions:
REMARK  status: ('A' for Active; 'I' for Inactive)
REMARK    1  A    between atoms: C_1  and  O_2
REMARK    2  A    between atoms: O_2  and  C_3
REMARK    3  A    between atoms: C_8  and  N_9
REMARK    4  A    between atoms: C_10  and  C_11
REMARK    5  A    between atoms: C_14  and  S_15
REMARK    6  A    between atoms: S_15  and  C_16
REMARK    7  A    between atoms: C_16  and  C_17
REMARK    8  A    between atoms: N_19  and  C_20
REMARK                            x       y       z     vdW  Elec       q    Type
REMARK                         _______ _______ _______ _____ _____    ______ ____
ROOT
ATOM      1  N   UNL     1       3.567   4.367  18.655  0.00  0.00    +0.000 N 
ATOM      2  C   UNL     1       3.019   3.089  18.504  0.00  0.00    +0.000 A 
ATOM      3  C   UNL     1       3.660   1.891  17.912  0.00  0.00    +0.000 C 
ATOM      4  N   UNL     1       1.746   3.101  18.856  0.00  0.00    +0.000 NA
ATOM      5  N   UNL     1       1.404   4.368  19.211  0.00  0.00    +0.000 NA
ATOM      6  C   UNL     1       2.468   5.124  19.087  0.00  0.00    +0.000 A 
ENDROOT
BRANCH   1  12
ATOM      7  C   UNL     1       5.451   4.916  17.092  0.00  0.00    +0.000 A 
ATOM      8  C   UNL     1       6.808   5.260  16.942  0.00  0.00    +0.000 A 
ATOM      9  C   UNL     1       7.612   5.537  18.046  0.00  0.00    +0.000 A 
ATOM     10  C   UNL     1       7.066   5.499  19.317  0.00  0.00    +0.000 A 
ATOM     11  C   UNL     1       5.722   5.161  19.484  0.00  0.00    +0.000 A 
ATOM     12  C   UNL     1       4.904   4.818  18.388  0.00  0.00    +0.000 A 
BRANCH   7  14
ATOM     13  C   UNL     1       5.409   4.457  14.765  0.00  0.00    +0.000 C 
ATOM     14  O   UNL     1       4.695   4.574  15.999  0.00  0.00    +0.000 OA
ENDBRANCH   7  14
ENDBRANCH   1  12
BRANCH   6  15
ATOM     15  S   UNL     1       2.484   6.802  19.567  0.00  0.00    +0.000 S 
BRANCH  15  16
ATOM     16  C   UNL     1       2.356   7.648  17.957  0.00  0.00    +0.000 C 
BRANCH  16  17
ATOM     17  C   UNL     1       1.884   9.094  18.090  0.00  0.00    +0.000 C 
ATOM     18  O   UNL     1       2.364   9.979  17.377  0.00  0.00    +0.000 OA
ATOM     19  N   UNL     1       0.882   9.303  19.017  0.00  0.00    +0.000 N 
ATOM     20  H   UNL     1       0.846   8.630  19.780  0.00  0.00    +0.000 HD
BRANCH  19  21
ATOM     21  C   UNL     1       0.252  10.547  19.264  0.00  0.00    +0.000 A 
ATOM     22  C   UNL     1       0.732  11.434  20.234  0.00  0.00    +0.000 A 
ATOM     23  C   UNL     1       0.116  12.674  20.427  0.00  0.00    +0.000 A 
ATOM     24  C   UNL     1      -1.003  13.030  19.674  0.00  0.00    +0.000 A 
ATOM     25  C   UNL     1      -1.493  12.149  18.706  0.00  0.00    +0.000 A 
ATOM     26  C   UNL     1      -0.856  10.924  18.488  0.00  0.00    +0.000 A 
ATOM     27 CL   UNL     1      -1.511   9.854  17.295  0.00  0.00    +0.000 Cl
ENDBRANCH  19  21
ENDBRANCH  16  17
ENDBRANCH  15  16
ENDBRANCH   6  15
TORSDOF 6
ENDMDL
