MODEL 1
REMARK VINA RESULT:      -6.6      0.000      0.000
REMARK  Name = 
REMARK  14 active torsions:
REMARK  status: ('A' for Active; 'I' for Inactive)
REMARK    1  A    between atoms: C_1  and  N_2
REMARK    2  A    between atoms: C_3  and  C_5
REMARK    3  A    between atoms: C_5  and  O_6
REMARK    4  A    between atoms: O_6  and  C_7
REMARK    5  A    between atoms: C_12  and  O_13
REMARK    6  A    between atoms: O_13  and  C_14
REMARK    7  A    between atoms: C_14  and  C_15
REMARK    8  A    between atoms: C_15  and  O_16
REMARK    9  A    between atoms: C_15  and  C_17
REMARK   10  A    between atoms: C_17  and  N_18
REMARK   11  A    between atoms: N_18  and  C_19
REMARK   12  A    between atoms: C_19  and  C_20
REMARK   13  A    between atoms: C_19  and  C_21
REMARK   14  A    between atoms: C_19  and  C_22
REMARK                            x       y       z     vdW  Elec       q    Type
REMARK                         _______ _______ _______ _____ _____    ______ ____
ROOT
ATOM      1  C   UNL     1       2.203   4.796  18.352  0.00  0.00    +0.000 A 
ATOM      2  C   UNL     1       1.444   4.437  19.475  0.00  0.00    +0.000 A 
ATOM      3  C   UNL     1       1.251   3.092  19.817  0.00  0.00    +0.000 A 
ATOM      4  C   UNL     1       1.777   2.090  19.015  0.00  0.00    +0.000 A 
ATOM      5  C   UNL     1       2.557   2.433  17.917  0.00  0.00    +0.000 A 
ATOM      6  C   UNL     1       2.829   3.779  17.624  0.00  0.00    +0.000 A 
ENDROOT
BRANCH   1   7
ATOM      7  O   UNL     1       2.380   6.094  17.935  0.00  0.00    +0.000 OA
BRANCH   7   8
ATOM      8  C   UNL     1       2.402   7.096  18.947  0.00  0.00    +0.000 C 
BRANCH   8  11
ATOM      9  C   UNL     1       0.766  10.542  18.970  0.00  0.00    +0.000 C 
ATOM     10  N   UNL     1       1.247   9.233  19.346  0.00  0.00    +0.000 N 
ATOM     11  C   UNL     1       2.012   8.492  18.466  0.00  0.00    +0.000 C 
ATOM     12  O   UNL     1       2.297   8.895  17.344  0.00  0.00    +0.000 OA
ATOM     13  H   UNL     1       0.891   8.772  20.182  0.00  0.00    +0.000 HD
ENDBRANCH   8  11
ENDBRANCH   7   8
ENDBRANCH   1   7
BRANCH   6  14
ATOM     14  O   UNL     1       3.745   3.916  16.624  0.00  0.00    +0.000 OA
BRANCH  14  15
ATOM     15  C   UNL     1       5.110   3.527  16.796  0.00  0.00    +0.000 C 
BRANCH  15  16
ATOM     16  C   UNL     1       6.197   4.009  15.806  0.00  0.00    +0.000 C 
BRANCH  16  17
ATOM     17  O   UNL     1       6.128   3.371  14.527  0.00  0.00    +0.000 OA
ATOM     18  H   UNL     1       5.889   4.072  13.885  0.00  0.00    +0.000 HD
ENDBRANCH  16  17
BRANCH  16  19
ATOM     19  C   UNL     1       6.294   5.527  15.592  0.00  0.00    +0.000 C 
BRANCH  19  20
ATOM     20  N   UNL     1       7.466   6.113  16.244  0.00  0.00    +0.000 NA
ATOM     21  H   UNL     1       7.904   6.770  15.596  0.00  0.00    +0.000 HD
BRANCH  20  22
ATOM     22  C   UNL     1       7.177   6.812  17.508  0.00  0.00    +0.000 C 
ATOM     23  C   UNL     1       7.918   8.158  17.578  0.00  0.00    +0.000 C 
ATOM     24  C   UNL     1       5.661   7.084  17.513  0.00  0.00    +0.000 C 
ATOM     25  C   UNL     1       7.521   5.954  18.741  0.00  0.00    +0.000 C 
ENDBRANCH  20  22
ENDBRANCH  19  20
ENDBRANCH  16  19
ENDBRANCH  15  16
ENDBRANCH  14  15
ENDBRANCH   6  14
TORSDOF 10
ENDMDL
MODEL 2
REMARK VINA RESULT:      -6.6      1.669      2.528
REMARK  Name = 
REMARK  14 active torsions:
REMARK  status: ('A' for Active; 'I' for Inactive)
REMARK    1  A    between atoms: C_1  and  N_2
REMARK    2  A    between atoms: C_3  and  C_5
REMARK    3  A    between atoms: C_5  and  O_6
REMARK    4  A    between atoms: O_6  and  C_7
REMARK    5  A    between atoms: C_12  and  O_13
REMARK    6  A    between atoms: O_13  and  C_14
REMARK    7  A    between atoms: C_14  and  C_15
REMARK    8  A    between atoms: C_15  and  O_16
REMARK    9  A    between atoms: C_15  and  C_17
REMARK   10  A    between atoms: C_17  and  N_18
REMARK   11  A    between atoms: N_18  and  C_19
REMARK   12  A    between atoms: C_19  and  C_20
REMARK   13  A    between atoms: C_19  and  C_21
REMARK   14  A    between atoms: C_19  and  C_22
REMARK                            x       y       z     vdW  Elec       q    Type
REMARK                         _______ _______ _______ _____ _____    ______ ____
ROOT
ATOM      1  C   UNL     1       2.681   5.589  19.930  0.00  0.00    +0.000 A 
ATOM      2  C   UNL     1       1.736   4.893  20.698  0.00  0.00    +0.000 A 
ATOM      3  C   UNL     1       1.801   3.501  20.836  0.00  0.00    +0.000 A 
ATOM      4  C   UNL     1       2.785   2.783  20.171  0.00  0.00    +0.000 A 
ATOM      5  C   UNL     1       3.745   3.464  19.433  0.00  0.00    +0.000 A 
ATOM      6  C   UNL     1       3.738   4.866  19.367  0.00  0.00    +0.000 A 
ENDROOT
BRANCH   1   7
ATOM      7  O   UNL     1       2.637   6.946  19.713  0.00  0.00    +0.000 OA
BRANCH   7   8
ATOM      8  C   UNL     1       2.270   7.376  18.407  0.00  0.00    +0.000 C 
BRANCH   8  11
ATOM      9  C   UNL     1       0.625  10.676  19.386  0.00  0.00    +0.000 C 
ATOM     10  N   UNL     1       1.129   9.323  19.392  0.00  0.00    +0.000 N 
ATOM     11  C   UNL     1       1.849   8.841  18.316  0.00  0.00    +0.000 C 
ATOM     12  O   UNL     1       2.071   9.519  17.318  0.00  0.00    +0.000 OA
ATOM     13  H   UNL     1       0.821   8.660  20.102  0.00  0.00    +0.000 HD
ENDBRANCH   8  11
ENDBRANCH   7   8
ENDBRANCH   1   7
BRANCH   6  14
ATOM     14  O   UNL     1       4.847   5.361  18.748  0.00  0.00    +0.000 OA
BRANCH  14  15
ATOM     15  C   UNL     1       6.134   5.326  19.369  0.00  0.00    +0.000 C 
BRANCH  15  16
ATOM     16  C   UNL     1       7.417   5.553  18.535  0.00  0.00    +0.000 C 
BRANCH  16  17
ATOM     17  O   UNL     1       8.167   4.355  18.304  0.00  0.00    +0.000 OA
ATOM     18  H   UNL     1       8.010   4.112  17.368  0.00  0.00    +0.000 HD
ENDBRANCH  16  17
BRANCH  16  19
ATOM     19  C   UNL     1       7.237   6.283  17.196  0.00  0.00    +0.000 C 
BRANCH  19  20
ATOM     20  N   UNL     1       7.494   5.417  16.044  0.00  0.00    +0.000 NA
ATOM     21  H   UNL     1       8.001   4.591  16.365  0.00  0.00    +0.000 HD
BRANCH  20  22
ATOM     22  C   UNL     1       6.284   4.984  15.323  0.00  0.00    +0.000 C 
ATOM     23  C   UNL     1       5.204   6.077  15.348  0.00  0.00    +0.000 C 
ATOM     24  C   UNL     1       6.715   4.750  13.863  0.00  0.00    +0.000 C 
ATOM     25  C   UNL     1       5.715   3.664  15.878  0.00  0.00    +0.000 C 
ENDBRANCH  20  22
ENDBRANCH  19  20
ENDBRANCH  16  19
ENDBRANCH  15  16
ENDBRANCH  14  15
ENDBRANCH   6  14
TORSDOF 10
ENDMDL
MODEL 3
REMARK VINA RESULT:      -6.6      1.174      1.507
REMARK  Name = 
REMARK  14 active torsions:
REMARK  status: ('A' for Active; 'I' for Inactive)
REMARK    1  A    between atoms: C_1  and  N_2
REMARK    2  A    between atoms: C_3  and  C_5
REMARK    3  A    between atoms: C_5  and  O_6
REMARK    4  A    between atoms: O_6  and  C_7
REMARK    5  A    between atoms: C_12  and  O_13
REMARK    6  A    between atoms: O_13  and  C_14
REMARK    7  A    between atoms: C_14  and  C_15
REMARK    8  A    between atoms: C_15  and  O_16
REMARK    9  A    between atoms: C_15  and  C_17
REMARK   10  A    between atoms: C_17  and  N_18
REMARK   11  A    between atoms: N_18  and  C_19
REMARK   12  A    between atoms: C_19  and  C_20
REMARK   13  A    between atoms: C_19  and  C_21
REMARK   14  A    between atoms: C_19  and  C_22
REMARK                            x       y       z     vdW  Elec       q    Type
REMARK                         _______ _______ _______ _____ _____    ______ ____
ROOT
ATOM      1  C   UNL     1       2.537   4.642  19.330  0.00  0.00    +0.000 A 
ATOM      2  C   UNL     1       1.369   4.234  19.992  0.00  0.00    +0.000 A 
ATOM      3  C   UNL     1       0.821   2.965  19.772  0.00  0.00    +0.000 A 
ATOM      4  C   UNL     1       1.406   2.105  18.854  0.00  0.00    +0.000 A 
ATOM      5  C   UNL     1       2.581   2.485  18.216  0.00  0.00    +0.000 A 
ATOM      6  C   UNL     1       3.185   3.719  18.502  0.00  0.00    +0.000 A 
ENDROOT
BRANCH   1   7
ATOM      7  O   UNL     1       3.090   5.894  19.463  0.00  0.00    +0.000 OA
BRANCH   7   8
ATOM      8  C   UNL     1       2.472   6.950  18.737  0.00  0.00    +0.000 C 
BRANCH   8  11
ATOM      9  C   UNL     1       1.254   8.788  21.851  0.00  0.00    +0.000 C 
ATOM     10  N   UNL     1       1.806   7.805  20.948  0.00  0.00    +0.000 N 
ATOM     11  C   UNL     1       1.942   8.091  19.603  0.00  0.00    +0.000 C 
ATOM     12  O   UNL     1       1.590   9.162  19.121  0.00  0.00    +0.000 OA
ATOM     13  H   UNL     1       1.941   6.842  21.252  0.00  0.00    +0.000 HD
ENDBRANCH   8  11
ENDBRANCH   7   8
ENDBRANCH   1   7
BRANCH   6  14
ATOM     14  O   UNL     1       4.409   3.844  17.918  0.00  0.00    +0.000 OA
BRANCH  14  15
ATOM     15  C   UNL     1       4.568   3.855  16.498  0.00  0.00    +0.000 C 
BRANCH  15  16
ATOM     16  C   UNL     1       5.961   4.072  15.861  0.00  0.00    +0.000 C 
BRANCH  16  17
ATOM     17  O   UNL     1       6.200   3.248  14.716  0.00  0.00    +0.000 OA
ATOM     18  H   UNL     1       6.540   3.845  14.016  0.00  0.00    +0.000 HD
ENDBRANCH  16  17
BRANCH  16  19
ATOM     19  C   UNL     1       6.328   5.521  15.508  0.00  0.00    +0.000 C 
BRANCH  19  20
ATOM     20  N   UNL     1       7.442   6.031  16.309  0.00  0.00    +0.000 NA
ATOM     21  H   UNL     1       8.004   6.652  15.726  0.00  0.00    +0.000 HD
BRANCH  20  22
ATOM     22  C   UNL     1       7.038   6.756  17.526  0.00  0.00    +0.000 C 
ATOM     23  C   UNL     1       7.309   5.919  18.786  0.00  0.00    +0.000 C 
ATOM     24  C   UNL     1       7.911   8.024  17.580  0.00  0.00    +0.000 C 
ATOM     25  C   UNL     1       5.559   7.186  17.485  0.00  0.00    +0.000 C 
ENDBRANCH  20  22
ENDBRANCH  19  20
ENDBRANCH  16  19
ENDBRANCH  15  16
ENDBRANCH  14  15
ENDBRANCH   6  14
TORSDOF 10
ENDMDL
MODEL 4
REMARK VINA RESULT:      -6.5      1.851      2.716
REMARK  Name = 
REMARK  14 active torsions:
REMARK  status: ('A' for Active; 'I' for Inactive)
REMARK    1  A    between atoms: C_1  and  N_2
REMARK    2  A    between atoms: C_3  and  C_5
REMARK    3  A    between atoms: C_5  and  O_6
REMARK    4  A    between atoms: O_6  and  C_7
REMARK    5  A    between atoms: C_12  and  O_13
REMARK    6  A    between atoms: O_13  and  C_14
REMARK    7  A    between atoms: C_14  and  C_15
REMARK    8  A    between atoms: C_15  and  O_16
REMARK    9  A    between atoms: C_15  and  C_17
REMARK   10  A    between atoms: C_17  and  N_18
REMARK   11  A    between atoms: N_18  and  C_19
REMARK   12  A    between atoms: C_19  and  C_20
REMARK   13  A    between atoms: C_19  and  C_21
REMARK   14  A    between atoms: C_19  and  C_22
REMARK                            x       y       z     vdW  Elec       q    Type
REMARK                         _______ _______ _______ _____ _____    ______ ____
ROOT
ATOM      1  C   UNL     1       3.047   4.690  19.247  0.00  0.00    +0.000 A 
ATOM      2  C   UNL     1       1.737   4.201  19.131  0.00  0.00    +0.000 A 
ATOM      3  C   UNL     1       1.493   2.848  18.866  0.00  0.00    +0.000 A 
ATOM      4  C   UNL     1       2.553   1.976  18.669  0.00  0.00    +0.000 A 
ATOM      5  C   UNL     1       3.855   2.442  18.813  0.00  0.00    +0.000 A 
ATOM      6  C   UNL     1       4.104   3.777  19.169  0.00  0.00    +0.000 A 
ENDROOT
BRANCH   1   7
ATOM      7  O   UNL     1       3.350   6.016  19.451  0.00  0.00    +0.000 OA
BRANCH   7   8
ATOM      8  C   UNL     1       2.595   6.969  18.710  0.00  0.00    +0.000 C 
BRANCH   8  11
ATOM      9  C   UNL     1       1.176   8.709  21.794  0.00  0.00    +0.000 C 
ATOM     10  N   UNL     1       1.836   7.779  20.907  0.00  0.00    +0.000 N 
ATOM     11  C   UNL     1       1.939   8.056  19.557  0.00  0.00    +0.000 C 
ATOM     12  O   UNL     1       1.468   9.072  19.058  0.00  0.00    +0.000 OA
ATOM     13  H   UNL     1       2.079   6.843  21.227  0.00  0.00    +0.000 HD
ENDBRANCH   8  11
ENDBRANCH   7   8
ENDBRANCH   1   7
BRANCH   6  14
ATOM     14  O   UNL     1       5.421   4.006  19.433  0.00  0.00    +0.000 OA
BRANCH  14  15
ATOM     15  C   UNL     1       6.017   5.288  19.227  0.00  0.00    +0.000 C 
BRANCH  15  16
ATOM     16  C   UNL     1       7.335   5.425  18.427  0.00  0.00    +0.000 C 
BRANCH  16  17
ATOM     17  O   UNL     1       8.031   4.186  18.257  0.00  0.00    +0.000 OA
ATOM     18  H   UNL     1       8.900   4.412  17.866  0.00  0.00    +0.000 HD
ENDBRANCH  16  17
BRANCH  16  19
ATOM     19  C   UNL     1       7.232   6.120  17.062  0.00  0.00    +0.000 C 
BRANCH  19  20
ATOM     20  N   UNL     1       7.511   5.214  15.947  0.00  0.00    +0.000 NA
ATOM     21  H   UNL     1       7.961   4.374  16.315  0.00  0.00    +0.000 HD
BRANCH  20  22
ATOM     22  C   UNL     1       6.325   4.818  15.169  0.00  0.00    +0.000 C 
ATOM     23  C   UNL     1       5.677   3.552  15.754  0.00  0.00    +0.000 C 
ATOM     24  C   UNL     1       5.323   5.982  15.288  0.00  0.00    +0.000 C 
ATOM     25  C   UNL     1       6.648   4.605  13.678  0.00  0.00    +0.000 C 
ENDBRANCH  20  22
ENDBRANCH  19  20
ENDBRANCH  16  19
ENDBRANCH  15  16
ENDBRANCH  14  15
ENDBRANCH   6  14
TORSDOF 10
ENDMDL
MODEL 5
REMARK VINA RESULT:      -6.5      1.034      1.034
REMARK  Name = 
REMARK  14 active torsions:
REMARK  status: ('A' for Active; 'I' for Inactive)
REMARK    1  A    between atoms: C_1  and  N_2
REMARK    2  A    between atoms: C_3  and  C_5
REMARK    3  A    between atoms: C_5  and  O_6
REMARK    4  A    between atoms: O_6  and  C_7
REMARK    5  A    between atoms: C_12  and  O_13
REMARK    6  A    between atoms: O_13  and  C_14
REMARK    7  A    between atoms: C_14  and  C_15
REMARK    8  A    between atoms: C_15  and  O_16
REMARK    9  A    between atoms: C_15  and  C_17
REMARK   10  A    between atoms: C_17  and  N_18
REMARK   11  A    between atoms: N_18  and  C_19
REMARK   12  A    between atoms: C_19  and  C_20
REMARK   13  A    between atoms: C_19  and  C_21
REMARK   14  A    between atoms: C_19  and  C_22
REMARK                            x       y       z     vdW  Elec       q    Type
REMARK                         _______ _______ _______ _____ _____    ______ ____
ROOT
ATOM      1  C   UNL     1       2.062   4.633  18.701  0.00  0.00    +0.000 A 
ATOM      2  C   UNL     1       1.255   4.215  19.770  0.00  0.00    +0.000 A 
ATOM      3  C   UNL     1       0.874   2.875  19.906  0.00  0.00    +0.000 A 
ATOM      4  C   UNL     1       1.257   1.943  18.952  0.00  0.00    +0.000 A 
ATOM      5  C   UNL     1       2.083   2.338  17.906  0.00  0.00    +0.000 A 
ATOM      6  C   UNL     1       2.543   3.662  17.817  0.00  0.00    +0.000 A 
ENDROOT
BRANCH   1   7
ATOM      7  O   UNL     1       2.422   5.942  18.485  0.00  0.00    +0.000 OA
BRANCH   7   8
ATOM      8  C   UNL     1       2.484   6.789  19.627  0.00  0.00    +0.000 C 
BRANCH   8  11
ATOM      9  C   UNL     1       1.835  10.122  17.889  0.00  0.00    +0.000 C 
ATOM     10  N   UNL     1       2.245   8.769  18.184  0.00  0.00    +0.000 N 
ATOM     11  C   UNL     1       1.938   8.197  19.403  0.00  0.00    +0.000 C 
ATOM     12  O   UNL     1       1.332   8.805  20.280  0.00  0.00    +0.000 OA
ATOM     13  H   UNL     1       2.904   8.285  17.577  0.00  0.00    +0.000 HD
ENDBRANCH   8  11
ENDBRANCH   7   8
ENDBRANCH   1   7
BRANCH   6  14
ATOM     14  O   UNL     1       3.474   3.821  16.835  0.00  0.00    +0.000 OA
BRANCH  14  15
ATOM     15  C   UNL     1       4.875   3.792  17.115  0.00  0.00    +0.000 C 
BRANCH  15  16
ATOM     16  C   UNL     1       5.909   4.040  15.990  0.00  0.00    +0.000 C 
BRANCH  16  17
ATOM     17  O   UNL     1       5.405   4.843  14.918  0.00  0.00    +0.000 OA
ATOM     18  H   UNL     1       4.954   4.228  14.304  0.00  0.00    +0.000 HD
ENDBRANCH  16  17
BRANCH  16  19
ATOM     19  C   UNL     1       7.267   4.607  16.430  0.00  0.00    +0.000 C 
BRANCH  19  20
ATOM     20  N   UNL     1       7.338   6.063  16.298  0.00  0.00    +0.000 NA
ATOM     21  H   UNL     1       6.639   6.362  15.617  0.00  0.00    +0.000 HD
BRANCH  20  22
ATOM     22  C   UNL     1       7.126   6.802  17.554  0.00  0.00    +0.000 C 
ATOM     23  C   UNL     1       7.919   8.119  17.562  0.00  0.00    +0.000 C 
ATOM     24  C   UNL     1       5.622   7.133  17.610  0.00  0.00    +0.000 C 
ATOM     25  C   UNL     1       7.485   5.961  18.794  0.00  0.00    +0.000 C 
ENDBRANCH  20  22
ENDBRANCH  19  20
ENDBRANCH  16  19
ENDBRANCH  15  16
ENDBRANCH  14  15
ENDBRANCH   6  14
TORSDOF 10
ENDMDL
MODEL 6
REMARK VINA RESULT:      -6.5      2.677      4.685
REMARK  Name = 
REMARK  14 active torsions:
REMARK  status: ('A' for Active; 'I' for Inactive)
REMARK    1  A    between atoms: C_1  and  N_2
REMARK    2  A    between atoms: C_3  and  C_5
REMARK    3  A    between atoms: C_5  and  O_6
REMARK    4  A    between atoms: O_6  and  C_7
REMARK    5  A    between atoms: C_12  and  O_13
REMARK    6  A    between atoms: O_13  and  C_14
REMARK    7  A    between atoms: C_14  and  C_15
REMARK    8  A    between atoms: C_15  and  O_16
REMARK    9  A    between atoms: C_15  and  C_17
REMARK   10  A    between atoms: C_17  and  N_18
REMARK   11  A    between atoms: N_18  and  C_19
REMARK   12  A    between atoms: C_19  and  C_20
REMARK   13  A    between atoms: C_19  and  C_21
REMARK   14  A    between atoms: C_19  and  C_22
REMARK                            x       y       z     vdW  Elec       q    Type
REMARK                         _______ _______ _______ _____ _____    ______ ____
ROOT
ATOM      1  C   UNL     1       2.365   5.700  20.366  0.00  0.00    +0.000 A 
ATOM      2  C   UNL     1       1.390   6.678  20.611  0.00  0.00    +0.000 A 
ATOM      3  C   UNL     1       1.339   7.853  19.851  0.00  0.00    +0.000 A 
ATOM      4  C   UNL     1       2.289   8.085  18.867  0.00  0.00    +0.000 A 
ATOM      5  C   UNL     1       3.241   7.109  18.593  0.00  0.00    +0.000 A 
ATOM      6  C   UNL     1       3.239   5.891  19.291  0.00  0.00    +0.000 A 
ENDROOT
BRANCH   1   7
ATOM      7  O   UNL     1       2.499   4.554  21.114  0.00  0.00    +0.000 OA
BRANCH   7   8
ATOM      8  C   UNL     1       1.510   3.547  20.930  0.00  0.00    +0.000 C 
BRANCH   8  11
ATOM      9  C   UNL     1       3.394   1.439  18.370  0.00  0.00    +0.000 C 
ATOM     10  N   UNL     1       3.048   2.243  19.518  0.00  0.00    +0.000 N 
ATOM     11  C   UNL     1       1.742   2.643  19.722  0.00  0.00    +0.000 C 
ATOM     12  O   UNL     1       0.838   2.355  18.944  0.00  0.00    +0.000 OA
ATOM     13  H   UNL     1       3.777   2.666  20.092  0.00  0.00    +0.000 HD
ENDBRANCH   8  11
ENDBRANCH   7   8
ENDBRANCH   1   7
BRANCH   6  14
ATOM     14  O   UNL     1       4.127   4.996  18.772  0.00  0.00    +0.000 OA
BRANCH  14  15
ATOM     15  C   UNL     1       5.359   4.693  19.429  0.00  0.00    +0.000 C 
BRANCH  15  16
ATOM     16  C   UNL     1       6.680   5.357  18.972  0.00  0.00    +0.000 C 
BRANCH  16  17
ATOM     17  O   UNL     1       7.608   5.577  20.039  0.00  0.00    +0.000 OA
ATOM     18  H   UNL     1       7.184   6.225  20.640  0.00  0.00    +0.000 HD
ENDBRANCH  16  17
BRANCH  16  19
ATOM     19  C   UNL     1       7.419   4.671  17.814  0.00  0.00    +0.000 C 
BRANCH  19  20
ATOM     20  N   UNL     1       7.403   5.467  16.586  0.00  0.00    +0.000 NA
ATOM     21  H   UNL     1       8.321   5.400  16.143  0.00  0.00    +0.000 HD
BRANCH  20  22
ATOM     22  C   UNL     1       6.375   5.066  15.611  0.00  0.00    +0.000 C 
ATOM     23  C   UNL     1       5.251   6.112  15.530  0.00  0.00    +0.000 C 
ATOM     24  C   UNL     1       7.081   4.996  14.244  0.00  0.00    +0.000 C 
ATOM     25  C   UNL     1       5.784   3.678  15.923  0.00  0.00    +0.000 C 
ENDBRANCH  20  22
ENDBRANCH  19  20
ENDBRANCH  16  19
ENDBRANCH  15  16
ENDBRANCH  14  15
ENDBRANCH   6  14
TORSDOF 10
ENDMDL
MODEL 7
REMARK VINA RESULT:      -6.5      2.012      2.837
REMARK  Name = 
REMARK  14 active torsions:
REMARK  status: ('A' for Active; 'I' for Inactive)
REMARK    1  A    between atoms: C_1  and  N_2
REMARK    2  A    between atoms: C_3  and  C_5
REMARK    3  A    between atoms: C_5  and  O_6
REMARK    4  A    between atoms: O_6  and  C_7
REMARK    5  A    between atoms: C_12  and  O_13
REMARK    6  A    between atoms: O_13  and  C_14
REMARK    7  A    between atoms: C_14  and  C_15
REMARK    8  A    between atoms: C_15  and  O_16
REMARK    9  A    between atoms: C_15  and  C_17
REMARK   10  A    between atoms: C_17  and  N_18
REMARK   11  A    between atoms: N_18  and  C_19
REMARK   12  A    between atoms: C_19  and  C_20
REMARK   13  A    between atoms: C_19  and  C_21
REMARK   14  A    between atoms: C_19  and  C_22
REMARK                            x       y       z     vdW  Elec       q    Type
REMARK                         _______ _______ _______ _____ _____    ______ ____
ROOT
ATOM      1  C   UNL     1       2.295   5.715  19.791  0.00  0.00    +0.000 A 
ATOM      2  C   UNL     1       1.257   5.086  20.495  0.00  0.00    +0.000 A 
ATOM      3  C   UNL     1       1.287   3.709  20.748  0.00  0.00    +0.000 A 
ATOM      4  C   UNL     1       2.331   2.936  20.262  0.00  0.00    +0.000 A 
ATOM      5  C   UNL     1       3.381   3.552  19.590  0.00  0.00    +0.000 A 
ATOM      6  C   UNL     1       3.401   4.945  19.415  0.00  0.00    +0.000 A 
ENDROOT
BRANCH   1   7
ATOM      7  O   UNL     1       2.295   7.051  19.465  0.00  0.00    +0.000 OA
BRANCH   7   8
ATOM      8  C   UNL     1       1.729   7.944  20.418  0.00  0.00    +0.000 C 
BRANCH   8  11
ATOM      9  C   UNL     1      -0.858  10.696  19.876  0.00  0.00    +0.000 C 
ATOM     10  N   UNL     1      -0.114   9.576  20.406  0.00  0.00    +0.000 N 
ATOM     11  C   UNL     1       1.070   9.182  19.813  0.00  0.00    +0.000 C 
ATOM     12  O   UNL     1       1.525   9.740  18.821  0.00  0.00    +0.000 OA
ATOM     13  H   UNL     1      -0.531   8.963  21.105  0.00  0.00    +0.000 HD
ENDBRANCH   8  11
ENDBRANCH   7   8
ENDBRANCH   1   7
BRANCH   6  14
ATOM     14  O   UNL     1       4.581   5.384  18.894  0.00  0.00    +0.000 OA
BRANCH  14  15
ATOM     15  C   UNL     1       5.832   5.106  19.526  0.00  0.00    +0.000 C 
BRANCH  15  16
ATOM     16  C   UNL     1       7.165   5.477  18.833  0.00  0.00    +0.000 C 
BRANCH  16  17
ATOM     17  O   UNL     1       8.277   5.544  19.731  0.00  0.00    +0.000 OA
ATOM     18  H   UNL     1       8.862   6.252  19.389  0.00  0.00    +0.000 HD
ENDBRANCH  16  17
BRANCH  16  19
ATOM     19  C   UNL     1       7.563   4.616  17.625  0.00  0.00    +0.000 C 
BRANCH  19  20
ATOM     20  N   UNL     1       7.467   5.344  16.359  0.00  0.00    +0.000 NA
ATOM     21  H   UNL     1       8.336   5.212  15.840  0.00  0.00    +0.000 HD
BRANCH  20  22
ATOM     22  C   UNL     1       6.337   4.939  15.504  0.00  0.00    +0.000 C 
ATOM     23  C   UNL     1       5.690   3.643  16.019  0.00  0.00    +0.000 C 
ATOM     24  C   UNL     1       5.301   6.076  15.595  0.00  0.00    +0.000 C 
ATOM     25  C   UNL     1       6.750   4.775  14.029  0.00  0.00    +0.000 C 
ENDBRANCH  20  22
ENDBRANCH  19  20
ENDBRANCH  16  19
ENDBRANCH  15  16
ENDBRANCH  14  15
ENDBRANCH   6  14
TORSDOF 10
ENDMDL
MODEL 8
REMARK VINA RESULT:      -6.5      1.235      1.246
REMARK  Name = 
REMARK  14 active torsions:
REMARK  status: ('A' for Active; 'I' for Inactive)
REMARK    1  A    between atoms: C_1  and  N_2
REMARK    2  A    between atoms: C_3  and  C_5
REMARK    3  A    between atoms: C_5  and  O_6
REMARK    4  A    between atoms: O_6  and  C_7
REMARK    5  A    between atoms: C_12  and  O_13
REMARK    6  A    between atoms: O_13  and  C_14
REMARK    7  A    between atoms: C_14  and  C_15
REMARK    8  A    between atoms: C_15  and  O_16
REMARK    9  A    between atoms: C_15  and  C_17
REMARK   10  A    between atoms: C_17  and  N_18
REMARK   11  A    between atoms: N_18  and  C_19
REMARK   12  A    between atoms: C_19  and  C_20
REMARK   13  A    between atoms: C_19  and  C_21
REMARK   14  A    between atoms: C_19  and  C_22
REMARK                            x       y       z     vdW  Elec       q    Type
REMARK                         _______ _______ _______ _____ _____    ______ ____
ROOT
ATOM      1  C   UNL     1       2.339   4.743  19.214  0.00  0.00    +0.000 A 
ATOM      2  C   UNL     1       1.509   4.241  20.227  0.00  0.00    +0.000 A 
ATOM      3  C   UNL     1       0.845   3.018  20.076  0.00  0.00    +0.000 A 
ATOM      4  C   UNL     1       0.966   2.302  18.894  0.00  0.00    +0.000 A 
ATOM      5  C   UNL     1       1.811   2.773  17.895  0.00  0.00    +0.000 A 
ATOM      6  C   UNL     1       2.550   3.953  18.079  0.00  0.00    +0.000 A 
ENDROOT
BRANCH   1   7
ATOM      7  O   UNL     1       2.972   5.962  19.281  0.00  0.00    +0.000 OA
BRANCH   7   8
ATOM      8  C   UNL     1       2.329   7.056  18.635  0.00  0.00    +0.000 C 
BRANCH   8  11
ATOM      9  C   UNL     1       1.297   8.793  21.871  0.00  0.00    +0.000 C 
ATOM     10  N   UNL     1       1.767   7.828  20.904  0.00  0.00    +0.000 N 
ATOM     11  C   UNL     1       1.890   8.178  19.573  0.00  0.00    +0.000 C 
ATOM     12  O   UNL     1       1.593   9.292  19.157  0.00  0.00    +0.000 OA
ATOM     13  H   UNL     1       1.850   6.844  21.154  0.00  0.00    +0.000 HD
ENDBRANCH   8  11
ENDBRANCH   7   8
ENDBRANCH   1   7
BRANCH   6  14
ATOM     14  O   UNL     1       3.447   4.163  17.075  0.00  0.00    +0.000 OA
BRANCH  14  15
ATOM     15  C   UNL     1       4.837   3.874  17.235  0.00  0.00    +0.000 C 
BRANCH  15  16
ATOM     16  C   UNL     1       5.829   4.103  16.070  0.00  0.00    +0.000 C 
BRANCH  16  17
ATOM     17  O   UNL     1       5.306   4.935  15.030  0.00  0.00    +0.000 OA
ATOM     18  H   UNL     1       6.030   5.546  14.779  0.00  0.00    +0.000 HD
ENDBRANCH  16  17
BRANCH  16  19
ATOM     19  C   UNL     1       7.222   4.621  16.457  0.00  0.00    +0.000 C 
BRANCH  19  20
ATOM     20  N   UNL     1       7.352   6.069  16.285  0.00  0.00    +0.000 NA
ATOM     21  H   UNL     1       6.669   6.376  15.591  0.00  0.00    +0.000 HD
BRANCH  20  22
ATOM     22  C   UNL     1       7.161   6.851  17.519  0.00  0.00    +0.000 C 
ATOM     23  C   UNL     1       8.033   8.117  17.512  0.00  0.00    +0.000 C 
ATOM     24  C   UNL     1       5.680   7.275  17.535  0.00  0.00    +0.000 C 
ATOM     25  C   UNL     1       7.442   6.021  18.786  0.00  0.00    +0.000 C 
ENDBRANCH  20  22
ENDBRANCH  19  20
ENDBRANCH  16  19
ENDBRANCH  15  16
ENDBRANCH  14  15
ENDBRANCH   6  14
TORSDOF 10
ENDMDL
MODEL 9
REMARK VINA RESULT:      -6.4      2.865      4.650
REMARK  Name = 
REMARK  14 active torsions:
REMARK  status: ('A' for Active; 'I' for Inactive)
REMARK    1  A    between atoms: C_1  and  N_2
REMARK    2  A    between atoms: C_3  and  C_5
REMARK    3  A    between atoms: C_5  and  O_6
REMARK    4  A    between atoms: O_6  and  C_7
REMARK    5  A    between atoms: C_12  and  O_13
REMARK    6  A    between atoms: O_13  and  C_14
REMARK    7  A    between atoms: C_14  and  C_15
REMARK    8  A    between atoms: C_15  and  O_16
REMARK    9  A    between atoms: C_15  and  C_17
REMARK   10  A    between atoms: C_17  and  N_18
REMARK   11  A    between atoms: N_18  and  C_19
REMARK   12  A    between atoms: C_19  and  C_20
REMARK   13  A    between atoms: C_19  and  C_21
REMARK   14  A    between atoms: C_19  and  C_22
REMARK                            x       y       z     vdW  Elec       q    Type
REMARK                         _______ _______ _______ _____ _____    ______ ____
ROOT
ATOM      1  C   UNL     1       1.465   8.319  20.171  0.00  0.00    +0.000 A 
ATOM      2  C   UNL     1       1.085   9.444  19.424  0.00  0.00    +0.000 A 
ATOM      3  C   UNL     1       1.529   9.620  18.108  0.00  0.00    +0.000 A 
ATOM      4  C   UNL     1       2.395   8.698  17.537  0.00  0.00    +0.000 A 
ATOM      5  C   UNL     1       2.753   7.563  18.256  0.00  0.00    +0.000 A 
ATOM      6  C   UNL     1       2.236   7.336  19.542  0.00  0.00    +0.000 A 
ENDROOT
BRANCH   1   7
ATOM      7  O   UNL     1       1.106   8.119  21.484  0.00  0.00    +0.000 OA
BRANCH   7   8
ATOM      8  C   UNL     1      -0.219   8.487  21.850  0.00  0.00    +0.000 C 
BRANCH   8  11
ATOM      9  C   UNL     1      -1.150  12.021  22.944  0.00  0.00    +0.000 C 
ATOM     10  N   UNL     1      -1.048  10.775  22.220  0.00  0.00    +0.000 N 
ATOM     11  C   UNL     1      -0.312   9.727  22.737  0.00  0.00    +0.000 C 
ATOM     12  O   UNL     1       0.291   9.809  23.801  0.00  0.00    +0.000 OA
ATOM     13  H   UNL     1      -1.368  10.711  21.255  0.00  0.00    +0.000 HD
ENDBRANCH   8  11
ENDBRANCH   7   8
ENDBRANCH   1   7
BRANCH   6  14
ATOM     14  O   UNL     1       2.556   6.100  20.018  0.00  0.00    +0.000 OA
BRANCH  14  15
ATOM     15  C   UNL     1       3.753   5.428  19.620  0.00  0.00    +0.000 C 
BRANCH  15  16
ATOM     16  C   UNL     1       3.686   4.076  18.871  0.00  0.00    +0.000 C 
BRANCH  16  17
ATOM     17  O   UNL     1       2.558   3.275  19.237  0.00  0.00    +0.000 OA
ATOM     18  H   UNL     1       1.887   3.895  19.592  0.00  0.00    +0.000 HD
ENDBRANCH  16  17
BRANCH  16  19
ATOM     19  C   UNL     1       3.760   4.146  17.338  0.00  0.00    +0.000 C 
BRANCH  19  20
ATOM     20  N   UNL     1       4.957   3.497  16.802  0.00  0.00    +0.000 NA
ATOM     21  H   UNL     1       4.667   2.775  16.141  0.00  0.00    +0.000 HD
BRANCH  20  22
ATOM     22  C   UNL     1       5.898   4.408  16.129  0.00  0.00    +0.000 C 
ATOM     23  C   UNL     1       6.207   3.929  14.701  0.00  0.00    +0.000 C 
ATOM     24  C   UNL     1       5.190   5.774  16.047  0.00  0.00    +0.000 C 
ATOM     25  C   UNL     1       7.207   4.587  16.922  0.00  0.00    +0.000 C 
ENDBRANCH  20  22
ENDBRANCH  19  20
ENDBRANCH  16  19
ENDBRANCH  15  16
ENDBRANCH  14  15
ENDBRANCH   6  14
TORSDOF 10
ENDMDL
