MODEL 1
REMARK VINA RESULT:      -6.9      0.000      0.000
REMARK  Name = 
REMARK  5 active torsions:
REMARK  status: ('A' for Active; 'I' for Inactive)
REMARK    1  A    between atoms: C_1  and  O_2
REMARK    2  A    between atoms: O_2  and  C_3
REMARK    3  A    between atoms: C_6  and  S_7
REMARK    4  A    between atoms: S_7  and  N_10
REMARK    5  A    between atoms: C_19  and  C_20
REMARK                            x       y       z     vdW  Elec       q    Type
REMARK                         _______ _______ _______ _____ _____    ______ ____
ROOT
ATOM      1  N   UNL     1      -0.494  10.219  19.489  0.00  0.00    +0.000 NA
ATOM      2  C   UNL     1      -0.989   9.388  20.664  0.00  0.00    +0.000 C 
ATOM      3  C   UNL     1       0.130   8.892  21.656  0.00  0.00    +0.000 C 
ATOM      4  C   UNL     1       1.268   8.312  20.860  0.00  0.00    +0.000 A 
ATOM      5  C   UNL     1       1.812   7.055  21.140  0.00  0.00    +0.000 A 
ATOM      6  C   UNL     1       2.395   6.308  20.119  0.00  0.00    +0.000 A 
ATOM      7  C   UNL     1       2.343   6.808  18.817  0.00  0.00    +0.000 A 
ATOM      8  C   UNL     1       2.021   8.173  18.610  0.00  0.00    +0.000 A 
ATOM      9  C   UNL     1       1.561   8.980  19.668  0.00  0.00    +0.000 A 
ATOM     10  C   UNL     1       0.986  10.397  19.503  0.00  0.00    +0.000 C 
ATOM     11  C   UNL     1       1.309  11.475  20.592  0.00  0.00    +0.000 C 
ATOM     12  O   UNL     1       2.556   6.029  17.702  0.00  0.00    +0.000 OA
ATOM     13  C   UNL     1       1.795   4.799  17.698  0.00  0.00    +0.000 C 
ATOM     14  C   UNL     1       2.280   3.729  18.678  0.00  0.00    +0.000 C 
ATOM     15  C   UNL     1       3.423   4.234  19.528  0.00  0.00    +0.000 C 
ATOM     16  O   UNL     1       2.903   5.106  20.528  0.00  0.00    +0.000 OA
ENDROOT
BRANCH   1  17
ATOM     17  S   UNL     1      -1.418  11.547  18.956  0.00  0.00    +0.000 S 
ATOM     18  O   UNL     1      -0.498  12.529  18.405  0.00  0.00    +0.000 OA
ATOM     19  O   UNL     1      -2.348  11.905  20.000  0.00  0.00    +0.000 OA
BRANCH  17  23
ATOM     20  C   UNL     1      -3.754  10.280  15.201  0.00  0.00    +0.000 A 
ATOM     21  C   UNL     1      -4.302  11.208  16.096  0.00  0.00    +0.000 A 
ATOM     22  C   UNL     1      -3.627  11.577  17.270  0.00  0.00    +0.000 A 
ATOM     23  C   UNL     1      -2.402  10.988  17.571  0.00  0.00    +0.000 A 
ATOM     24  C   UNL     1      -1.859  10.036  16.690  0.00  0.00    +0.000 A 
ATOM     25  C   UNL     1      -2.532   9.685  15.507  0.00  0.00    +0.000 A 
BRANCH  20  27
ATOM     26  C   UNL     1      -3.840   9.753  12.881  0.00  0.00    +0.000 C 
ATOM     27  O   UNL     1      -4.525  10.003  14.105  0.00  0.00    +0.000 OA
ENDBRANCH  20  27
ENDBRANCH  17  23
ENDBRANCH   1  17
TORSDOF 3
ENDMDL
MODEL 2
REMARK VINA RESULT:      -6.7      2.740      7.908
REMARK  Name = 
REMARK  5 active torsions:
REMARK  status: ('A' for Active; 'I' for Inactive)
REMARK    1  A    between atoms: C_1  and  O_2
REMARK    2  A    between atoms: O_2  and  C_3
REMARK    3  A    between atoms: C_6  and  S_7
REMARK    4  A    between atoms: S_7  and  N_10
REMARK    5  A    between atoms: C_19  and  C_20
REMARK                            x       y       z     vdW  Elec       q    Type
REMARK                         _______ _______ _______ _____ _____    ______ ____
ROOT
ATOM      1  N   UNL     1      -0.831  10.603  20.051  0.00  0.00    +0.000 NA
ATOM      2  C   UNL     1      -1.404   9.712  18.959  0.00  0.00    +0.000 C 
ATOM      3  C   UNL     1      -2.034  10.472  17.731  0.00  0.00    +0.000 C 
ATOM      4  C   UNL     1      -2.931  11.567  18.241  0.00  0.00    +0.000 A 
ATOM      5  C   UNL     1      -4.243  11.731  17.785  0.00  0.00    +0.000 A 
ATOM      6  C   UNL     1      -5.202  12.300  18.620  0.00  0.00    +0.000 A 
ATOM      7  C   UNL     1      -4.840  12.614  19.930  0.00  0.00    +0.000 A 
ATOM      8  C   UNL     1      -3.466  12.673  20.276  0.00  0.00    +0.000 A 
ATOM      9  C   UNL     1      -2.472  12.230  19.382  0.00  0.00    +0.000 A 
ATOM     10  C   UNL     1      -0.988  12.053  19.742  0.00  0.00    +0.000 C 
ATOM     11  C   UNL     1       0.097  12.415  18.671  0.00  0.00    +0.000 C 
ATOM     12  O   UNL     1      -5.757  12.840  20.932  0.00  0.00    +0.000 OA
ATOM     13  C   UNL     1      -6.780  11.820  21.024  0.00  0.00    +0.000 C 
ATOM     14  C   UNL     1      -7.825  11.842  19.907  0.00  0.00    +0.000 C 
ATOM     15  C   UNL     1      -7.504  12.892  18.869  0.00  0.00    +0.000 C 
ATOM     16  O   UNL     1      -6.439  12.418  18.049  0.00  0.00    +0.000 OA
ENDROOT
BRANCH   1  17
ATOM     17  S   UNL     1       0.609  10.142  20.837  0.00  0.00    +0.000 S 
ATOM     18  O   UNL     1       0.239   9.443  22.057  0.00  0.00    +0.000 OA
ATOM     19  O   UNL     1       1.494  11.281  20.873  0.00  0.00    +0.000 OA
BRANCH  17  23
ATOM     20  C   UNL     1       2.926   7.033  18.361  0.00  0.00    +0.000 A 
ATOM     21  C   UNL     1       2.598   8.278  17.807  0.00  0.00    +0.000 A 
ATOM     22  C   UNL     1       1.854   9.225  18.528  0.00  0.00    +0.000 A 
ATOM     23  C   UNL     1       1.405   8.914  19.809  0.00  0.00    +0.000 A 
ATOM     24  C   UNL     1       1.708   7.656  20.360  0.00  0.00    +0.000 A 
ATOM     25  C   UNL     1       2.469   6.720  19.639  0.00  0.00    +0.000 A 
BRANCH  20  27
ATOM     26  C   UNL     1       4.840   6.728  16.979  0.00  0.00    +0.000 C 
ATOM     27  O   UNL     1       3.642   6.203  17.543  0.00  0.00    +0.000 OA
ENDBRANCH  20  27
ENDBRANCH  17  23
ENDBRANCH   1  17
TORSDOF 3
ENDMDL
MODEL 3
REMARK VINA RESULT:      -6.6      2.648      7.826
REMARK  Name = 
REMARK  5 active torsions:
REMARK  status: ('A' for Active; 'I' for Inactive)
REMARK    1  A    between atoms: C_1  and  O_2
REMARK    2  A    between atoms: O_2  and  C_3
REMARK    3  A    between atoms: C_6  and  S_7
REMARK    4  A    between atoms: S_7  and  N_10
REMARK    5  A    between atoms: C_19  and  C_20
REMARK                            x       y       z     vdW  Elec       q    Type
REMARK                         _______ _______ _______ _____ _____    ______ ____
ROOT
ATOM      1  N   UNL     1      -0.766  10.771  20.123  0.00  0.00    +0.000 NA
ATOM      2  C   UNL     1      -1.298   9.791  19.087  0.00  0.00    +0.000 C 
ATOM      3  C   UNL     1      -1.949  10.449  17.811  0.00  0.00    +0.000 C 
ATOM      4  C   UNL     1      -2.891  11.539  18.249  0.00  0.00    +0.000 A 
ATOM      5  C   UNL     1      -4.205  11.623  17.779  0.00  0.00    +0.000 A 
ATOM      6  C   UNL     1      -5.190  12.206  18.574  0.00  0.00    +0.000 A 
ATOM      7  C   UNL     1      -4.847  12.615  19.863  0.00  0.00    +0.000 A 
ATOM      8  C   UNL     1      -3.479  12.748  20.209  0.00  0.00    +0.000 A 
ATOM      9  C   UNL     1      -2.463  12.288  19.348  0.00  0.00    +0.000 A 
ATOM     10  C   UNL     1      -0.976  12.191  19.723  0.00  0.00    +0.000 C 
ATOM     11  C   UNL     1       0.101  12.527  18.635  0.00  0.00    +0.000 C 
ATOM     12  O   UNL     1      -5.778  12.868  20.846  0.00  0.00    +0.000 OA
ATOM     13  C   UNL     1      -6.762  11.818  20.998  0.00  0.00    +0.000 C 
ATOM     14  C   UNL     1      -7.801  11.729  19.878  0.00  0.00    +0.000 C 
ATOM     15  C   UNL     1      -7.514  12.724  18.777  0.00  0.00    +0.000 C 
ATOM     16  O   UNL     1      -6.427  12.241  17.992  0.00  0.00    +0.000 OA
ENDROOT
BRANCH   1  17
ATOM     17  S   UNL     1       0.686  10.415  20.941  0.00  0.00    +0.000 S 
ATOM     18  O   UNL     1       0.335   9.800  22.211  0.00  0.00    +0.000 OA
ATOM     19  O   UNL     1       1.536  11.580  20.890  0.00  0.00    +0.000 OA
BRANCH  17  23
ATOM     20  C   UNL     1       2.557   7.080  18.383  0.00  0.00    +0.000 A 
ATOM     21  C   UNL     1       2.240   6.848  19.728  0.00  0.00    +0.000 A 
ATOM     22  C   UNL     1       1.709   7.862  20.540  0.00  0.00    +0.000 A 
ATOM     23  C   UNL     1       1.521   9.136  20.009  0.00  0.00    +0.000 A 
ATOM     24  C   UNL     1       1.861   9.383  18.668  0.00  0.00    +0.000 A 
ATOM     25  C   UNL     1       2.375   8.357  17.856  0.00  0.00    +0.000 A 
BRANCH  20  27
ATOM     26  C   UNL     1       2.426   4.754  17.894  0.00  0.00    +0.000 C 
ATOM     27  O   UNL     1       3.079   6.007  17.714  0.00  0.00    +0.000 OA
ENDBRANCH  20  27
ENDBRANCH  17  23
ENDBRANCH   1  17
TORSDOF 3
ENDMDL
MODEL 4
REMARK VINA RESULT:      -6.6      3.846      7.652
REMARK  Name = 
REMARK  5 active torsions:
REMARK  status: ('A' for Active; 'I' for Inactive)
REMARK    1  A    between atoms: C_1  and  O_2
REMARK    2  A    between atoms: O_2  and  C_3
REMARK    3  A    between atoms: C_6  and  S_7
REMARK    4  A    between atoms: S_7  and  N_10
REMARK    5  A    between atoms: C_19  and  C_20
REMARK                            x       y       z     vdW  Elec       q    Type
REMARK                         _______ _______ _______ _____ _____    ______ ____
ROOT
ATOM      1  N   UNL     1       0.983  11.908  19.526  0.00  0.00    +0.000 NA
ATOM      2  C   UNL     1       1.345  12.318  20.946  0.00  0.00    +0.000 C 
ATOM      3  C   UNL     1       1.259  13.863  21.242  0.00  0.00    +0.000 C 
ATOM      4  C   UNL     1       1.945  14.614  20.133  0.00  0.00    +0.000 A 
ATOM      5  C   UNL     1       2.907  15.598  20.381  0.00  0.00    +0.000 A 
ATOM      6  C   UNL     1       3.909  15.841  19.444  0.00  0.00    +0.000 A 
ATOM      7  C   UNL     1       3.971  15.027  18.312  0.00  0.00    +0.000 A 
ATOM      8  C   UNL     1       2.853  14.225  17.971  0.00  0.00    +0.000 A 
ATOM      9  C   UNL     1       1.765  14.082  18.854  0.00  0.00    +0.000 A 
ATOM     10  C   UNL     1       0.617  13.074  18.673  0.00  0.00    +0.000 C 
ATOM     11  C   UNL     1      -0.834  13.502  19.078  0.00  0.00    +0.000 C 
ATOM     12  O   UNL     1       5.088  14.932  17.513  0.00  0.00    +0.000 OA
ATOM     13  C   UNL     1       6.312  14.701  18.250  0.00  0.00    +0.000 C 
ATOM     14  C   UNL     1       6.837  15.904  19.036  0.00  0.00    +0.000 C 
ATOM     15  C   UNL     1       5.891  17.079  18.947  0.00  0.00    +0.000 C 
ATOM     16  O   UNL     1       4.775  16.837  19.799  0.00  0.00    +0.000 OA
ENDROOT
BRANCH   1  17
ATOM     17  S   UNL     1       0.106  10.470  19.269  0.00  0.00    +0.000 S 
ATOM     18  O   UNL     1      -0.521  10.565  17.961  0.00  0.00    +0.000 OA
ATOM     19  O   UNL     1      -0.677  10.195  20.450  0.00  0.00    +0.000 OA
BRANCH  17  23
ATOM     20  C   UNL     1       2.952   6.896  18.725  0.00  0.00    +0.000 A 
ATOM     21  C   UNL     1       2.301   7.103  19.948  0.00  0.00    +0.000 A 
ATOM     22  C   UNL     1       1.462   8.210  20.152  0.00  0.00    +0.000 A 
ATOM     23  C   UNL     1       1.296   9.141  19.129  0.00  0.00    +0.000 A 
ATOM     24  C   UNL     1       1.967   8.953  17.908  0.00  0.00    +0.000 A 
ATOM     25  C   UNL     1       2.790   7.832  17.705  0.00  0.00    +0.000 A 
BRANCH  20  27
ATOM     26  C   UNL     1       4.036   5.261  17.376  0.00  0.00    +0.000 C 
ATOM     27  O   UNL     1       3.748   5.785  18.669  0.00  0.00    +0.000 OA
ENDBRANCH  20  27
ENDBRANCH  17  23
ENDBRANCH   1  17
TORSDOF 3
ENDMDL
MODEL 5
REMARK VINA RESULT:      -6.5      4.017      7.650
REMARK  Name = 
REMARK  5 active torsions:
REMARK  status: ('A' for Active; 'I' for Inactive)
REMARK    1  A    between atoms: C_1  and  O_2
REMARK    2  A    between atoms: O_2  and  C_3
REMARK    3  A    between atoms: C_6  and  S_7
REMARK    4  A    between atoms: S_7  and  N_10
REMARK    5  A    between atoms: C_19  and  C_20
REMARK                            x       y       z     vdW  Elec       q    Type
REMARK                         _______ _______ _______ _____ _____    ______ ____
ROOT
ATOM      1  N   UNL     1       0.872  12.548  19.642  0.00  0.00    +0.000 NA
ATOM      2  C   UNL     1       1.427  12.792  21.038  0.00  0.00    +0.000 C 
ATOM      3  C   UNL     1       1.626  14.306  21.428  0.00  0.00    +0.000 C 
ATOM      4  C   UNL     1       2.320  15.016  20.297  0.00  0.00    +0.000 A 
ATOM      5  C   UNL     1       3.450  15.814  20.499  0.00  0.00    +0.000 A 
ATOM      6  C   UNL     1       4.386  15.963  19.478  0.00  0.00    +0.000 A 
ATOM      7  C   UNL     1       4.207  15.233  18.301  0.00  0.00    +0.000 A 
ATOM      8  C   UNL     1       2.945  14.646  18.034  0.00  0.00    +0.000 A 
ATOM      9  C   UNL     1       1.935  14.614  19.016  0.00  0.00    +0.000 A 
ATOM     10  C   UNL     1       0.625  13.817  18.899  0.00  0.00    +0.000 C 
ATOM     11  C   UNL     1      -0.691  14.440  19.476  0.00  0.00    +0.000 C 
ATOM     12  O   UNL     1       5.213  15.020  17.386  0.00  0.00    +0.000 OA
ATOM     13  C   UNL     1       6.445  14.545  17.978  0.00  0.00    +0.000 C 
ATOM     14  C   UNL     1       7.233  15.589  18.772  0.00  0.00    +0.000 C 
ATOM     15  C   UNL     1       6.491  16.903  18.847  0.00  0.00    +0.000 C 
ATOM     16  O   UNL     1       5.434  16.780  19.797  0.00  0.00    +0.000 OA
ENDROOT
BRANCH   1  17
ATOM     17  S   UNL     1      -0.251  11.290  19.397  0.00  0.00    +0.000 S 
ATOM     18  O   UNL     1      -0.883  11.510  18.106  0.00  0.00    +0.000 OA
ATOM     19  O   UNL     1      -1.042  11.144  20.596  0.00  0.00    +0.000 OA
BRANCH  17  23
ATOM     20  C   UNL     1       2.395   7.540  19.082  0.00  0.00    +0.000 A 
ATOM     21  C   UNL     1       2.124   8.314  17.946  0.00  0.00    +0.000 A 
ATOM     22  C   UNL     1       1.285   9.437  18.008  0.00  0.00    +0.000 A 
ATOM     23  C   UNL     1       0.682   9.775  19.218  0.00  0.00    +0.000 A 
ATOM     24  C   UNL     1       0.928   8.987  20.356  0.00  0.00    +0.000 A 
ATOM     25  C   UNL     1       1.784   7.875  20.289  0.00  0.00    +0.000 A 
BRANCH  20  27
ATOM     26  C   UNL     1       3.143   5.404  19.820  0.00  0.00    +0.000 C 
ATOM     27  O   UNL     1       3.217   6.467  18.874  0.00  0.00    +0.000 OA
ENDBRANCH  20  27
ENDBRANCH  17  23
ENDBRANCH   1  17
TORSDOF 3
ENDMDL
MODEL 6
REMARK VINA RESULT:      -6.5      2.053      3.249
REMARK  Name = 
REMARK  5 active torsions:
REMARK  status: ('A' for Active; 'I' for Inactive)
REMARK    1  A    between atoms: C_1  and  O_2
REMARK    2  A    between atoms: O_2  and  C_3
REMARK    3  A    between atoms: C_6  and  S_7
REMARK    4  A    between atoms: S_7  and  N_10
REMARK    5  A    between atoms: C_19  and  C_20
REMARK                            x       y       z     vdW  Elec       q    Type
REMARK                         _______ _______ _______ _____ _____    ______ ____
ROOT
ATOM      1  N   UNL     1      -0.600  10.381  18.642  0.00  0.00    +0.000 NA
ATOM      2  C   UNL     1      -1.112   9.731  19.919  0.00  0.00    +0.000 C 
ATOM      3  C   UNL     1      -0.012   9.417  21.003  0.00  0.00    +0.000 C 
ATOM      4  C   UNL     1       1.158   8.748  20.333  0.00  0.00    +0.000 A 
ATOM      5  C   UNL     1       1.717   7.561  20.817  0.00  0.00    +0.000 A 
ATOM      6  C   UNL     1       2.341   6.679  19.939  0.00  0.00    +0.000 A 
ATOM      7  C   UNL     1       2.315   6.972  18.574  0.00  0.00    +0.000 A 
ATOM      8  C   UNL     1       1.975   8.281  18.151  0.00  0.00    +0.000 A 
ATOM      9  C   UNL     1       1.471   9.231  19.060  0.00  0.00    +0.000 A 
ATOM     10  C   UNL     1       0.875  10.592  18.664  0.00  0.00    +0.000 C 
ATOM     11  C   UNL     1       1.148  11.832  19.582  0.00  0.00    +0.000 C 
ATOM     12  O   UNL     1       2.573   6.035  17.598  0.00  0.00    +0.000 OA
ATOM     13  C   UNL     1       1.835   4.802  17.767  0.00  0.00    +0.000 C 
ATOM     14  C   UNL     1       2.313   3.907  18.912  0.00  0.00    +0.000 C 
ATOM     15  C   UNL     1       3.422   4.562  19.700  0.00  0.00    +0.000 C 
ATOM     16  O   UNL     1       2.859   5.566  20.540  0.00  0.00    +0.000 OA
ENDROOT
BRANCH   1  17
ATOM     17  S   UNL     1      -1.534  11.591  17.888  0.00  0.00    +0.000 S 
ATOM     18  O   UNL     1      -2.097  11.019  16.676  0.00  0.00    +0.000 OA
ATOM     19  O   UNL     1      -0.756  12.806  17.844  0.00  0.00    +0.000 OA
BRANCH  17  23
ATOM     20  C   UNL     1      -5.220  12.674  20.418  0.00  0.00    +0.000 A 
ATOM     21  C   UNL     1      -3.935  13.033  20.848  0.00  0.00    +0.000 A 
ATOM     22  C   UNL     1      -2.793  12.675  20.115  0.00  0.00    +0.000 A 
ATOM     23  C   UNL     1      -2.933  11.922  18.952  0.00  0.00    +0.000 A 
ATOM     24  C   UNL     1      -4.217  11.537  18.529  0.00  0.00    +0.000 A 
ATOM     25  C   UNL     1      -5.357  11.915  19.258  0.00  0.00    +0.000 A 
BRANCH  20  27
ATOM     26  C   UNL     1      -7.561  12.703  20.849  0.00  0.00    +0.000 C 
ATOM     27  O   UNL     1      -6.241  13.076  21.235  0.00  0.00    +0.000 OA
ENDBRANCH  20  27
ENDBRANCH  17  23
ENDBRANCH   1  17
TORSDOF 3
ENDMDL
MODEL 7
REMARK VINA RESULT:      -6.4      3.307      7.493
REMARK  Name = 
REMARK  5 active torsions:
REMARK  status: ('A' for Active; 'I' for Inactive)
REMARK    1  A    between atoms: C_1  and  O_2
REMARK    2  A    between atoms: O_2  and  C_3
REMARK    3  A    between atoms: C_6  and  S_7
REMARK    4  A    between atoms: S_7  and  N_10
REMARK    5  A    between atoms: C_19  and  C_20
REMARK                            x       y       z     vdW  Elec       q    Type
REMARK                         _______ _______ _______ _____ _____    ______ ____
ROOT
ATOM      1  N   UNL     1       0.832  10.597  20.696  0.00  0.00    +0.000 NA
ATOM      2  C   UNL     1       0.238  11.712  21.544  0.00  0.00    +0.000 C 
ATOM      3  C   UNL     1      -0.553  12.816  20.746  0.00  0.00    +0.000 C 
ATOM      4  C   UNL     1       0.266  13.243  19.557  0.00  0.00    +0.000 A 
ATOM      5  C   UNL     1       0.522  14.587  19.270  0.00  0.00    +0.000 A 
ATOM      6  C   UNL     1       1.687  14.942  18.593  0.00  0.00    +0.000 A 
ATOM      7  C   UNL     1       2.612  13.942  18.294  0.00  0.00    +0.000 A 
ATOM      8  C   UNL     1       2.214  12.583  18.367  0.00  0.00    +0.000 A 
ATOM      9  C   UNL     1       0.974  12.218  18.924  0.00  0.00    +0.000 A 
ATOM     10  C   UNL     1       0.548  10.775  19.243  0.00  0.00    +0.000 C 
ATOM     11  C   UNL     1      -0.944  10.359  19.011  0.00  0.00    +0.000 C 
ATOM     12  O   UNL     1       3.922  14.203  17.959  0.00  0.00    +0.000 OA
ATOM     13  C   UNL     1       4.584  15.114  18.869  0.00  0.00    +0.000 C 
ATOM     14  C   UNL     1       4.146  16.576  18.762  0.00  0.00    +0.000 C 
ATOM     15  C   UNL     1       3.020  16.745  17.768  0.00  0.00    +0.000 C 
ATOM     16  O   UNL     1       1.809  16.284  18.361  0.00  0.00    +0.000 OA
ENDROOT
BRANCH   1  17
ATOM     17  S   UNL     1       0.815   8.998  21.286  0.00  0.00    +0.000 S 
ATOM     18  O   UNL     1      -0.570   8.554  21.313  0.00  0.00    +0.000 OA
ATOM     19  O   UNL     1       1.636   8.941  22.471  0.00  0.00    +0.000 OA
BRANCH  17  23
ATOM     20  C   UNL     1       3.152   6.380  18.312  0.00  0.00    +0.000 A 
ATOM     21  C   UNL     1       2.823   7.702  17.985  0.00  0.00    +0.000 A 
ATOM     22  C   UNL     1       2.073   8.506  18.857  0.00  0.00    +0.000 A 
ATOM     23  C   UNL     1       1.619   7.972  20.061  0.00  0.00    +0.000 A 
ATOM     24  C   UNL     1       1.924   6.638  20.384  0.00  0.00    +0.000 A 
ATOM     25  C   UNL     1       2.691   5.845  19.513  0.00  0.00    +0.000 A 
BRANCH  20  27
ATOM     26  C   UNL     1       4.932   6.423  16.732  0.00  0.00    +0.000 C 
ATOM     27  O   UNL     1       3.875   5.708  17.364  0.00  0.00    +0.000 OA
ENDBRANCH  20  27
ENDBRANCH  17  23
ENDBRANCH   1  17
TORSDOF 3
ENDMDL
MODEL 8
REMARK VINA RESULT:      -6.4      3.263      7.447
REMARK  Name = 
REMARK  5 active torsions:
REMARK  status: ('A' for Active; 'I' for Inactive)
REMARK    1  A    between atoms: C_1  and  O_2
REMARK    2  A    between atoms: O_2  and  C_3
REMARK    3  A    between atoms: C_6  and  S_7
REMARK    4  A    between atoms: S_7  and  N_10
REMARK    5  A    between atoms: C_19  and  C_20
REMARK                            x       y       z     vdW  Elec       q    Type
REMARK                         _______ _______ _______ _____ _____    ______ ____
ROOT
ATOM      1  N   UNL     1       0.818  10.701  20.800  0.00  0.00    +0.000 NA
ATOM      2  C   UNL     1       0.206  11.869  21.560  0.00  0.00    +0.000 C 
ATOM      3  C   UNL     1      -0.539  12.935  20.670  0.00  0.00    +0.000 C 
ATOM      4  C   UNL     1       0.332  13.284  19.493  0.00  0.00    +0.000 A 
ATOM      5  C   UNL     1       0.616  14.607  19.141  0.00  0.00    +0.000 A 
ATOM      6  C   UNL     1       1.811  14.911  18.492  0.00  0.00    +0.000 A 
ATOM      7  C   UNL     1       2.734  13.885  18.286  0.00  0.00    +0.000 A 
ATOM      8  C   UNL     1       2.316  12.537  18.420  0.00  0.00    +0.000 A 
ATOM      9  C   UNL     1       1.050  12.218  18.947  0.00  0.00    +0.000 A 
ATOM     10  C   UNL     1       0.593  10.800  19.330  0.00  0.00    +0.000 C 
ATOM     11  C   UNL     1      -0.894  10.388  19.063  0.00  0.00    +0.000 C 
ATOM     12  O   UNL     1       4.060  14.113  17.990  0.00  0.00    +0.000 OA
ATOM     13  C   UNL     1       4.697  15.067  18.872  0.00  0.00    +0.000 C 
ATOM     14  C   UNL     1       4.283  16.525  18.666  0.00  0.00    +0.000 C 
ATOM     15  C   UNL     1       3.199  16.649  17.620  0.00  0.00    +0.000 C 
ATOM     16  O   UNL     1       1.960  16.236  18.189  0.00  0.00    +0.000 OA
ENDROOT
BRANCH   1  17
ATOM     17  S   UNL     1       0.757   9.139  21.478  0.00  0.00    +0.000 S 
ATOM     18  O   UNL     1      -0.630   8.704  21.454  0.00  0.00    +0.000 OA
ATOM     19  O   UNL     1       1.512   9.146  22.708  0.00  0.00    +0.000 OA
BRANCH  17  23
ATOM     20  C   UNL     1       2.704   6.302  18.425  0.00  0.00    +0.000 A 
ATOM     21  C   UNL     1       2.341   5.835  19.695  0.00  0.00    +0.000 A 
ATOM     22  C   UNL     1       1.785   6.691  20.658  0.00  0.00    +0.000 A 
ATOM     23  C   UNL     1       1.619   8.042  20.359  0.00  0.00    +0.000 A 
ATOM     24  C   UNL     1       2.007   8.522  19.096  0.00  0.00    +0.000 A 
ATOM     25  C   UNL     1       2.544   7.655  18.131  0.00  0.00    +0.000 A 
BRANCH  20  27
ATOM     26  C   UNL     1       2.647   4.070  17.601  0.00  0.00    +0.000 C 
ATOM     27  O   UNL     1       3.246   5.362  17.591  0.00  0.00    +0.000 OA
ENDBRANCH  20  27
ENDBRANCH  17  23
ENDBRANCH   1  17
TORSDOF 3
ENDMDL
MODEL 9
REMARK VINA RESULT:      -6.4      2.321      3.709
REMARK  Name = 
REMARK  5 active torsions:
REMARK  status: ('A' for Active; 'I' for Inactive)
REMARK    1  A    between atoms: C_1  and  O_2
REMARK    2  A    between atoms: O_2  and  C_3
REMARK    3  A    between atoms: C_6  and  S_7
REMARK    4  A    between atoms: S_7  and  N_10
REMARK    5  A    between atoms: C_19  and  C_20
REMARK                            x       y       z     vdW  Elec       q    Type
REMARK                         _______ _______ _______ _____ _____    ______ ____
ROOT
ATOM      1  N   UNL     1      -0.532  10.574  18.897  0.00  0.00    +0.000 NA
ATOM      2  C   UNL     1      -1.132   9.844  20.089  0.00  0.00    +0.000 C 
ATOM      3  C   UNL     1      -0.105   9.421  21.206  0.00  0.00    +0.000 C 
ATOM      4  C   UNL     1       1.087   8.773  20.555  0.00  0.00    +0.000 A 
ATOM      5  C   UNL     1       1.590   7.538  20.977  0.00  0.00    +0.000 A 
ATOM      6  C   UNL     1       2.245   6.708  20.070  0.00  0.00    +0.000 A 
ATOM      7  C   UNL     1       2.305   7.103  18.733  0.00  0.00    +0.000 A 
ATOM      8  C   UNL     1       2.020   8.449  18.393  0.00  0.00    +0.000 A 
ATOM      9  C   UNL     1       1.485   9.341  19.342  0.00  0.00    +0.000 A 
ATOM     10  C   UNL     1       0.944  10.744  19.018  0.00  0.00    +0.000 C 
ATOM     11  C   UNL     1       1.191  11.903  20.042  0.00  0.00    +0.000 C 
ATOM     12  O   UNL     1       2.599   6.236  17.704  0.00  0.00    +0.000 OA
ATOM     13  C   UNL     1       1.825   5.014  17.736  0.00  0.00    +0.000 C 
ATOM     14  C   UNL     1       2.214   4.023  18.834  0.00  0.00    +0.000 C 
ATOM     15  C   UNL     1       3.290   4.586  19.732  0.00  0.00    +0.000 C 
ATOM     16  O   UNL     1       2.702   5.540  20.613  0.00  0.00    +0.000 OA
ENDROOT
BRANCH   1  17
ATOM     17  S   UNL     1      -1.392  11.862  18.186  0.00  0.00    +0.000 S 
ATOM     18  O   UNL     1      -2.114  11.330  17.042  0.00  0.00    +0.000 OA
ATOM     19  O   UNL     1      -0.496  12.984  18.041  0.00  0.00    +0.000 OA
BRANCH  17  23
ATOM     20  C   UNL     1      -4.544  12.910  21.368  0.00  0.00    +0.000 A 
ATOM     21  C   UNL     1      -4.931  12.340  20.149  0.00  0.00    +0.000 A 
ATOM     22  C   UNL     1      -3.993  12.052  19.145  0.00  0.00    +0.000 A 
ATOM     23  C   UNL     1      -2.652  12.366  19.351  0.00  0.00    +0.000 A 
ATOM     24  C   UNL     1      -2.260  12.963  20.562  0.00  0.00    +0.000 A 
ATOM     25  C   UNL     1      -3.203  13.231  21.569  0.00  0.00    +0.000 A 
BRANCH  20  27
ATOM     26  C   UNL     1      -5.251  13.062  23.636  0.00  0.00    +0.000 C 
ATOM     27  O   UNL     1      -5.563  13.150  22.249  0.00  0.00    +0.000 OA
ENDBRANCH  20  27
ENDBRANCH  17  23
ENDBRANCH   1  17
TORSDOF 3
ENDMDL
