MODEL 1
REMARK VINA RESULT:      -8.2      0.000      0.000
REMARK  Name = 
REMARK  14 active torsions:
REMARK  status: ('A' for Active; 'I' for Inactive)
REMARK    1  A    between atoms: C_1  and  C_2
REMARK    2  A    between atoms: C_2  and  C_3
REMARK    3  A    between atoms: C_3  and  C_4
REMARK    4  A    between atoms: C_4  and  O_5
REMARK    5  A    between atoms: C_4  and  C_6
REMARK    6  A    between atoms: C_8  and  C_9
REMARK    7  A    between atoms: C_9  and  C_10
REMARK    8  A    between atoms: N_18  and  C_19
REMARK    9  A    between atoms: C_19  and  C_20
REMARK   10  A    between atoms: C_20  and  C_21
REMARK   11  A    between atoms: C_21  and  N_22
REMARK   12  A    between atoms: N_25  and  C_26
REMARK   13  A    between atoms: C_30  and  C_31
REMARK   14  A    between atoms: C_31  and  C_32
REMARK                            x       y       z     vdW  Elec       q    Type
REMARK                         _______ _______ _______ _____ _____    ______ ____
ROOT
ATOM      1  C   UNL     1       3.913   4.826  18.940  0.00  0.00    +0.000 C 
ATOM      2  C   UNL     1       5.331   4.591  18.382  0.00  0.00    +0.000 C 
ATOM      3  C   UNL     1       5.592   5.103  16.954  0.00  0.00    +0.000 C 
ATOM      4  C   UNL     1       5.053   6.540  16.809  0.00  0.00    +0.000 C 
ATOM      5  C   UNL     1       3.762   6.867  17.577  0.00  0.00    +0.000 C 
ATOM      6  N   UNL     1       3.701   6.307  18.934  0.00  0.00    +0.000 NA
ENDROOT
BRANCH   1   7
ATOM      7  C   UNL     1       2.769   3.950  18.304  0.00  0.00    +0.000 C 
BRANCH   7   8
ATOM      8  O   UNL     1       1.696   4.749  17.781  0.00  0.00    +0.000 OA
ATOM      9  H   UNL     1       1.358   5.313  18.495  0.00  0.00    +0.000 HD
ENDBRANCH   7   8
BRANCH   7  10
ATOM     10  C   UNL     1       2.117   2.895  19.205  0.00  0.00    +0.000 C 
BRANCH  10  12
ATOM     11  C   UNL     1       1.356   2.864  21.579  0.00  0.00    +0.000 C 
ATOM     12  C   UNL     1       1.032   3.360  20.173  0.00  0.00    +0.000 C 
ENDBRANCH  10  12
ENDBRANCH   7  10
ENDBRANCH   1   7
BRANCH   3  13
ATOM     13  C   UNL     1       5.127   4.179  15.798  0.00  0.00    +0.000 C 
BRANCH  13  14
ATOM     14  C   UNL     1       5.935   4.185  14.508  0.00  0.00    +0.000 A 
ATOM     15  C   UNL     1       7.120   4.943  14.459  0.00  0.00    +0.000 A 
ATOM     16  C   UNL     1       7.821   5.110  13.262  0.00  0.00    +0.000 A 
ATOM     17  C   UNL     1       7.374   4.485  12.101  0.00  0.00    +0.000 A 
ATOM     18  C   UNL     1       6.245   3.672  12.148  0.00  0.00    +0.000 A 
ATOM     19  C   UNL     1       5.538   3.509  13.345  0.00  0.00    +0.000 A 
ENDBRANCH  13  14
ENDBRANCH   3  13
BRANCH   6  20
ATOM     20  C   UNL     1       2.444   6.657  19.616  0.00  0.00    +0.000 C 
BRANCH  20  21
ATOM     21  C   UNL     1       1.798   7.981  19.202  0.00  0.00    +0.000 C 
BRANCH  21  22
ATOM     22  C   UNL     1       1.582   8.806  20.466  0.00  0.00    +0.000 C 
BRANCH  22  23
ATOM     23  N   UNL     1       0.638   9.890  20.294  0.00  0.00    +0.000 N 
ATOM     24  C   UNL     1       0.215  10.539  21.437  0.00  0.00    +0.000 C 
ATOM     25  O   UNL     1       0.582  10.199  22.557  0.00  0.00    +0.000 OA
ATOM     26  N   UNL     1      -0.664  11.556  21.137  0.00  0.00    +0.000 N 
ATOM     27  H   UNL     1       0.781  10.500  19.501  0.00  0.00    +0.000 HD
ATOM     28  H   UNL     1      -1.139  11.461  20.250  0.00  0.00    +0.000 HD
BRANCH  26  29
ATOM     29  C   UNL     1      -1.214  12.450  22.077  0.00  0.00    +0.000 A 
ATOM     30  C   UNL     1      -0.515  13.555  22.573  0.00  0.00    +0.000 A 
ATOM     31  C   UNL     1      -1.081  14.380  23.541  0.00  0.00    +0.000 A 
ATOM     32  C   UNL     1      -2.369  14.118  24.014  0.00  0.00    +0.000 A 
ATOM     33  C   UNL     1      -3.098  13.037  23.516  0.00  0.00    +0.000 A 
ATOM     34  C   UNL     1      -2.517  12.215  22.528  0.00  0.00    +0.000 A 
BRANCH  33  35
ATOM     35  C   UNL     1      -4.475  12.691  23.986  0.00  0.00    +0.000 C 
ATOM     36  C   UNL     1      -5.697  13.275  23.320  0.00  0.00    +0.000 C 
ATOM     37  O   UNL     1      -4.607  11.929  24.944  0.00  0.00    +0.000 OA
ENDBRANCH  33  35
ENDBRANCH  26  29
ENDBRANCH  22  23
ENDBRANCH  21  22
ENDBRANCH  20  21
ENDBRANCH   6  20
TORSDOF 12
ENDMDL
MODEL 2
REMARK VINA RESULT:      -7.9      3.120      4.198
REMARK  Name = 
REMARK  14 active torsions:
REMARK  status: ('A' for Active; 'I' for Inactive)
REMARK    1  A    between atoms: C_1  and  C_2
REMARK    2  A    between atoms: C_2  and  C_3
REMARK    3  A    between atoms: C_3  and  C_4
REMARK    4  A    between atoms: C_4  and  O_5
REMARK    5  A    between atoms: C_4  and  C_6
REMARK    6  A    between atoms: C_8  and  C_9
REMARK    7  A    between atoms: C_9  and  C_10
REMARK    8  A    between atoms: N_18  and  C_19
REMARK    9  A    between atoms: C_19  and  C_20
REMARK   10  A    between atoms: C_20  and  C_21
REMARK   11  A    between atoms: C_21  and  N_22
REMARK   12  A    between atoms: N_25  and  C_26
REMARK   13  A    between atoms: C_30  and  C_31
REMARK   14  A    between atoms: C_31  and  C_32
REMARK                            x       y       z     vdW  Elec       q    Type
REMARK                         _______ _______ _______ _____ _____    ______ ____
ROOT
ATOM      1  C   UNL     1       4.585   5.215  18.333  0.00  0.00    +0.000 C 
ATOM      2  C   UNL     1       4.489   5.503  16.821  0.00  0.00    +0.000 C 
ATOM      3  C   UNL     1       4.486   4.274  15.895  0.00  0.00    +0.000 C 
ATOM      4  C   UNL     1       3.497   3.219  16.432  0.00  0.00    +0.000 C 
ATOM      5  C   UNL     1       3.390   3.098  17.960  0.00  0.00    +0.000 C 
ATOM      6  N   UNL     1       3.391   4.381  18.675  0.00  0.00    +0.000 NA
ENDROOT
BRANCH   1   7
ATOM      7  C   UNL     1       5.978   4.692  18.848  0.00  0.00    +0.000 C 
BRANCH   7   8
ATOM      8  O   UNL     1       6.215   5.034  20.222  0.00  0.00    +0.000 OA
ATOM      9  H   UNL     1       5.976   5.966  20.352  0.00  0.00    +0.000 HD
ENDBRANCH   7   8
BRANCH   7  10
ATOM     10  C   UNL     1       7.220   5.144  18.073  0.00  0.00    +0.000 C 
BRANCH  10  12
ATOM     11  C   UNL     1       7.589   7.550  17.530  0.00  0.00    +0.000 C 
ATOM     12  C   UNL     1       7.906   6.433  18.520  0.00  0.00    +0.000 C 
ENDBRANCH  10  12
ENDBRANCH   7  10
ENDBRANCH   1   7
BRANCH   3  13
ATOM     13  C   UNL     1       5.873   3.665  15.558  0.00  0.00    +0.000 C 
BRANCH  13  14
ATOM     14  C   UNL     1       6.486   3.988  14.203  0.00  0.00    +0.000 A 
ATOM     15  C   UNL     1       7.457   5.005  14.127  0.00  0.00    +0.000 A 
ATOM     16  C   UNL     1       7.942   5.449  12.895  0.00  0.00    +0.000 A 
ATOM     17  C   UNL     1       7.499   4.854  11.717  0.00  0.00    +0.000 A 
ATOM     18  C   UNL     1       6.594   3.798  11.778  0.00  0.00    +0.000 A 
ATOM     19  C   UNL     1       6.102   3.356  13.011  0.00  0.00    +0.000 A 
ENDBRANCH  13  14
ENDBRANCH   3  13
BRANCH   6  20
ATOM     20  C   UNL     1       3.284   4.198  20.133  0.00  0.00    +0.000 C 
BRANCH  20  21
ATOM     21  C   UNL     1       2.399   5.202  20.876  0.00  0.00    +0.000 C 
BRANCH  21  22
ATOM     22  C   UNL     1       2.509   6.539  20.150  0.00  0.00    +0.000 C 
BRANCH  22  23
ATOM     23  N   UNL     1       1.617   7.553  20.672  0.00  0.00    +0.000 N 
ATOM     24  C   UNL     1       1.336   8.624  19.847  0.00  0.00    +0.000 C 
ATOM     25  O   UNL     1       1.842   8.746  18.737  0.00  0.00    +0.000 OA
ATOM     26  N   UNL     1       0.467   9.506  20.452  0.00  0.00    +0.000 N 
ATOM     27  H   UNL     1       0.828   7.233  21.217  0.00  0.00    +0.000 HD
ATOM     28  H   UNL     1       0.449   9.462  21.461  0.00  0.00    +0.000 HD
BRANCH  26  29
ATOM     29  C   UNL     1      -0.069  10.657  19.841  0.00  0.00    +0.000 A 
ATOM     30  C   UNL     1       0.358  11.951  20.155  0.00  0.00    +0.000 A 
ATOM     31  C   UNL     1      -0.239  13.061  19.563  0.00  0.00    +0.000 A 
ATOM     32  C   UNL     1      -1.264  12.888  18.631  0.00  0.00    +0.000 A 
ATOM     33  C   UNL     1      -1.690  11.605  18.280  0.00  0.00    +0.000 A 
ATOM     34  C   UNL     1      -1.069  10.489  18.879  0.00  0.00    +0.000 A 
BRANCH  33  35
ATOM     35  C   UNL     1      -2.789  11.346  17.299  0.00  0.00    +0.000 C 
ATOM     36  C   UNL     1      -4.238  11.461  17.702  0.00  0.00    +0.000 C 
ATOM     37  O   UNL     1      -2.498  11.017  16.149  0.00  0.00    +0.000 OA
ENDBRANCH  33  35
ENDBRANCH  26  29
ENDBRANCH  22  23
ENDBRANCH  21  22
ENDBRANCH  20  21
ENDBRANCH   6  20
TORSDOF 12
ENDMDL
MODEL 3
REMARK VINA RESULT:      -7.8      2.376      2.876
REMARK  Name = 
REMARK  14 active torsions:
REMARK  status: ('A' for Active; 'I' for Inactive)
REMARK    1  A    between atoms: C_1  and  C_2
REMARK    2  A    between atoms: C_2  and  C_3
REMARK    3  A    between atoms: C_3  and  C_4
REMARK    4  A    between atoms: C_4  and  O_5
REMARK    5  A    between atoms: C_4  and  C_6
REMARK    6  A    between atoms: C_8  and  C_9
REMARK    7  A    between atoms: C_9  and  C_10
REMARK    8  A    between atoms: N_18  and  C_19
REMARK    9  A    between atoms: C_19  and  C_20
REMARK   10  A    between atoms: C_20  and  C_21
REMARK   11  A    between atoms: C_21  and  N_22
REMARK   12  A    between atoms: N_25  and  C_26
REMARK   13  A    between atoms: C_30  and  C_31
REMARK   14  A    between atoms: C_31  and  C_32
REMARK                            x       y       z     vdW  Elec       q    Type
REMARK                         _______ _______ _______ _____ _____    ______ ____
ROOT
ATOM      1  C   UNL     1       3.651   5.325  18.518  0.00  0.00    +0.000 C 
ATOM      2  C   UNL     1       5.053   4.739  18.252  0.00  0.00    +0.000 C 
ATOM      3  C   UNL     1       5.653   5.019  16.863  0.00  0.00    +0.000 C 
ATOM      4  C   UNL     1       5.483   6.511  16.512  0.00  0.00    +0.000 C 
ATOM      5  C   UNL     1       4.190   7.184  17.000  0.00  0.00    +0.000 C 
ATOM      6  N   UNL     1       3.782   6.807  18.361  0.00  0.00    +0.000 NA
ENDROOT
BRANCH   1   7
ATOM      7  C   UNL     1       2.461   4.640  17.748  0.00  0.00    +0.000 C 
BRANCH   7   8
ATOM      8  O   UNL     1       1.260   4.588  18.534  0.00  0.00    +0.000 OA
ATOM      9  H   UNL     1       0.524   4.915  17.992  0.00  0.00    +0.000 HD
ENDBRANCH   7   8
BRANCH   7  10
ATOM     10  C   UNL     1       2.694   3.217  17.230  0.00  0.00    +0.000 C 
BRANCH  10  12
ATOM     11  C   UNL     1       3.708   1.289  18.445  0.00  0.00    +0.000 C 
ATOM     12  C   UNL     1       2.416   2.058  18.184  0.00  0.00    +0.000 C 
ENDBRANCH  10  12
ENDBRANCH   7  10
ENDBRANCH   1   7
BRANCH   3  13
ATOM     13  C   UNL     1       5.189   4.086  15.714  0.00  0.00    +0.000 C 
BRANCH  13  14
ATOM     14  C   UNL     1       5.967   4.121  14.406  0.00  0.00    +0.000 A 
ATOM     15  C   UNL     1       7.127   4.917  14.332  0.00  0.00    +0.000 A 
ATOM     16  C   UNL     1       7.794   5.109  13.120  0.00  0.00    +0.000 A 
ATOM     17  C   UNL     1       7.340   4.474  11.967  0.00  0.00    +0.000 A 
ATOM     18  C   UNL     1       6.238   3.626  12.037  0.00  0.00    +0.000 A 
ATOM     19  C   UNL     1       5.565   3.437  13.249  0.00  0.00    +0.000 A 
ENDBRANCH  13  14
ENDBRANCH   3  13
BRANCH   6  20
ATOM     20  C   UNL     1       2.541   7.486  18.769  0.00  0.00    +0.000 C 
BRANCH  20  21
ATOM     21  C   UNL     1       1.920   8.434  17.740  0.00  0.00    +0.000 C 
BRANCH  21  22
ATOM     22  C   UNL     1       1.253   9.573  18.503  0.00  0.00    +0.000 C 
BRANCH  22  23
ATOM     23  N   UNL     1       0.109  10.135  17.816  0.00  0.00    +0.000 N 
ATOM     24  C   UNL     1      -0.963  10.519  18.597  0.00  0.00    +0.000 C 
ATOM     25  O   UNL     1      -0.977  10.363  19.813  0.00  0.00    +0.000 OA
ATOM     26  N   UNL     1      -1.975  11.051  17.829  0.00  0.00    +0.000 N 
ATOM     27  H   UNL     1       0.299  10.755  17.041  0.00  0.00    +0.000 HD
ATOM     28  H   UNL     1      -1.968  10.768  16.859  0.00  0.00    +0.000 HD
BRANCH  26  29
ATOM     29  C   UNL     1      -3.169  11.603  18.336  0.00  0.00    +0.000 A 
ATOM     30  C   UNL     1      -4.375  11.579  17.631  0.00  0.00    +0.000 A 
ATOM     31  C   UNL     1      -5.517  12.185  18.152  0.00  0.00    +0.000 A 
ATOM     32  C   UNL     1      -5.467  12.808  19.400  0.00  0.00    +0.000 A 
ATOM     33  C   UNL     1      -4.281  12.823  20.136  0.00  0.00    +0.000 A 
ATOM     34  C   UNL     1      -3.136  12.196  19.602  0.00  0.00    +0.000 A 
BRANCH  33  35
ATOM     35  C   UNL     1      -4.153  13.482  21.472  0.00  0.00    +0.000 C 
ATOM     36  C   UNL     1      -3.688  12.711  22.683  0.00  0.00    +0.000 C 
ATOM     37  O   UNL     1      -4.452  14.672  21.583  0.00  0.00    +0.000 OA
ENDBRANCH  33  35
ENDBRANCH  26  29
ENDBRANCH  22  23
ENDBRANCH  21  22
ENDBRANCH  20  21
ENDBRANCH   6  20
TORSDOF 12
ENDMDL
MODEL 4
REMARK VINA RESULT:      -7.8      6.035      8.890
REMARK  Name = 
REMARK  14 active torsions:
REMARK  status: ('A' for Active; 'I' for Inactive)
REMARK    1  A    between atoms: C_1  and  C_2
REMARK    2  A    between atoms: C_2  and  C_3
REMARK    3  A    between atoms: C_3  and  C_4
REMARK    4  A    between atoms: C_4  and  O_5
REMARK    5  A    between atoms: C_4  and  C_6
REMARK    6  A    between atoms: C_8  and  C_9
REMARK    7  A    between atoms: C_9  and  C_10
REMARK    8  A    between atoms: N_18  and  C_19
REMARK    9  A    between atoms: C_19  and  C_20
REMARK   10  A    between atoms: C_20  and  C_21
REMARK   11  A    between atoms: C_21  and  N_22
REMARK   12  A    between atoms: N_25  and  C_26
REMARK   13  A    between atoms: C_30  and  C_31
REMARK   14  A    between atoms: C_31  and  C_32
REMARK                            x       y       z     vdW  Elec       q    Type
REMARK                         _______ _______ _______ _____ _____    ______ ____
ROOT
ATOM      1  C   UNL     1       5.627   5.534  18.393  0.00  0.00    +0.000 C 
ATOM      2  C   UNL     1       5.420   4.007  18.335  0.00  0.00    +0.000 C 
ATOM      3  C   UNL     1       4.570   3.481  17.166  0.00  0.00    +0.000 C 
ATOM      4  C   UNL     1       5.032   4.136  15.849  0.00  0.00    +0.000 C 
ATOM      5  C   UNL     1       5.492   5.600  15.938  0.00  0.00    +0.000 C 
ATOM      6  N   UNL     1       6.312   5.911  17.118  0.00  0.00    +0.000 NA
ENDROOT
BRANCH   1   7
ATOM      7  C   UNL     1       4.364   6.385  18.791  0.00  0.00    +0.000 C 
BRANCH   7   8
ATOM      8  O   UNL     1       3.710   5.878  19.964  0.00  0.00    +0.000 OA
ATOM      9  H   UNL     1       3.138   6.575  20.322  0.00  0.00    +0.000 HD
ENDBRANCH   7   8
BRANCH   7  10
ATOM     10  C   UNL     1       3.272   6.548  17.728  0.00  0.00    +0.000 C 
BRANCH  10  12
ATOM     11  C   UNL     1       2.438   8.882  18.005  0.00  0.00    +0.000 C 
ATOM     12  C   UNL     1       2.059   7.406  18.081  0.00  0.00    +0.000 C 
ENDBRANCH  10  12
ENDBRANCH   7  10
ENDBRANCH   1   7
BRANCH   3  13
ATOM     13  C   UNL     1       3.031   3.550  17.351  0.00  0.00    +0.000 C 
BRANCH  13  14
ATOM     14  C   UNL     1       2.459   3.212  18.720  0.00  0.00    +0.000 A 
ATOM     15  C   UNL     1       1.198   3.732  19.071  0.00  0.00    +0.000 A 
ATOM     16  C   UNL     1       0.692   3.584  20.365  0.00  0.00    +0.000 A 
ATOM     17  C   UNL     1       1.415   2.873  21.318  0.00  0.00    +0.000 A 
ATOM     18  C   UNL     1       2.629   2.289  20.967  0.00  0.00    +0.000 A 
ATOM     19  C   UNL     1       3.141   2.443  19.674  0.00  0.00    +0.000 A 
ENDBRANCH  13  14
ENDBRANCH   3  13
BRANCH   6  20
ATOM     20  C   UNL     1       6.721   7.325  17.144  0.00  0.00    +0.000 C 
BRANCH  20  21
ATOM     21  C   UNL     1       7.893   7.671  18.067  0.00  0.00    +0.000 C 
BRANCH  21  22
ATOM     22  C   UNL     1       8.199   9.154  17.890  0.00  0.00    +0.000 C 
BRANCH  22  23
ATOM     23  N   UNL     1       9.056   9.693  18.925  0.00  0.00    +0.000 N 
ATOM     24  C   UNL     1       9.245  11.061  18.931  0.00  0.00    +0.000 C 
ATOM     25  O   UNL     1       8.747  11.795  18.084  0.00  0.00    +0.000 OA
ATOM     26  N   UNL     1      10.064  11.447  19.970  0.00  0.00    +0.000 N 
ATOM     27  H   UNL     1       8.979   9.282  19.845  0.00  0.00    +0.000 HD
ATOM     28  H   UNL     1      10.671  10.723  20.325  0.00  0.00    +0.000 HD
BRANCH  26  29
ATOM     29  C   UNL     1      10.385  12.782  20.290  0.00  0.00    +0.000 A 
ATOM     30  C   UNL     1      11.306  13.536  19.559  0.00  0.00    +0.000 A 
ATOM     31  C   UNL     1      11.631  14.834  19.946  0.00  0.00    +0.000 A 
ATOM     32  C   UNL     1      11.019  15.401  21.066  0.00  0.00    +0.000 A 
ATOM     33  C   UNL     1      10.076  14.678  21.799  0.00  0.00    +0.000 A 
ATOM     34  C   UNL     1       9.749  13.368  21.389  0.00  0.00    +0.000 A 
BRANCH  33  35
ATOM     35  C   UNL     1       9.393  15.217  23.014  0.00  0.00    +0.000 C 
ATOM     36  C   UNL     1       8.086  14.637  23.497  0.00  0.00    +0.000 C 
ATOM     37  O   UNL     1       9.901  16.162  23.617  0.00  0.00    +0.000 OA
ENDBRANCH  33  35
ENDBRANCH  26  29
ENDBRANCH  22  23
ENDBRANCH  21  22
ENDBRANCH  20  21
ENDBRANCH   6  20
TORSDOF 12
ENDMDL
MODEL 5
REMARK VINA RESULT:      -7.8      6.408     11.255
REMARK  Name = 
REMARK  14 active torsions:
REMARK  status: ('A' for Active; 'I' for Inactive)
REMARK    1  A    between atoms: C_1  and  C_2
REMARK    2  A    between atoms: C_2  and  C_3
REMARK    3  A    between atoms: C_3  and  C_4
REMARK    4  A    between atoms: C_4  and  O_5
REMARK    5  A    between atoms: C_4  and  C_6
REMARK    6  A    between atoms: C_8  and  C_9
REMARK    7  A    between atoms: C_9  and  C_10
REMARK    8  A    between atoms: N_18  and  C_19
REMARK    9  A    between atoms: C_19  and  C_20
REMARK   10  A    between atoms: C_20  and  C_21
REMARK   11  A    between atoms: C_21  and  N_22
REMARK   12  A    between atoms: N_25  and  C_26
REMARK   13  A    between atoms: C_30  and  C_31
REMARK   14  A    between atoms: C_31  and  C_32
REMARK                            x       y       z     vdW  Elec       q    Type
REMARK                         _______ _______ _______ _____ _____    ______ ____
ROOT
ATOM      1  C   UNL     1       9.689  12.693  18.211  0.00  0.00    +0.000 C 
ATOM      2  C   UNL     1      10.609  13.588  19.065  0.00  0.00    +0.000 C 
ATOM      3  C   UNL     1      10.296  13.644  20.570  0.00  0.00    +0.000 C 
ATOM      4  C   UNL     1      10.075  12.216  21.110  0.00  0.00    +0.000 C 
ATOM      5  C   UNL     1       9.381  11.226  20.161  0.00  0.00    +0.000 C 
ATOM      6  N   UNL     1       9.824  11.309  18.763  0.00  0.00    +0.000 NA
ENDROOT
BRANCH   1   7
ATOM      7  C   UNL     1       8.222  13.222  17.993  0.00  0.00    +0.000 C 
BRANCH   7   8
ATOM      8  O   UNL     1       7.598  12.641  16.837  0.00  0.00    +0.000 OA
ATOM      9  H   UNL     1       6.880  12.061  17.136  0.00  0.00    +0.000 HD
ENDBRANCH   7   8
BRANCH   7  10
ATOM     10  C   UNL     1       8.042  14.738  17.860  0.00  0.00    +0.000 C 
BRANCH  10  12
ATOM     11  C   UNL     1       5.560  14.955  17.974  0.00  0.00    +0.000 C 
ATOM     12  C   UNL     1       6.880  15.383  18.611  0.00  0.00    +0.000 C 
ENDBRANCH  10  12
ENDBRANCH   7  10
ENDBRANCH   1   7
BRANCH   3  13
ATOM     13  C   UNL     1       9.168  14.618  21.001  0.00  0.00    +0.000 C 
BRANCH  13  14
ATOM     14  C   UNL     1       8.301  14.229  22.190  0.00  0.00    +0.000 A 
ATOM     15  C   UNL     1       6.975  13.819  21.953  0.00  0.00    +0.000 A 
ATOM     16  C   UNL     1       6.089  13.597  23.010  0.00  0.00    +0.000 A 
ATOM     17  C   UNL     1       6.524  13.735  24.324  0.00  0.00    +0.000 A 
ATOM     18  C   UNL     1       7.852  14.069  24.578  0.00  0.00    +0.000 A 
ATOM     19  C   UNL     1       8.739  14.298  23.521  0.00  0.00    +0.000 A 
ENDBRANCH  13  14
ENDBRANCH   3  13
BRANCH   6  20
ATOM     20  C   UNL     1       9.124  10.336  17.907  0.00  0.00    +0.000 C 
BRANCH  20  21
ATOM     21  C   UNL     1       8.538   9.113  18.617  0.00  0.00    +0.000 C 
BRANCH  21  22
ATOM     22  C   UNL     1       7.927   8.208  17.551  0.00  0.00    +0.000 C 
BRANCH  22  23
ATOM     23  N   UNL     1       7.544   6.905  18.051  0.00  0.00    +0.000 N 
ATOM     24  C   UNL     1       6.231   6.523  17.862  0.00  0.00    +0.000 C 
ATOM     25  O   UNL     1       5.405   7.258  17.332  0.00  0.00    +0.000 OA
ATOM     26  N   UNL     1       6.001   5.262  18.366  0.00  0.00    +0.000 N 
ATOM     27  H   UNL     1       8.214   6.156  17.938  0.00  0.00    +0.000 HD
ATOM     28  H   UNL     1       6.650   4.963  19.080  0.00  0.00    +0.000 HD
BRANCH  26  29
ATOM     29  C   UNL     1       4.782   4.561  18.261  0.00  0.00    +0.000 A 
ATOM     30  C   UNL     1       4.380   3.911  17.091  0.00  0.00    +0.000 A 
ATOM     31  C   UNL     1       3.142   3.277  17.018  0.00  0.00    +0.000 A 
ATOM     32  C   UNL     1       2.295   3.271  18.128  0.00  0.00    +0.000 A 
ATOM     33  C   UNL     1       2.685   3.891  19.317  0.00  0.00    +0.000 A 
ATOM     34  C   UNL     1       3.946   4.520  19.380  0.00  0.00    +0.000 A 
BRANCH  33  35
ATOM     35  C   UNL     1       1.824   3.934  20.539  0.00  0.00    +0.000 C 
ATOM     36  C   UNL     1       1.773   2.771  21.500  0.00  0.00    +0.000 C 
ATOM     37  O   UNL     1       1.134   4.932  20.750  0.00  0.00    +0.000 OA
ENDBRANCH  33  35
ENDBRANCH  26  29
ENDBRANCH  22  23
ENDBRANCH  21  22
ENDBRANCH  20  21
ENDBRANCH   6  20
TORSDOF 12
ENDMDL
MODEL 6
REMARK VINA RESULT:      -7.8      1.086      1.473
REMARK  Name = 
REMARK  14 active torsions:
REMARK  status: ('A' for Active; 'I' for Inactive)
REMARK    1  A    between atoms: C_1  and  C_2
REMARK    2  A    between atoms: C_2  and  C_3
REMARK    3  A    between atoms: C_3  and  C_4
REMARK    4  A    between atoms: C_4  and  O_5
REMARK    5  A    between atoms: C_4  and  C_6
REMARK    6  A    between atoms: C_8  and  C_9
REMARK    7  A    between atoms: C_9  and  C_10
REMARK    8  A    between atoms: N_18  and  C_19
REMARK    9  A    between atoms: C_19  and  C_20
REMARK   10  A    between atoms: C_20  and  C_21
REMARK   11  A    between atoms: C_21  and  N_22
REMARK   12  A    between atoms: N_25  and  C_26
REMARK   13  A    between atoms: C_30  and  C_31
REMARK   14  A    between atoms: C_31  and  C_32
REMARK                            x       y       z     vdW  Elec       q    Type
REMARK                         _______ _______ _______ _____ _____    ______ ____
ROOT
ATOM      1  C   UNL     1       4.318   4.993  19.633  0.00  0.00    +0.000 C 
ATOM      2  C   UNL     1       5.688   5.381  19.042  0.00  0.00    +0.000 C 
ATOM      3  C   UNL     1       5.747   5.548  17.514  0.00  0.00    +0.000 C 
ATOM      4  C   UNL     1       4.555   6.402  17.037  0.00  0.00    +0.000 C 
ATOM      5  C   UNL     1       3.231   6.211  17.793  0.00  0.00    +0.000 C 
ATOM      6  N   UNL     1       3.373   6.088  19.250  0.00  0.00    +0.000 NA
ENDROOT
BRANCH   1   7
ATOM      7  C   UNL     1       3.838   3.520  19.348  0.00  0.00    +0.000 C 
BRANCH   7   8
ATOM      8  O   UNL     1       4.919   2.577  19.383  0.00  0.00    +0.000 OA
ATOM      9  H   UNL     1       5.749   3.056  19.229  0.00  0.00    +0.000 HD
ENDBRANCH   7   8
BRANCH   7  10
ATOM     10  C   UNL     1       3.096   3.273  18.031  0.00  0.00    +0.000 C 
BRANCH  10  12
ATOM     11  C   UNL     1       1.244   2.449  19.484  0.00  0.00    +0.000 C 
ATOM     12  C   UNL     1       1.832   2.417  18.076  0.00  0.00    +0.000 C 
ENDBRANCH  10  12
ENDBRANCH   7  10
ENDBRANCH   1   7
BRANCH   3  13
ATOM     13  C   UNL     1       5.908   4.245  16.687  0.00  0.00    +0.000 C 
BRANCH  13  14
ATOM     14  C   UNL     1       6.264   4.373  15.213  0.00  0.00    +0.000 A 
ATOM     15  C   UNL     1       5.523   3.630  14.273  0.00  0.00    +0.000 A 
ATOM     16  C   UNL     1       5.900   3.588  12.928  0.00  0.00    +0.000 A 
ATOM     17  C   UNL     1       6.996   4.325  12.489  0.00  0.00    +0.000 A 
ATOM     18  C   UNL     1       7.695   5.122  13.391  0.00  0.00    +0.000 A 
ATOM     19  C   UNL     1       7.324   5.160  14.740  0.00  0.00    +0.000 A 
ENDBRANCH  13  14
ENDBRANCH   3  13
BRANCH   6  20
ATOM     20  C   UNL     1       2.071   5.910  19.916  0.00  0.00    +0.000 C 
BRANCH  20  21
ATOM     21  C   UNL     1       1.632   7.039  20.851  0.00  0.00    +0.000 C 
BRANCH  21  22
ATOM     22  C   UNL     1       1.837   8.357  20.112  0.00  0.00    +0.000 C 
BRANCH  22  23
ATOM     23  N   UNL     1       0.653   9.190  20.079  0.00  0.00    +0.000 N 
ATOM     24  C   UNL     1       0.505  10.109  21.099  0.00  0.00    +0.000 C 
ATOM     25  O   UNL     1       1.311  10.201  22.019  0.00  0.00    +0.000 OA
ATOM     26  N   UNL     1      -0.648  10.847  20.943  0.00  0.00    +0.000 N 
ATOM     27  H   UNL     1       0.354   9.526  19.174  0.00  0.00    +0.000 HD
ATOM     28  H   UNL     1      -1.361  10.408  20.378  0.00  0.00    +0.000 HD
BRANCH  26  29
ATOM     29  C   UNL     1      -1.042  11.913  21.776  0.00  0.00    +0.000 A 
ATOM     30  C   UNL     1      -0.229  13.024  22.022  0.00  0.00    +0.000 A 
ATOM     31  C   UNL     1      -0.641  14.028  22.895  0.00  0.00    +0.000 A 
ATOM     32  C   UNL     1      -1.885  13.940  23.523  0.00  0.00    +0.000 A 
ATOM     33  C   UNL     1      -2.726  12.854  23.274  0.00  0.00    +0.000 A 
ATOM     34  C   UNL     1      -2.302  11.849  22.379  0.00  0.00    +0.000 A 
BRANCH  33  35
ATOM     35  C   UNL     1      -4.064  12.688  23.920  0.00  0.00    +0.000 C 
ATOM     36  C   UNL     1      -5.220  13.593  23.566  0.00  0.00    +0.000 C 
ATOM     37  O   UNL     1      -4.215  11.809  24.768  0.00  0.00    +0.000 OA
ENDBRANCH  33  35
ENDBRANCH  26  29
ENDBRANCH  22  23
ENDBRANCH  21  22
ENDBRANCH  20  21
ENDBRANCH   6  20
TORSDOF 12
ENDMDL
MODEL 7
REMARK VINA RESULT:      -7.7      3.073      4.085
REMARK  Name = 
REMARK  14 active torsions:
REMARK  status: ('A' for Active; 'I' for Inactive)
REMARK    1  A    between atoms: C_1  and  C_2
REMARK    2  A    between atoms: C_2  and  C_3
REMARK    3  A    between atoms: C_3  and  C_4
REMARK    4  A    between atoms: C_4  and  O_5
REMARK    5  A    between atoms: C_4  and  C_6
REMARK    6  A    between atoms: C_8  and  C_9
REMARK    7  A    between atoms: C_9  and  C_10
REMARK    8  A    between atoms: N_18  and  C_19
REMARK    9  A    between atoms: C_19  and  C_20
REMARK   10  A    between atoms: C_20  and  C_21
REMARK   11  A    between atoms: C_21  and  N_22
REMARK   12  A    between atoms: N_25  and  C_26
REMARK   13  A    between atoms: C_30  and  C_31
REMARK   14  A    between atoms: C_31  and  C_32
REMARK                            x       y       z     vdW  Elec       q    Type
REMARK                         _______ _______ _______ _____ _____    ______ ____
ROOT
ATOM      1  C   UNL     1       4.929   5.106  18.980  0.00  0.00    +0.000 C 
ATOM      2  C   UNL     1       6.365   5.583  18.682  0.00  0.00    +0.000 C 
ATOM      3  C   UNL     1       6.718   5.788  17.199  0.00  0.00    +0.000 C 
ATOM      4  C   UNL     1       5.598   6.587  16.502  0.00  0.00    +0.000 C 
ATOM      5  C   UNL     1       4.163   6.305  16.974  0.00  0.00    +0.000 C 
ATOM      6  N   UNL     1       4.017   6.157  18.429  0.00  0.00    +0.000 NA
ENDROOT
BRANCH   1   7
ATOM      7  C   UNL     1       4.602   3.617  18.588  0.00  0.00    +0.000 C 
BRANCH   7   8
ATOM      8  O   UNL     1       3.821   3.528  17.386  0.00  0.00    +0.000 OA
ATOM      9  H   UNL     1       2.955   3.932  17.553  0.00  0.00    +0.000 HD
ENDBRANCH   7   8
BRANCH   7  10
ATOM     10  C   UNL     1       3.878   2.764  19.634  0.00  0.00    +0.000 C 
BRANCH  10  12
ATOM     11  C   UNL     1       1.505   2.433  20.325  0.00  0.00    +0.000 C 
ATOM     12  C   UNL     1       2.540   2.143  19.242  0.00  0.00    +0.000 C 
ENDBRANCH  10  12
ENDBRANCH   7  10
ENDBRANCH   1   7
BRANCH   3  13
ATOM     13  C   UNL     1       7.117   4.516  16.406  0.00  0.00    +0.000 C 
BRANCH  13  14
ATOM     14  C   UNL     1       6.994   4.550  14.889  0.00  0.00    +0.000 A 
ATOM     15  C   UNL     1       6.030   3.729  14.272  0.00  0.00    +0.000 A 
ATOM     16  C   UNL     1       5.973   3.603  12.882  0.00  0.00    +0.000 A 
ATOM     17  C   UNL     1       6.848   4.331  12.081  0.00  0.00    +0.000 A 
ATOM     18  C   UNL     1       7.758   5.203  12.672  0.00  0.00    +0.000 A 
ATOM     19  C   UNL     1       7.821   5.325  14.064  0.00  0.00    +0.000 A 
ENDBRANCH  13  14
ENDBRANCH   3  13
BRANCH   6  20
ATOM     20  C   UNL     1       2.622   5.892  18.817  0.00  0.00    +0.000 C 
BRANCH  20  21
ATOM     21  C   UNL     1       2.328   5.893  20.319  0.00  0.00    +0.000 C 
BRANCH  21  22
ATOM     22  C   UNL     1       1.611   7.197  20.649  0.00  0.00    +0.000 C 
BRANCH  22  23
ATOM     23  N   UNL     1       1.742   8.205  19.618  0.00  0.00    +0.000 N 
ATOM     24  C   UNL     1       1.134   9.422  19.852  0.00  0.00    +0.000 C 
ATOM     25  O   UNL     1       0.477   9.643  20.863  0.00  0.00    +0.000 OA
ATOM     26  N   UNL     1       1.346  10.295  18.806  0.00  0.00    +0.000 N 
ATOM     27  H   UNL     1       2.637   8.272  19.154  0.00  0.00    +0.000 HD
ATOM     28  H   UNL     1       1.566   9.856  17.924  0.00  0.00    +0.000 HD
BRANCH  26  29
ATOM     29  C   UNL     1       0.919  11.638  18.778  0.00  0.00    +0.000 A 
ATOM     30  C   UNL     1      -0.428  12.004  18.704  0.00  0.00    +0.000 A 
ATOM     31  C   UNL     1      -0.798  13.345  18.625  0.00  0.00    +0.000 A 
ATOM     32  C   UNL     1       0.181  14.340  18.636  0.00  0.00    +0.000 A 
ATOM     33  C   UNL     1       1.532  14.002  18.736  0.00  0.00    +0.000 A 
ATOM     34  C   UNL     1       1.892  12.641  18.826  0.00  0.00    +0.000 A 
BRANCH  33  35
ATOM     35  C   UNL     1       2.633  15.014  18.741  0.00  0.00    +0.000 C 
ATOM     36  C   UNL     1       3.967  14.713  19.379  0.00  0.00    +0.000 C 
ATOM     37  O   UNL     1       2.434  16.116  18.230  0.00  0.00    +0.000 OA
ENDBRANCH  33  35
ENDBRANCH  26  29
ENDBRANCH  22  23
ENDBRANCH  21  22
ENDBRANCH  20  21
ENDBRANCH   6  20
TORSDOF 12
ENDMDL
MODEL 8
REMARK VINA RESULT:      -7.7      2.492      2.978
REMARK  Name = 
REMARK  14 active torsions:
REMARK  status: ('A' for Active; 'I' for Inactive)
REMARK    1  A    between atoms: C_1  and  C_2
REMARK    2  A    between atoms: C_2  and  C_3
REMARK    3  A    between atoms: C_3  and  C_4
REMARK    4  A    between atoms: C_4  and  O_5
REMARK    5  A    between atoms: C_4  and  C_6
REMARK    6  A    between atoms: C_8  and  C_9
REMARK    7  A    between atoms: C_9  and  C_10
REMARK    8  A    between atoms: N_18  and  C_19
REMARK    9  A    between atoms: C_19  and  C_20
REMARK   10  A    between atoms: C_20  and  C_21
REMARK   11  A    between atoms: C_21  and  N_22
REMARK   12  A    between atoms: N_25  and  C_26
REMARK   13  A    between atoms: C_30  and  C_31
REMARK   14  A    between atoms: C_31  and  C_32
REMARK                            x       y       z     vdW  Elec       q    Type
REMARK                         _______ _______ _______ _____ _____    ______ ____
ROOT
ATOM      1  C   UNL     1       3.798   4.660  18.479  0.00  0.00    +0.000 C 
ATOM      2  C   UNL     1       5.226   4.273  18.045  0.00  0.00    +0.000 C 
ATOM      3  C   UNL     1       5.695   4.822  16.686  0.00  0.00    +0.000 C 
ATOM      4  C   UNL     1       5.357   6.323  16.585  0.00  0.00    +0.000 C 
ATOM      5  C   UNL     1       4.044   6.773  17.245  0.00  0.00    +0.000 C 
ATOM      6  N   UNL     1       3.773   6.154  18.550  0.00  0.00    +0.000 NA
ENDROOT
BRANCH   1   7
ATOM      7  C   UNL     1       2.626   3.976  17.679  0.00  0.00    +0.000 C 
BRANCH   7   8
ATOM      8  O   UNL     1       1.472   4.823  17.569  0.00  0.00    +0.000 OA
ATOM      9  H   UNL     1       1.753   5.742  17.700  0.00  0.00    +0.000 HD
ENDBRANCH   7   8
BRANCH   7  10
ATOM     10  C   UNL     1       2.120   2.628  18.204  0.00  0.00    +0.000 C 
BRANCH  10  12
ATOM     11  C   UNL     1       1.176   2.870  20.499  0.00  0.00    +0.000 C 
ATOM     12  C   UNL     1       0.837   2.624  19.032  0.00  0.00    +0.000 C 
ENDBRANCH  10  12
ENDBRANCH   7  10
ENDBRANCH   1   7
BRANCH   3  13
ATOM     13  C   UNL     1       5.241   4.029  15.432  0.00  0.00    +0.000 C 
BRANCH  13  14
ATOM     14  C   UNL     1       6.090   4.136  14.173  0.00  0.00    +0.000 A 
ATOM     15  C   UNL     1       7.158   5.053  14.155  0.00  0.00    +0.000 A 
ATOM     16  C   UNL     1       7.874   5.305  12.982  0.00  0.00    +0.000 A 
ATOM     17  C   UNL     1       7.564   4.611  11.816  0.00  0.00    +0.000 A 
ATOM     18  C   UNL     1       6.559   3.648  11.834  0.00  0.00    +0.000 A 
ATOM     19  C   UNL     1       5.837   3.399  13.007  0.00  0.00    +0.000 A 
ENDBRANCH  13  14
ENDBRANCH   3  13
BRANCH   6  20
ATOM     20  C   UNL     1       2.505   6.627  19.130  0.00  0.00    +0.000 C 
BRANCH  20  21
ATOM     21  C   UNL     1       2.232   6.218  20.580  0.00  0.00    +0.000 C 
BRANCH  21  22
ATOM     22  C   UNL     1       1.634   7.424  21.296  0.00  0.00    +0.000 C 
BRANCH  22  23
ATOM     23  N   UNL     1       1.329   8.528  20.411  0.00  0.00    +0.000 N 
ATOM     24  C   UNL     1       0.088   9.117  20.549  0.00  0.00    +0.000 C 
ATOM     25  O   UNL     1      -0.744   8.711  21.354  0.00  0.00    +0.000 OA
ATOM     26  N   UNL     1      -0.071  10.161  19.664  0.00  0.00    +0.000 N 
ATOM     27  H   UNL     1       2.077   9.180  20.217  0.00  0.00    +0.000 HD
ATOM     28  H   UNL     1       0.524  10.122  18.849  0.00  0.00    +0.000 HD
BRANCH  26  29
ATOM     29  C   UNL     1      -1.196  11.008  19.610  0.00  0.00    +0.000 A 
ATOM     30  C   UNL     1      -1.492  11.941  20.608  0.00  0.00    +0.000 A 
ATOM     31  C   UNL     1      -2.645  12.719  20.536  0.00  0.00    +0.000 A 
ATOM     32  C   UNL     1      -3.510  12.584  19.449  0.00  0.00    +0.000 A 
ATOM     33  C   UNL     1      -3.224  11.679  18.425  0.00  0.00    +0.000 A 
ATOM     34  C   UNL     1      -2.047  10.904  18.506  0.00  0.00    +0.000 A 
BRANCH  33  35
ATOM     35  C   UNL     1      -4.111  11.474  17.239  0.00  0.00    +0.000 C 
ATOM     36  C   UNL     1      -3.739  10.505  16.144  0.00  0.00    +0.000 C 
ATOM     37  O   UNL     1      -5.153  12.123  17.153  0.00  0.00    +0.000 OA
ENDBRANCH  33  35
ENDBRANCH  26  29
ENDBRANCH  22  23
ENDBRANCH  21  22
ENDBRANCH  20  21
ENDBRANCH   6  20
TORSDOF 12
ENDMDL
MODEL 9
REMARK VINA RESULT:      -7.7      3.713      4.933
REMARK  Name = 
REMARK  14 active torsions:
REMARK  status: ('A' for Active; 'I' for Inactive)
REMARK    1  A    between atoms: C_1  and  C_2
REMARK    2  A    between atoms: C_2  and  C_3
REMARK    3  A    between atoms: C_3  and  C_4
REMARK    4  A    between atoms: C_4  and  O_5
REMARK    5  A    between atoms: C_4  and  C_6
REMARK    6  A    between atoms: C_8  and  C_9
REMARK    7  A    between atoms: C_9  and  C_10
REMARK    8  A    between atoms: N_18  and  C_19
REMARK    9  A    between atoms: C_19  and  C_20
REMARK   10  A    between atoms: C_20  and  C_21
REMARK   11  A    between atoms: C_21  and  N_22
REMARK   12  A    between atoms: N_25  and  C_26
REMARK   13  A    between atoms: C_30  and  C_31
REMARK   14  A    between atoms: C_31  and  C_32
REMARK                            x       y       z     vdW  Elec       q    Type
REMARK                         _______ _______ _______ _____ _____    ______ ____
ROOT
ATOM      1  C   UNL     1       4.987   5.379  19.245  0.00  0.00    +0.000 C 
ATOM      2  C   UNL     1       6.404   5.661  18.704  0.00  0.00    +0.000 C 
ATOM      3  C   UNL     1       6.543   5.743  17.174  0.00  0.00    +0.000 C 
ATOM      4  C   UNL     1       5.425   6.634  16.596  0.00  0.00    +0.000 C 
ATOM      5  C   UNL     1       4.059   6.556  17.295  0.00  0.00    +0.000 C 
ATOM      6  N   UNL     1       4.125   6.503  18.761  0.00  0.00    +0.000 NA
ENDROOT
BRANCH   1   7
ATOM      7  C   UNL     1       4.437   3.922  19.011  0.00  0.00    +0.000 C 
BRANCH   7   8
ATOM      8  O   UNL     1       5.448   2.920  19.202  0.00  0.00    +0.000 OA
ATOM      9  H   UNL     1       6.151   3.295  19.756  0.00  0.00    +0.000 HD
ENDBRANCH   7   8
BRANCH   7  10
ATOM     10  C   UNL     1       3.797   3.630  17.650  0.00  0.00    +0.000 C 
BRANCH  10  12
ATOM     11  C   UNL     1       1.332   3.973  17.496  0.00  0.00    +0.000 C 
ATOM     12  C   UNL     1       2.439   2.933  17.638  0.00  0.00    +0.000 C 
ENDBRANCH  10  12
ENDBRANCH   7  10
ENDBRANCH   1   7
BRANCH   3  13
ATOM     13  C   UNL     1       6.668   4.391  16.423  0.00  0.00    +0.000 C 
BRANCH  13  14
ATOM     14  C   UNL     1       6.724   4.421  14.902  0.00  0.00    +0.000 A 
ATOM     15  C   UNL     1       5.821   3.618  14.178  0.00  0.00    +0.000 A 
ATOM     16  C   UNL     1       5.924   3.487  12.791  0.00  0.00    +0.000 A 
ATOM     17  C   UNL     1       6.903   4.192  12.096  0.00  0.00    +0.000 A 
ATOM     18  C   UNL     1       7.757   5.046  12.788  0.00  0.00    +0.000 A 
ATOM     19  C   UNL     1       7.659   5.174  14.178  0.00  0.00    +0.000 A 
ENDBRANCH  13  14
ENDBRANCH   3  13
BRANCH   6  20
ATOM     20  C   UNL     1       2.786   6.431  19.370  0.00  0.00    +0.000 C 
BRANCH  20  21
ATOM     21  C   UNL     1       2.150   7.768  19.759  0.00  0.00    +0.000 C 
BRANCH  21  22
ATOM     22  C   UNL     1       1.406   8.299  18.539  0.00  0.00    +0.000 C 
BRANCH  22  23
ATOM     23  N   UNL     1       2.013   9.480  17.961  0.00  0.00    +0.000 N 
ATOM     24  C   UNL     1       1.647  10.698  18.497  0.00  0.00    +0.000 C 
ATOM     25  O   UNL     1       0.819  10.796  19.396  0.00  0.00    +0.000 OA
ATOM     26  N   UNL     1       2.305  11.736  17.873  0.00  0.00    +0.000 N 
ATOM     27  H   UNL     1       2.989   9.415  17.708  0.00  0.00    +0.000 HD
ATOM     28  H   UNL     1       2.641  11.529  16.944  0.00  0.00    +0.000 HD
BRANCH  26  29
ATOM     29  C   UNL     1       2.204  13.092  18.242  0.00  0.00    +0.000 A 
ATOM     30  C   UNL     1       0.992  13.696  18.590  0.00  0.00    +0.000 A 
ATOM     31  C   UNL     1       0.935  15.053  18.896  0.00  0.00    +0.000 A 
ATOM     32  C   UNL     1       2.100  15.823  18.875  0.00  0.00    +0.000 A 
ATOM     33  C   UNL     1       3.327  15.238  18.557  0.00  0.00    +0.000 A 
ATOM     34  C   UNL     1       3.373  13.860  18.259  0.00  0.00    +0.000 A 
BRANCH  33  35
ATOM     35  C   UNL     1       4.610  16.004  18.503  0.00  0.00    +0.000 C 
ATOM     36  C   UNL     1       5.931  15.301  18.307  0.00  0.00    +0.000 C 
ATOM     37  O   UNL     1       4.583  17.227  18.639  0.00  0.00    +0.000 OA
ENDBRANCH  33  35
ENDBRANCH  26  29
ENDBRANCH  22  23
ENDBRANCH  21  22
ENDBRANCH  20  21
ENDBRANCH   6  20
TORSDOF 12
ENDMDL
