MODEL 1
REMARK VINA RESULT:      -7.4      0.000      0.000
REMARK  Name = 
REMARK  11 active torsions:
REMARK  status: ('A' for Active; 'I' for Inactive)
REMARK    1  A    between atoms: C_1  and  O_2
REMARK    2  A    between atoms: O_2  and  C_3
REMARK    3  A    between atoms: N_8  and  C_9
REMARK    4  A    between atoms: C_9  and  C_10
REMARK    5  A    between atoms: C_10  and  N_11
REMARK    6  A    between atoms: N_11  and  C_12
REMARK    7  A    between atoms: N_11  and  C_13
REMARK    8  A    between atoms: C_13  and  C_14
REMARK    9  A    between atoms: C_13  and  C_15
REMARK   10  A    between atoms: C_28  and  O_29
REMARK   11  A    between atoms: O_29  and  C_30
REMARK                            x       y       z     vdW  Elec       q    Type
REMARK                         _______ _______ _______ _____ _____    ______ ____
ROOT
ATOM      1  C   UNL     1       2.567   6.620  18.836  0.00  0.00    +0.000 A 
ATOM      2  C   UNL     1       2.343   7.914  18.341  0.00  0.00    +0.000 A 
ATOM      3  C   UNL     1       1.637   8.875  19.091  0.00  0.00    +0.000 A 
ATOM      4  C   UNL     1       1.384  10.215  18.519  0.00  0.00    +0.000 A 
ATOM      5  O   UNL     1       1.881  10.458  17.419  0.00  0.00    +0.000 OA
ATOM      6  N   UNL     1       0.592  11.141  19.239  0.00  0.00    +0.000 N 
ATOM      7  C   UNL     1       0.065  10.849  20.576  0.00  0.00    +0.000 A 
ATOM      8  C   UNL     1      -0.709  11.766  21.427  0.00  0.00    +0.000 A 
ATOM      9  C   UNL     1      -1.112  13.130  21.222  0.00  0.00    +0.000 A 
ATOM     10  C   UNL     1      -1.795  13.839  22.205  0.00  0.00    +0.000 A 
ATOM     11  C   UNL     1      -2.109  13.272  23.398  0.00  0.00    +0.000 A 
ATOM     12  C   UNL     1      -1.796  11.971  23.652  0.00  0.00    +0.000 A 
ATOM     13  C   UNL     1      -1.124  11.240  22.695  0.00  0.00    +0.000 A 
ATOM     14  N   UNL     1      -0.901  10.011  23.110  0.00  0.00    +0.000 NA
ATOM     15  C   UNL     1      -0.196   9.207  22.316  0.00  0.00    +0.000 A 
ATOM     16  C   UNL     1       0.348   9.551  21.082  0.00  0.00    +0.000 A 
ATOM     17  C   UNL     1       1.157   8.570  20.353  0.00  0.00    +0.000 A 
ATOM     18  C   UNL     1       1.488   7.299  20.872  0.00  0.00    +0.000 A 
ATOM     19  C   UNL     1       2.189   6.331  20.144  0.00  0.00    +0.000 A 
ATOM     20  O   UNL     1      -2.742  14.112  24.252  0.00  0.00    +0.000 OA
ATOM     21  C   UNL     1      -2.891  15.270  23.411  0.00  0.00    +0.000 C 
ATOM     22  O   UNL     1      -2.215  15.134  22.135  0.00  0.00    +0.000 OA
ENDROOT
BRANCH   1  24
ATOM     23  C   UNL     1       4.411   5.955  17.537  0.00  0.00    +0.000 C 
ATOM     24  O   UNL     1       3.129   5.630  18.075  0.00  0.00    +0.000 OA
ENDBRANCH   1  24
BRANCH  19  25
ATOM     25  O   UNL     1       2.331   5.159  20.836  0.00  0.00    +0.000 OA
ATOM     26  C   UNL     1       1.329   4.167  20.667  0.00  0.00    +0.000 C 
ENDBRANCH  19  25
BRANCH   6  27
ATOM     27  C   UNL     1       0.344  12.399  18.520  0.00  0.00    +0.000 C 
BRANCH  27  28
ATOM     28  C   UNL     1      -1.018  12.406  17.771  0.00  0.00    +0.000 C 
BRANCH  28  29
ATOM     29  N   UNL     1      -2.035  11.398  18.188  0.00  0.00    +0.000 NA
ATOM     30  C   UNL     1      -3.288  12.047  18.593  0.00  0.00    +0.000 C 
BRANCH  29  31
ATOM     31  C   UNL     1      -2.287  10.398  17.104  0.00  0.00    +0.000 C 
ATOM     32  C   UNL     1      -3.376   9.377  17.478  0.00  0.00    +0.000 C 
ATOM     33  C   UNL     1      -2.723  11.046  15.774  0.00  0.00    +0.000 C 
ENDBRANCH  29  31
ENDBRANCH  28  29
ENDBRANCH  27  28
ENDBRANCH   6  27
TORSDOF 6
ENDMDL
MODEL 2
REMARK VINA RESULT:      -7.2      1.790      3.060
REMARK  Name = 
REMARK  11 active torsions:
REMARK  status: ('A' for Active; 'I' for Inactive)
REMARK    1  A    between atoms: C_1  and  O_2
REMARK    2  A    between atoms: O_2  and  C_3
REMARK    3  A    between atoms: N_8  and  C_9
REMARK    4  A    between atoms: C_9  and  C_10
REMARK    5  A    between atoms: C_10  and  N_11
REMARK    6  A    between atoms: N_11  and  C_12
REMARK    7  A    between atoms: N_11  and  C_13
REMARK    8  A    between atoms: C_13  and  C_14
REMARK    9  A    between atoms: C_13  and  C_15
REMARK   10  A    between atoms: C_28  and  O_29
REMARK   11  A    between atoms: O_29  and  C_30
REMARK                            x       y       z     vdW  Elec       q    Type
REMARK                         _______ _______ _______ _____ _____    ______ ____
ROOT
ATOM      1  C   UNL     1       2.639   6.181  18.797  0.00  0.00    +0.000 A 
ATOM      2  C   UNL     1       2.592   7.500  18.320  0.00  0.00    +0.000 A 
ATOM      3  C   UNL     1       1.934   8.518  19.038  0.00  0.00    +0.000 A 
ATOM      4  C   UNL     1       1.869   9.887  18.484  0.00  0.00    +0.000 A 
ATOM      5  O   UNL     1       2.474  10.095  17.432  0.00  0.00    +0.000 OA
ATOM      6  N   UNL     1       1.124  10.880  19.165  0.00  0.00    +0.000 N 
ATOM      7  C   UNL     1       0.466  10.622  20.450  0.00  0.00    +0.000 A 
ATOM      8  C   UNL     1      -0.271  11.601  21.263  0.00  0.00    +0.000 A 
ATOM      9  C   UNL     1      -0.512  13.004  21.063  0.00  0.00    +0.000 A 
ATOM     10  C   UNL     1      -1.191  13.765  22.009  0.00  0.00    +0.000 A 
ATOM     11  C   UNL     1      -1.657  13.213  23.160  0.00  0.00    +0.000 A 
ATOM     12  C   UNL     1      -1.503  11.882  23.403  0.00  0.00    +0.000 A 
ATOM     13  C   UNL     1      -0.838  11.100  22.481  0.00  0.00    +0.000 A 
ATOM     14  N   UNL     1      -0.780   9.847  22.880  0.00  0.00    +0.000 NA
ATOM     15  C   UNL     1      -0.102   8.987  22.121  0.00  0.00    +0.000 A 
ATOM     16  C   UNL     1       0.570   9.292  20.942  0.00  0.00    +0.000 A 
ATOM     17  C   UNL     1       1.327   8.244  20.252  0.00  0.00    +0.000 A 
ATOM     18  C   UNL     1       1.481   6.935  20.761  0.00  0.00    +0.000 A 
ATOM     19  C   UNL     1       2.130   5.911  20.064  0.00  0.00    +0.000 A 
ATOM     20  O   UNL     1      -2.263  14.101  23.984  0.00  0.00    +0.000 OA
ATOM     21  C   UNL     1      -2.222  15.282  23.165  0.00  0.00    +0.000 C 
ATOM     22  O   UNL     1      -1.466  15.098  21.941  0.00  0.00    +0.000 OA
ENDROOT
BRANCH   1  24
ATOM     23  C   UNL     1       4.344   5.475  17.340  0.00  0.00    +0.000 C 
ATOM     24  O   UNL     1       3.152   5.150  18.056  0.00  0.00    +0.000 OA
ENDBRANCH   1  24
BRANCH  19  25
ATOM     25  O   UNL     1       2.093   4.719  20.734  0.00  0.00    +0.000 OA
ATOM     26  C   UNL     1       1.010   3.842  20.463  0.00  0.00    +0.000 C 
ENDBRANCH  19  25
BRANCH   6  27
ATOM     27  C   UNL     1       1.068  12.169  18.462  0.00  0.00    +0.000 C 
BRANCH  27  28
ATOM     28  C   UNL     1       2.281  13.085  18.785  0.00  0.00    +0.000 C 
BRANCH  28  29
ATOM     29  N   UNL     1       2.115  14.550  18.558  0.00  0.00    +0.000 NA
ATOM     30  C   UNL     1       2.044  15.277  19.831  0.00  0.00    +0.000 C 
BRANCH  29  31
ATOM     31  C   UNL     1       3.211  15.096  17.699  0.00  0.00    +0.000 C 
ATOM     32  C   UNL     1       3.175  16.630  17.593  0.00  0.00    +0.000 C 
ATOM     33  C   UNL     1       4.618  14.718  18.205  0.00  0.00    +0.000 C 
ENDBRANCH  29  31
ENDBRANCH  28  29
ENDBRANCH  27  28
ENDBRANCH   6  27
TORSDOF 6
ENDMDL
MODEL 3
REMARK VINA RESULT:      -7.0      1.605      2.801
REMARK  Name = 
REMARK  11 active torsions:
REMARK  status: ('A' for Active; 'I' for Inactive)
REMARK    1  A    between atoms: C_1  and  O_2
REMARK    2  A    between atoms: O_2  and  C_3
REMARK    3  A    between atoms: N_8  and  C_9
REMARK    4  A    between atoms: C_9  and  C_10
REMARK    5  A    between atoms: C_10  and  N_11
REMARK    6  A    between atoms: N_11  and  C_12
REMARK    7  A    between atoms: N_11  and  C_13
REMARK    8  A    between atoms: C_13  and  C_14
REMARK    9  A    between atoms: C_13  and  C_15
REMARK   10  A    between atoms: C_28  and  O_29
REMARK   11  A    between atoms: O_29  and  C_30
REMARK                            x       y       z     vdW  Elec       q    Type
REMARK                         _______ _______ _______ _____ _____    ______ ____
ROOT
ATOM      1  C   UNL     1       2.655   6.455  18.813  0.00  0.00    +0.000 A 
ATOM      2  C   UNL     1       2.488   7.760  18.324  0.00  0.00    +0.000 A 
ATOM      3  C   UNL     1       1.782   8.734  19.056  0.00  0.00    +0.000 A 
ATOM      4  C   UNL     1       1.591  10.086  18.490  0.00  0.00    +0.000 A 
ATOM      5  O   UNL     1       2.138  10.326  17.413  0.00  0.00    +0.000 OA
ATOM      6  N   UNL     1       0.798  11.029  19.189  0.00  0.00    +0.000 N 
ATOM      7  C   UNL     1       0.210  10.739  20.501  0.00  0.00    +0.000 A 
ATOM      8  C   UNL     1      -0.569  11.670  21.330  0.00  0.00    +0.000 A 
ATOM      9  C   UNL     1      -0.924  13.047  21.125  0.00  0.00    +0.000 A 
ATOM     10  C   UNL     1      -1.624  13.767  22.088  0.00  0.00    +0.000 A 
ATOM     11  C   UNL     1      -2.002  13.197  23.262  0.00  0.00    +0.000 A 
ATOM     12  C   UNL     1      -1.738  11.885  23.513  0.00  0.00    +0.000 A 
ATOM     13  C   UNL     1      -1.050  11.144  22.575  0.00  0.00    +0.000 A 
ATOM     14  N   UNL     1      -0.880   9.904  22.985  0.00  0.00    +0.000 NA
ATOM     15  C   UNL     1      -0.167   9.088  22.210  0.00  0.00    +0.000 A 
ATOM     16  C   UNL     1       0.434   9.428  21.003  0.00  0.00    +0.000 A 
ATOM     17  C   UNL     1       1.243   8.431  20.295  0.00  0.00    +0.000 A 
ATOM     18  C   UNL     1       1.516   7.146  20.813  0.00  0.00    +0.000 A 
ATOM     19  C   UNL     1       2.216   6.164  20.102  0.00  0.00    +0.000 A 
ATOM     20  O   UNL     1      -2.644  14.047  24.099  0.00  0.00    +0.000 OA
ATOM     21  C   UNL     1      -2.725  15.217  23.266  0.00  0.00    +0.000 C 
ATOM     22  O   UNL     1      -2.003  15.074  22.016  0.00  0.00    +0.000 OA
ENDROOT
BRANCH   1  24
ATOM     23  C   UNL     1       4.642   5.392  18.142  0.00  0.00    +0.000 C 
ATOM     24  O   UNL     1       3.218   5.456  18.064  0.00  0.00    +0.000 OA
ENDBRANCH   1  24
BRANCH  19  25
ATOM     25  O   UNL     1       2.296   4.982  20.786  0.00  0.00    +0.000 OA
ATOM     26  C   UNL     1       1.250   4.040  20.602  0.00  0.00    +0.000 C 
ENDBRANCH  19  25
BRANCH   6  27
ATOM     27  C   UNL     1       0.616  12.300  18.474  0.00  0.00    +0.000 C 
BRANCH  27  28
ATOM     28  C   UNL     1       1.867  13.220  18.554  0.00  0.00    +0.000 C 
BRANCH  28  29
ATOM     29  N   UNL     1       1.642  14.655  18.892  0.00  0.00    +0.000 NA
ATOM     30  C   UNL     1       0.244  15.039  18.667  0.00  0.00    +0.000 C 
BRANCH  29  31
ATOM     31  C   UNL     1       2.051  14.953  20.300  0.00  0.00    +0.000 C 
ATOM     32  C   UNL     1       2.937  13.852  20.908  0.00  0.00    +0.000 C 
ATOM     33  C   UNL     1       2.832  16.276  20.434  0.00  0.00    +0.000 C 
ENDBRANCH  29  31
ENDBRANCH  28  29
ENDBRANCH  27  28
ENDBRANCH   6  27
TORSDOF 6
ENDMDL
MODEL 4
REMARK VINA RESULT:      -6.8      1.644      3.110
REMARK  Name = 
REMARK  11 active torsions:
REMARK  status: ('A' for Active; 'I' for Inactive)
REMARK    1  A    between atoms: C_1  and  O_2
REMARK    2  A    between atoms: O_2  and  C_3
REMARK    3  A    between atoms: N_8  and  C_9
REMARK    4  A    between atoms: C_9  and  C_10
REMARK    5  A    between atoms: C_10  and  N_11
REMARK    6  A    between atoms: N_11  and  C_12
REMARK    7  A    between atoms: N_11  and  C_13
REMARK    8  A    between atoms: C_13  and  C_14
REMARK    9  A    between atoms: C_13  and  C_15
REMARK   10  A    between atoms: C_28  and  O_29
REMARK   11  A    between atoms: O_29  and  C_30
REMARK                            x       y       z     vdW  Elec       q    Type
REMARK                         _______ _______ _______ _____ _____    ______ ____
ROOT
ATOM      1  C   UNL     1       3.076   6.859  18.317  0.00  0.00    +0.000 A 
ATOM      2  C   UNL     1       2.792   8.180  17.935  0.00  0.00    +0.000 A 
ATOM      3  C   UNL     1       1.997   9.022  18.736  0.00  0.00    +0.000 A 
ATOM      4  C   UNL     1       1.684  10.393  18.281  0.00  0.00    +0.000 A 
ATOM      5  O   UNL     1       2.211  10.770  17.234  0.00  0.00    +0.000 OA
ATOM      6  N   UNL     1       0.806  11.198  19.046  0.00  0.00    +0.000 N 
ATOM      7  C   UNL     1       0.243  10.748  20.323  0.00  0.00    +0.000 A 
ATOM      8  C   UNL     1      -0.622  11.533  21.217  0.00  0.00    +0.000 A 
ATOM      9  C   UNL     1      -1.101  12.884  21.122  0.00  0.00    +0.000 A 
ATOM     10  C   UNL     1      -1.867  13.455  22.133  0.00  0.00    +0.000 A 
ATOM     11  C   UNL     1      -2.196  12.758  23.252  0.00  0.00    +0.000 A 
ATOM     12  C   UNL     1      -1.813  11.459  23.398  0.00  0.00    +0.000 A 
ATOM     13  C   UNL     1      -1.056  10.864  22.410  0.00  0.00    +0.000 A 
ATOM     14  N   UNL     1      -0.775   9.615  22.718  0.00  0.00    +0.000 NA
ATOM     15  C   UNL     1       0.012   8.934  21.887  0.00  0.00    +0.000 A 
ATOM     16  C   UNL     1       0.584   9.426  20.718  0.00  0.00    +0.000 A 
ATOM     17  C   UNL     1       1.484   8.570  19.940  0.00  0.00    +0.000 A 
ATOM     18  C   UNL     1       1.872   7.276  20.353  0.00  0.00    +0.000 A 
ATOM     19  C   UNL     1       2.661   6.424  19.572  0.00  0.00    +0.000 A 
ATOM     20  O   UNL     1      -2.915  13.474  24.149  0.00  0.00    +0.000 OA
ATOM     21  C   UNL     1      -3.101  14.696  23.414  0.00  0.00    +0.000 C 
ATOM     22  O   UNL     1      -2.364  14.723  22.165  0.00  0.00    +0.000 OA
ENDROOT
BRANCH   1  24
ATOM     23  C   UNL     1       5.154   6.072  17.549  0.00  0.00    +0.000 C 
ATOM     24  O   UNL     1       3.730   5.982  17.494  0.00  0.00    +0.000 OA
ENDBRANCH   1  24
BRANCH  19  25
ATOM     25  O   UNL     1       2.847   5.202  20.158  0.00  0.00    +0.000 OA
ATOM     26  C   UNL     1       1.776   4.666  20.921  0.00  0.00    +0.000 C 
ENDBRANCH  19  25
BRANCH   6  27
ATOM     27  C   UNL     1       0.511  12.503  18.436  0.00  0.00    +0.000 C 
BRANCH  27  28
ATOM     28  C   UNL     1       1.300  13.668  19.095  0.00  0.00    +0.000 C 
BRANCH  28  29
ATOM     29  N   UNL     1       2.737  13.428  19.417  0.00  0.00    +0.000 NA
ATOM     30  C   UNL     1       3.614  14.132  18.474  0.00  0.00    +0.000 C 
BRANCH  29  31
ATOM     31  C   UNL     1       3.053  13.820  20.825  0.00  0.00    +0.000 C 
ATOM     32  C   UNL     1       4.384  14.582  20.946  0.00  0.00    +0.000 C 
ATOM     33  C   UNL     1       1.969  14.715  21.460  0.00  0.00    +0.000 C 
ENDBRANCH  29  31
ENDBRANCH  28  29
ENDBRANCH  27  28
ENDBRANCH   6  27
TORSDOF 6
ENDMDL
MODEL 5
REMARK VINA RESULT:      -6.5      2.740      7.947
REMARK  Name = 
REMARK  11 active torsions:
REMARK  status: ('A' for Active; 'I' for Inactive)
REMARK    1  A    between atoms: C_1  and  O_2
REMARK    2  A    between atoms: O_2  and  C_3
REMARK    3  A    between atoms: N_8  and  C_9
REMARK    4  A    between atoms: C_9  and  C_10
REMARK    5  A    between atoms: C_10  and  N_11
REMARK    6  A    between atoms: N_11  and  C_12
REMARK    7  A    between atoms: N_11  and  C_13
REMARK    8  A    between atoms: C_13  and  C_14
REMARK    9  A    between atoms: C_13  and  C_15
REMARK   10  A    between atoms: C_28  and  O_29
REMARK   11  A    between atoms: O_29  and  C_30
REMARK                            x       y       z     vdW  Elec       q    Type
REMARK                         _______ _______ _______ _____ _____    ______ ____
ROOT
ATOM      1  C   UNL     1      -2.107  15.025  24.737  0.00  0.00    +0.000 A 
ATOM      2  C   UNL     1      -1.139  14.473  23.883  0.00  0.00    +0.000 A 
ATOM      3  C   UNL     1      -1.493  13.890  22.651  0.00  0.00    +0.000 A 
ATOM      4  C   UNL     1      -0.451  13.281  21.797  0.00  0.00    +0.000 A 
ATOM      5  O   UNL     1       0.716  13.384  22.177  0.00  0.00    +0.000 OA
ATOM      6  N   UNL     1      -0.828  12.612  20.607  0.00  0.00    +0.000 N 
ATOM      7  C   UNL     1      -2.219  12.560  20.145  0.00  0.00    +0.000 A 
ATOM      8  C   UNL     1      -2.698  11.949  18.896  0.00  0.00    +0.000 A 
ATOM      9  C   UNL     1      -1.987  11.304  17.826  0.00  0.00    +0.000 A 
ATOM     10  C   UNL     1      -2.646  10.850  16.688  0.00  0.00    +0.000 A 
ATOM     11  C   UNL     1      -3.988  10.995  16.542  0.00  0.00    +0.000 A 
ATOM     12  C   UNL     1      -4.737  11.560  17.530  0.00  0.00    +0.000 A 
ATOM     13  C   UNL     1      -4.113  12.015  18.672  0.00  0.00    +0.000 A 
ATOM     14  N   UNL     1      -4.986  12.532  19.512  0.00  0.00    +0.000 NA
ATOM     15  C   UNL     1      -4.517  13.079  20.633  0.00  0.00    +0.000 A 
ATOM     16  C   UNL     1      -3.178  13.170  20.998  0.00  0.00    +0.000 A 
ATOM     17  C   UNL     1      -2.815  13.861  22.239  0.00  0.00    +0.000 A 
ATOM     18  C   UNL     1      -3.755  14.517  23.064  0.00  0.00    +0.000 A 
ATOM     19  C   UNL     1      -3.424  15.103  24.291  0.00  0.00    +0.000 A 
ATOM     20  O   UNL     1      -4.462  10.529  15.361  0.00  0.00    +0.000 OA
ATOM     21  C   UNL     1      -3.261   9.965  14.806  0.00  0.00    +0.000 C 
ATOM     22  O   UNL     1      -2.083  10.241  15.607  0.00  0.00    +0.000 OA
ENDROOT
BRANCH   1  24
ATOM     23  C   UNL     1      -0.781  16.468  26.037  0.00  0.00    +0.000 C 
ATOM     24  O   UNL     1      -1.806  15.474  25.995  0.00  0.00    +0.000 OA
ENDBRANCH   1  24
BRANCH  19  25
ATOM     25  O   UNL     1      -4.515  15.618  24.935  0.00  0.00    +0.000 OA
ATOM     26  C   UNL     1      -5.543  16.189  24.139  0.00  0.00    +0.000 C 
ENDBRANCH  19  25
BRANCH   6  27
ATOM     27  C   UNL     1       0.294  11.977  19.901  0.00  0.00    +0.000 C 
BRANCH  27  28
ATOM     28  C   UNL     1       0.572  10.529  20.392  0.00  0.00    +0.000 C 
BRANCH  28  29
ATOM     29  N   UNL     1       0.945   9.515  19.364  0.00  0.00    +0.000 NA
ATOM     30  C   UNL     1       1.604  10.147  18.214  0.00  0.00    +0.000 C 
BRANCH  29  31
ATOM     31  C   UNL     1       1.812   8.443  19.945  0.00  0.00    +0.000 C 
ATOM     32  C   UNL     1       1.113   7.656  21.067  0.00  0.00    +0.000 C 
ATOM     33  C   UNL     1       2.276   7.410  18.899  0.00  0.00    +0.000 C 
ENDBRANCH  29  31
ENDBRANCH  28  29
ENDBRANCH  27  28
ENDBRANCH   6  27
TORSDOF 6
ENDMDL
MODEL 6
REMARK VINA RESULT:      -6.4      3.082      8.485
REMARK  Name = 
REMARK  11 active torsions:
REMARK  status: ('A' for Active; 'I' for Inactive)
REMARK    1  A    between atoms: C_1  and  O_2
REMARK    2  A    between atoms: O_2  and  C_3
REMARK    3  A    between atoms: N_8  and  C_9
REMARK    4  A    between atoms: C_9  and  C_10
REMARK    5  A    between atoms: C_10  and  N_11
REMARK    6  A    between atoms: N_11  and  C_12
REMARK    7  A    between atoms: N_11  and  C_13
REMARK    8  A    between atoms: C_13  and  C_14
REMARK    9  A    between atoms: C_13  and  C_15
REMARK   10  A    between atoms: C_28  and  O_29
REMARK   11  A    between atoms: O_29  and  C_30
REMARK                            x       y       z     vdW  Elec       q    Type
REMARK                         _______ _______ _______ _____ _____    ______ ____
ROOT
ATOM      1  C   UNL     1       0.758  11.974  20.415  0.00  0.00    +0.000 A 
ATOM      2  C   UNL     1       1.402  11.411  19.302  0.00  0.00    +0.000 A 
ATOM      3  C   UNL     1       1.651  10.027  19.220  0.00  0.00    +0.000 A 
ATOM      4  C   UNL     1       2.370   9.476  18.052  0.00  0.00    +0.000 A 
ATOM      5  O   UNL     1       2.655  10.261  17.147  0.00  0.00    +0.000 OA
ATOM      6  N   UNL     1       2.701   8.099  18.023  0.00  0.00    +0.000 N 
ATOM      7  C   UNL     1       2.294   7.173  19.085  0.00  0.00    +0.000 A 
ATOM      8  C   UNL     1       2.532   5.722  19.112  0.00  0.00    +0.000 A 
ATOM      9  C   UNL     1       3.158   4.849  18.158  0.00  0.00    +0.000 A 
ATOM     10  C   UNL     1       3.217   3.474  18.363  0.00  0.00    +0.000 A 
ATOM     11  C   UNL     1       2.688   2.900  19.474  0.00  0.00    +0.000 A 
ATOM     12  C   UNL     1       2.114   3.666  20.444  0.00  0.00    +0.000 A 
ATOM     13  C   UNL     1       2.045   5.032  20.272  0.00  0.00    +0.000 A 
ATOM     14  N   UNL     1       1.458   5.608  21.300  0.00  0.00    +0.000 NA
ATOM     15  C   UNL     1       1.256   6.923  21.241  0.00  0.00    +0.000 A 
ATOM     16  C   UNL     1       1.596   7.754  20.179  0.00  0.00    +0.000 A 
ATOM     17  C   UNL     1       1.249   9.177  20.237  0.00  0.00    +0.000 A 
ATOM     18  C   UNL     1       0.508   9.752  21.293  0.00  0.00    +0.000 A 
ATOM     19  C   UNL     1       0.250  11.123  21.393  0.00  0.00    +0.000 A 
ATOM     20  O   UNL     1       2.802   1.551  19.499  0.00  0.00    +0.000 OA
ATOM     21  C   UNL     1       3.572   1.336  18.302  0.00  0.00    +0.000 C 
ATOM     22  O   UNL     1       3.767   2.547  17.529  0.00  0.00    +0.000 OA
ENDROOT
BRANCH   1  24
ATOM     23  C   UNL     1       1.846  14.057  20.462  0.00  0.00    +0.000 C 
ATOM     24  O   UNL     1       0.625  13.327  20.580  0.00  0.00    +0.000 OA
ENDBRANCH   1  24
BRANCH  19  25
ATOM     25  O   UNL     1      -0.429  11.444  22.537  0.00  0.00    +0.000 OA
ATOM     26  C   UNL     1      -1.087  10.395  23.231  0.00  0.00    +0.000 C 
ENDBRANCH  19  25
BRANCH   6  27
ATOM     27  C   UNL     1       3.492   7.701  16.850  0.00  0.00    +0.000 C 
BRANCH  27  28
ATOM     28  C   UNL     1       5.019   7.669  17.135  0.00  0.00    +0.000 C 
BRANCH  28  29
ATOM     29  N   UNL     1       5.724   6.367  16.951  0.00  0.00    +0.000 NA
ATOM     30  C   UNL     1       5.573   5.875  15.576  0.00  0.00    +0.000 C 
BRANCH  29  31
ATOM     31  C   UNL     1       7.170   6.474  17.317  0.00  0.00    +0.000 C 
ATOM     32  C   UNL     1       7.641   7.931  17.462  0.00  0.00    +0.000 C 
ATOM     33  C   UNL     1       7.512   5.762  18.642  0.00  0.00    +0.000 C 
ENDBRANCH  29  31
ENDBRANCH  28  29
ENDBRANCH  27  28
ENDBRANCH   6  27
TORSDOF 6
ENDMDL
MODEL 7
REMARK VINA RESULT:      -6.4      2.152      7.613
REMARK  Name = 
REMARK  11 active torsions:
REMARK  status: ('A' for Active; 'I' for Inactive)
REMARK    1  A    between atoms: C_1  and  O_2
REMARK    2  A    between atoms: O_2  and  C_3
REMARK    3  A    between atoms: N_8  and  C_9
REMARK    4  A    between atoms: C_9  and  C_10
REMARK    5  A    between atoms: C_10  and  N_11
REMARK    6  A    between atoms: N_11  and  C_12
REMARK    7  A    between atoms: N_11  and  C_13
REMARK    8  A    between atoms: C_13  and  C_14
REMARK    9  A    between atoms: C_13  and  C_15
REMARK   10  A    between atoms: C_28  and  O_29
REMARK   11  A    between atoms: O_29  and  C_30
REMARK                            x       y       z     vdW  Elec       q    Type
REMARK                         _______ _______ _______ _____ _____    ______ ____
ROOT
ATOM      1  C   UNL     1      -2.882  14.404  22.790  0.00  0.00    +0.000 A 
ATOM      2  C   UNL     1      -2.202  14.389  21.562  0.00  0.00    +0.000 A 
ATOM      3  C   UNL     1      -1.469  13.262  21.142  0.00  0.00    +0.000 A 
ATOM      4  C   UNL     1      -0.732  13.298  19.861  0.00  0.00    +0.000 A 
ATOM      5  O   UNL     1      -0.860  14.308  19.168  0.00  0.00    +0.000 OA
ATOM      6  N   UNL     1       0.080  12.197  19.493  0.00  0.00    +0.000 N 
ATOM      7  C   UNL     1       0.165  10.980  20.306  0.00  0.00    +0.000 A 
ATOM      8  C   UNL     1       0.925   9.765  19.977  0.00  0.00    +0.000 A 
ATOM      9  C   UNL     1       1.719   9.430  18.827  0.00  0.00    +0.000 A 
ATOM     10  C   UNL     1       2.305   8.176  18.691  0.00  0.00    +0.000 A 
ATOM     11  C   UNL     1       2.153   7.216  19.641  0.00  0.00    +0.000 A 
ATOM     12  C   UNL     1       1.448   7.471  20.778  0.00  0.00    +0.000 A 
ATOM     13  C   UNL     1       0.859   8.707  20.944  0.00  0.00    +0.000 A 
ATOM     14  N   UNL     1       0.218   8.774  22.092  0.00  0.00    +0.000 NA
ATOM     15  C   UNL     1      -0.461   9.889  22.357  0.00  0.00    +0.000 A 
ATOM     16  C   UNL     1      -0.573  10.995  21.522  0.00  0.00    +0.000 A 
ATOM     17  C   UNL     1      -1.413  12.125  21.929  0.00  0.00    +0.000 A 
ATOM     18  C   UNL     1      -2.192  12.125  23.108  0.00  0.00    +0.000 A 
ATOM     19  C   UNL     1      -2.927  13.234  23.542  0.00  0.00    +0.000 A 
ATOM     20  O   UNL     1       2.761   6.044  19.335  0.00  0.00    +0.000 OA
ATOM     21  C   UNL     1       3.417   6.408  18.108  0.00  0.00    +0.000 C 
ATOM     22  O   UNL     1       3.063   7.737  17.647  0.00  0.00    +0.000 OA
ENDROOT
BRANCH   1  24
ATOM     23  C   UNL     1      -3.945  16.438  22.278  0.00  0.00    +0.000 C 
ATOM     24  O   UNL     1      -3.486  15.531  23.280  0.00  0.00    +0.000 OA
ENDBRANCH   1  24
BRANCH  19  25
ATOM     25  O   UNL     1      -3.545  13.013  24.743  0.00  0.00    +0.000 OA
ATOM     26  C   UNL     1      -4.833  12.415  24.722  0.00  0.00    +0.000 C 
ENDBRANCH  19  25
BRANCH   6  27
ATOM     27  C   UNL     1       0.826  12.400  18.243  0.00  0.00    +0.000 C 
BRANCH  27  28
ATOM     28  C   UNL     1       2.284  12.881  18.483  0.00  0.00    +0.000 C 
BRANCH  28  29
ATOM     29  N   UNL     1       2.477  14.293  18.922  0.00  0.00    +0.000 NA
ATOM     30  C   UNL     1       3.244  14.358  20.172  0.00  0.00    +0.000 C 
BRANCH  29  31
ATOM     31  C   UNL     1       3.135  15.111  17.856  0.00  0.00    +0.000 C 
ATOM     32  C   UNL     1       2.699  16.586  17.883  0.00  0.00    +0.000 C 
ATOM     33  C   UNL     1       4.674  15.100  17.951  0.00  0.00    +0.000 C 
ENDBRANCH  29  31
ENDBRANCH  28  29
ENDBRANCH  27  28
ENDBRANCH   6  27
TORSDOF 6
ENDMDL
MODEL 8
REMARK VINA RESULT:      -6.4      3.144      7.682
REMARK  Name = 
REMARK  11 active torsions:
REMARK  status: ('A' for Active; 'I' for Inactive)
REMARK    1  A    between atoms: C_1  and  O_2
REMARK    2  A    between atoms: O_2  and  C_3
REMARK    3  A    between atoms: N_8  and  C_9
REMARK    4  A    between atoms: C_9  and  C_10
REMARK    5  A    between atoms: C_10  and  N_11
REMARK    6  A    between atoms: N_11  and  C_12
REMARK    7  A    between atoms: N_11  and  C_13
REMARK    8  A    between atoms: C_13  and  C_14
REMARK    9  A    between atoms: C_13  and  C_15
REMARK   10  A    between atoms: C_28  and  O_29
REMARK   11  A    between atoms: O_29  and  C_30
REMARK                            x       y       z     vdW  Elec       q    Type
REMARK                         _______ _______ _______ _____ _____    ______ ____
ROOT
ATOM      1  C   UNL     1      -4.742  13.053  23.965  0.00  0.00    +0.000 A 
ATOM      2  C   UNL     1      -3.608  12.270  23.697  0.00  0.00    +0.000 A 
ATOM      3  C   UNL     1      -2.570  12.739  22.870  0.00  0.00    +0.000 A 
ATOM      4  C   UNL     1      -1.411  11.870  22.576  0.00  0.00    +0.000 A 
ATOM      5  O   UNL     1      -1.371  10.779  23.145  0.00  0.00    +0.000 OA
ATOM      6  N   UNL     1      -0.420  12.312  21.667  0.00  0.00    +0.000 N 
ATOM      7  C   UNL     1      -0.459  13.643  21.052  0.00  0.00    +0.000 A 
ATOM      8  C   UNL     1       0.553  14.216  20.151  0.00  0.00    +0.000 A 
ATOM      9  C   UNL     1       1.801  13.688  19.676  0.00  0.00    +0.000 A 
ATOM     10  C   UNL     1       2.647  14.442  18.869  0.00  0.00    +0.000 A 
ATOM     11  C   UNL     1       2.327  15.708  18.495  0.00  0.00    +0.000 A 
ATOM     12  C   UNL     1       1.142  16.263  18.872  0.00  0.00    +0.000 A 
ATOM     13  C   UNL     1       0.280  15.539  19.668  0.00  0.00    +0.000 A 
ATOM     14  N   UNL     1      -0.808  16.230  19.937  0.00  0.00    +0.000 NA
ATOM     15  C   UNL     1      -1.703  15.682  20.758  0.00  0.00    +0.000 A 
ATOM     16  C   UNL     1      -1.590  14.441  21.377  0.00  0.00    +0.000 A 
ATOM     17  C   UNL     1      -2.634  14.003  22.308  0.00  0.00    +0.000 A 
ATOM     18  C   UNL     1      -3.731  14.812  22.679  0.00  0.00    +0.000 A 
ATOM     19  C   UNL     1      -4.772  14.364  23.499  0.00  0.00    +0.000 A 
ATOM     20  O   UNL     1       3.276  16.310  17.739  0.00  0.00    +0.000 OA
ATOM     21  C   UNL     1       4.208  15.225  17.584  0.00  0.00    +0.000 C 
ATOM     22  O   UNL     1       3.857  14.059  18.371  0.00  0.00    +0.000 OA
ENDROOT
BRANCH   1  24
ATOM     23  C   UNL     1      -6.974  12.322  23.845  0.00  0.00    +0.000 C 
ATOM     24  O   UNL     1      -5.823  12.569  24.653  0.00  0.00    +0.000 OA
ENDBRANCH   1  24
BRANCH  19  25
ATOM     25  O   UNL     1      -5.751  15.307  23.661  0.00  0.00    +0.000 OA
ATOM     26  C   UNL     1      -6.396  15.795  22.495  0.00  0.00    +0.000 C 
ENDBRANCH  19  25
BRANCH   6  27
ATOM     27  C   UNL     1       0.628  11.317  21.397  0.00  0.00    +0.000 C 
BRANCH  27  28
ATOM     28  C   UNL     1       0.178  10.230  20.382  0.00  0.00    +0.000 C 
BRANCH  28  29
ATOM     29  N   UNL     1       0.123  10.616  18.942  0.00  0.00    +0.000 NA
ATOM     30  C   UNL     1       0.877   9.668  18.112  0.00  0.00    +0.000 C 
BRANCH  29  31
ATOM     31  C   UNL     1      -1.289  10.730  18.462  0.00  0.00    +0.000 C 
ATOM     32  C   UNL     1      -1.658  12.162  18.036  0.00  0.00    +0.000 C 
ATOM     33  C   UNL     1      -1.593   9.815  17.259  0.00  0.00    +0.000 C 
ENDBRANCH  29  31
ENDBRANCH  28  29
ENDBRANCH  27  28
ENDBRANCH   6  27
TORSDOF 6
ENDMDL
MODEL 9
REMARK VINA RESULT:      -6.3      2.665      8.775
REMARK  Name = 
REMARK  11 active torsions:
REMARK  status: ('A' for Active; 'I' for Inactive)
REMARK    1  A    between atoms: C_1  and  O_2
REMARK    2  A    between atoms: O_2  and  C_3
REMARK    3  A    between atoms: N_8  and  C_9
REMARK    4  A    between atoms: C_9  and  C_10
REMARK    5  A    between atoms: C_10  and  N_11
REMARK    6  A    between atoms: N_11  and  C_12
REMARK    7  A    between atoms: N_11  and  C_13
REMARK    8  A    between atoms: C_13  and  C_14
REMARK    9  A    between atoms: C_13  and  C_15
REMARK   10  A    between atoms: C_28  and  O_29
REMARK   11  A    between atoms: O_29  and  C_30
REMARK                            x       y       z     vdW  Elec       q    Type
REMARK                         _______ _______ _______ _____ _____    ______ ____
ROOT
ATOM      1  C   UNL     1      -1.212  11.359  20.416  0.00  0.00    +0.000 A 
ATOM      2  C   UNL     1      -0.776  10.180  21.041  0.00  0.00    +0.000 A 
ATOM      3  C   UNL     1       0.246   9.388  20.482  0.00  0.00    +0.000 A 
ATOM      4  C   UNL     1       0.650   8.131  21.147  0.00  0.00    +0.000 A 
ATOM      5  O   UNL     1       0.115   7.869  22.225  0.00  0.00    +0.000 OA
ATOM      6  N   UNL     1       1.609   7.293  20.529  0.00  0.00    +0.000 N 
ATOM      7  C   UNL     1       2.278   7.659  19.276  0.00  0.00    +0.000 A 
ATOM      8  C   UNL     1       3.330   6.889  18.594  0.00  0.00    +0.000 A 
ATOM      9  C   UNL     1       3.984   5.661  18.952  0.00  0.00    +0.000 A 
ATOM     10  C   UNL     1       5.016   5.138  18.179  0.00  0.00    +0.000 A 
ATOM     11  C   UNL     1       5.447   5.765  17.054  0.00  0.00    +0.000 A 
ATOM     12  C   UNL     1       4.849   6.913  16.628  0.00  0.00    +0.000 A 
ATOM     13  C   UNL     1       3.820   7.453  17.369  0.00  0.00    +0.000 A 
ATOM     14  N   UNL     1       3.367   8.558  16.814  0.00  0.00    +0.000 NA
ATOM     15  C   UNL     1       2.416   9.231  17.460  0.00  0.00    +0.000 A 
ATOM     16  C   UNL     1       1.859   8.882  18.686  0.00  0.00    +0.000 A 
ATOM     17  C   UNL     1       0.862   9.763  19.301  0.00  0.00    +0.000 A 
ATOM     18  C   UNL     1       0.481  11.006  18.749  0.00  0.00    +0.000 A 
ATOM     19  C   UNL     1      -0.530  11.809  19.288  0.00  0.00    +0.000 A 
ATOM     20  O   UNL     1       6.480   5.139  16.442  0.00  0.00    +0.000 OA
ATOM     21  C   UNL     1       6.592   3.963  17.263  0.00  0.00    +0.000 C 
ATOM     22  O   UNL     1       5.720   3.997  18.422  0.00  0.00    +0.000 OA
ENDROOT
BRANCH   1  24
ATOM     23  C   UNL     1      -2.310  12.287  22.277  0.00  0.00    +0.000 C 
ATOM     24  O   UNL     1      -2.291  12.072  20.866  0.00  0.00    +0.000 OA
ENDBRANCH   1  24
BRANCH  19  25
ATOM     25  O   UNL     1      -0.761  12.931  18.541  0.00  0.00    +0.000 OA
ATOM     26  C   UNL     1       0.122  14.030  18.710  0.00  0.00    +0.000 C 
ENDBRANCH  19  25
BRANCH   6  27
ATOM     27  C   UNL     1       1.853   6.035  21.249  0.00  0.00    +0.000 C 
BRANCH  27  28
ATOM     28  C   UNL     1       1.131   4.820  20.602  0.00  0.00    +0.000 C 
BRANCH  28  29
ATOM     29  N   UNL     1       1.879   3.532  20.538  0.00  0.00    +0.000 NA
ATOM     30  C   UNL     1       1.566   2.681  21.692  0.00  0.00    +0.000 C 
BRANCH  29  31
ATOM     31  C   UNL     1       1.605   2.806  19.258  0.00  0.00    +0.000 C 
ATOM     32  C   UNL     1       1.264   3.756  18.097  0.00  0.00    +0.000 C 
ATOM     33  C   UNL     1       2.792   1.939  18.790  0.00  0.00    +0.000 C 
ENDBRANCH  29  31
ENDBRANCH  28  29
ENDBRANCH  27  28
ENDBRANCH   6  27
TORSDOF 6
ENDMDL
