MODEL 1
REMARK VINA RESULT:      -8.1      0.000      0.000
REMARK  Name = 
REMARK  4 active torsions:
REMARK  status: ('A' for Active; 'I' for Inactive)
REMARK    1  A    between atoms: C_2  and  C_21
REMARK    2  A    between atoms: N_3  and  C_4
REMARK    3  A    between atoms: C_4  and  C_13
REMARK    4  A    between atoms: C_5  and  C_6
REMARK                            x       y       z     vdW  Elec       q    Type
REMARK                         _______ _______ _______ _____ _____    ______ ____
ROOT
ATOM      1  C   UNL     1       3.348   6.787  17.848  0.00  0.00    +0.000 C 
ATOM      2  C   UNL     1       2.725   7.981  17.896  0.00  0.00    +0.000 C 
ENDROOT
BRANCH   1   3
ATOM      3  C   UNL     1       4.359   6.566  16.733  0.00  0.00    +0.000 C 
ATOM      4  O   UNL     1       4.309   7.309  15.746  0.00  0.00    +0.000 OA
ATOM      5  N   UNL     1       5.269   5.518  16.782  0.00  0.00    +0.000 N 
ATOM      6  C   UNL     1       5.497   4.503  17.819  0.00  0.00    +0.000 C 
ATOM      7  C   UNL     1       6.941   4.610  18.324  0.00  0.00    +0.000 C 
ATOM      8  O   UNL     1       7.861   4.400  17.241  0.00  0.00    +0.000 OA
ATOM      9  C   UNL     1       7.666   5.382  16.208  0.00  0.00    +0.000 C 
ATOM     10  C   UNL     1       6.226   5.367  15.677  0.00  0.00    +0.000 C 
ENDBRANCH   1   3
BRANCH   2  11
ATOM     11  C   UNL     1       1.847   8.355  19.005  0.00  0.00    +0.000 A 
ATOM     12  C   UNL     1       0.991   9.461  18.882  0.00  0.00    +0.000 A 
ATOM     13  C   UNL     1       0.290   9.938  19.994  0.00  0.00    +0.000 A 
ATOM     14  C   UNL     1       0.451   9.306  21.226  0.00  0.00    +0.000 A 
ATOM     15 BR   UNL     1      -0.415  10.007  22.755  0.00  0.00    +0.000 Br
ATOM     16  C   UNL     1       1.271   8.186  21.354  0.00  0.00    +0.000 A 
ATOM     17  C   UNL     1       1.970   7.711  20.241  0.00  0.00    +0.000 A 
ENDBRANCH   2  11
BRANCH   1  20
ATOM     18  O   UNL     1       1.621   4.622  17.517  0.00  0.00    +0.000 OA
ATOM     19  C   UNL     1       2.218   4.787  18.577  0.00  0.00    +0.000 C 
ATOM     20  N   UNL     1       3.108   5.824  18.801  0.00  0.00    +0.000 N 
ATOM     21  H   UNL     1       3.883   5.555  19.397  0.00  0.00    +0.000 HD
BRANCH  19  22
ATOM     22  C   UNL     1       2.051   3.911  19.720  0.00  0.00    +0.000 A 
ATOM     23  C   UNL     1       0.950   3.662  20.517  0.00  0.00    +0.000 A 
ATOM     24  C   UNL     1       1.391   2.832  21.575  0.00  0.00    +0.000 A 
ATOM     25  C   UNL     1       2.730   2.607  21.353  0.00  0.00    +0.000 A 
ATOM     26  O   UNL     1       3.136   3.235  20.220  0.00  0.00    +0.000 OA
ENDBRANCH  19  22
ENDBRANCH   1  20
TORSDOF 4
ENDMDL
MODEL 2
REMARK VINA RESULT:      -7.9      3.042      6.069
REMARK  Name = 
REMARK  4 active torsions:
REMARK  status: ('A' for Active; 'I' for Inactive)
REMARK    1  A    between atoms: C_2  and  C_21
REMARK    2  A    between atoms: N_3  and  C_4
REMARK    3  A    between atoms: C_4  and  C_13
REMARK    4  A    between atoms: C_5  and  C_6
REMARK                            x       y       z     vdW  Elec       q    Type
REMARK                         _______ _______ _______ _____ _____    ______ ____
ROOT
ATOM      1  C   UNL     1       5.106   4.779  18.588  0.00  0.00    +0.000 C 
ATOM      2  C   UNL     1       6.446   4.847  18.464  0.00  0.00    +0.000 C 
ENDROOT
BRANCH   1   3
ATOM      3  C   UNL     1       4.502   3.437  18.970  0.00  0.00    +0.000 C 
ATOM      4  O   UNL     1       5.097   2.747  19.805  0.00  0.00    +0.000 OA
ATOM      5  N   UNL     1       3.352   2.961  18.352  0.00  0.00    +0.000 N 
ATOM      6  C   UNL     1       2.499   3.576  17.326  0.00  0.00    +0.000 C 
ATOM      7  C   UNL     1       1.075   3.723  17.875  0.00  0.00    +0.000 C 
ATOM      8  O   UNL     1       0.544   2.435  18.228  0.00  0.00    +0.000 OA
ATOM      9  C   UNL     1       1.358   1.806  19.234  0.00  0.00    +0.000 C 
ATOM     10  C   UNL     1       2.815   1.661  18.775  0.00  0.00    +0.000 C 
ENDBRANCH   1   3
BRANCH   2  11
ATOM     11  C   UNL     1       7.143   6.115  18.245  0.00  0.00    +0.000 A 
ATOM     12  C   UNL     1       8.140   6.533  19.141  0.00  0.00    +0.000 A 
ATOM     13  C   UNL     1       8.677   7.821  19.048  0.00  0.00    +0.000 A 
ATOM     14  C   UNL     1       8.212   8.686  18.059  0.00  0.00    +0.000 A 
ATOM     15 BR   UNL     1       8.861  10.462  17.990  0.00  0.00    +0.000 Br
ATOM     16  C   UNL     1       7.247   8.271  17.142  0.00  0.00    +0.000 A 
ATOM     17  C   UNL     1       6.712   6.984  17.236  0.00  0.00    +0.000 A 
ENDBRANCH   2  11
BRANCH   1  20
ATOM     18  O   UNL     1       3.128   5.619  20.366  0.00  0.00    +0.000 OA
ATOM     19  C   UNL     1       3.340   6.243  19.332  0.00  0.00    +0.000 C 
ATOM     20  N   UNL     1       4.322   5.898  18.417  0.00  0.00    +0.000 N 
ATOM     21  H   UNL     1       4.751   6.705  17.978  0.00  0.00    +0.000 HD
BRANCH  19  22
ATOM     22  C   UNL     1       2.579   7.415  18.947  0.00  0.00    +0.000 A 
ATOM     23  C   UNL     1       2.547   8.125  17.763  0.00  0.00    +0.000 A 
ATOM     24  C   UNL     1       1.737   9.264  17.990  0.00  0.00    +0.000 A 
ATOM     25  C   UNL     1       1.307   9.173  19.293  0.00  0.00    +0.000 A 
ATOM     26  O   UNL     1       1.790   8.046  19.876  0.00  0.00    +0.000 OA
ENDBRANCH  19  22
ENDBRANCH   1  20
TORSDOF 4
ENDMDL
MODEL 3
REMARK VINA RESULT:      -7.8      3.405      6.944
REMARK  Name = 
REMARK  4 active torsions:
REMARK  status: ('A' for Active; 'I' for Inactive)
REMARK    1  A    between atoms: C_2  and  C_21
REMARK    2  A    between atoms: N_3  and  C_4
REMARK    3  A    between atoms: C_4  and  C_13
REMARK    4  A    between atoms: C_5  and  C_6
REMARK                            x       y       z     vdW  Elec       q    Type
REMARK                         _______ _______ _______ _____ _____    ______ ____
ROOT
ATOM      1  C   UNL     1       4.917   4.264  17.377  0.00  0.00    +0.000 C 
ATOM      2  C   UNL     1       5.405   5.024  18.377  0.00  0.00    +0.000 C 
ENDROOT
BRANCH   1   3
ATOM      3  C   UNL     1       3.855   3.235  17.729  0.00  0.00    +0.000 C 
ATOM      4  O   UNL     1       4.090   2.047  17.482  0.00  0.00    +0.000 OA
ATOM      5  N   UNL     1       2.625   3.617  18.251  0.00  0.00    +0.000 N 
ATOM      6  C   UNL     1       2.110   4.949  18.598  0.00  0.00    +0.000 C 
ATOM      7  C   UNL     1       1.754   4.979  20.090  0.00  0.00    +0.000 C 
ATOM      8  O   UNL     1       0.753   3.990  20.380  0.00  0.00    +0.000 OA
ATOM      9  C   UNL     1       1.228   2.672  20.053  0.00  0.00    +0.000 C 
ATOM     10  C   UNL     1       1.647   2.571  18.580  0.00  0.00    +0.000 C 
ENDBRANCH   1   3
BRANCH   2  11
ATOM     11  C   UNL     1       6.319   6.141  18.131  0.00  0.00    +0.000 A 
ATOM     12  C   UNL     1       7.562   6.186  18.780  0.00  0.00    +0.000 A 
ATOM     13  C   UNL     1       8.358   7.334  18.699  0.00  0.00    +0.000 A 
ATOM     14  C   UNL     1       7.904   8.431  17.969  0.00  0.00    +0.000 A 
ATOM     15 BR   UNL     1       8.928  10.021  17.938  0.00  0.00    +0.000 Br
ATOM     16  C   UNL     1       6.685   8.385  17.292  0.00  0.00    +0.000 A 
ATOM     17  C   UNL     1       5.892   7.237  17.374  0.00  0.00    +0.000 A 
ENDBRANCH   2  11
BRANCH   1  20
ATOM     18  O   UNL     1       7.495   3.739  16.451  0.00  0.00    +0.000 OA
ATOM     19  C   UNL     1       6.641   4.189  15.693  0.00  0.00    +0.000 C 
ATOM     20  N   UNL     1       5.336   4.449  16.079  0.00  0.00    +0.000 N 
ATOM     21  H   UNL     1       4.664   4.266  15.341  0.00  0.00    +0.000 HD
BRANCH  19  22
ATOM     22  C   UNL     1       6.907   4.504  14.304  0.00  0.00    +0.000 A 
ATOM     23  C   UNL     1       6.447   3.920  13.139  0.00  0.00    +0.000 A 
ATOM     24  C   UNL     1       7.141   4.537  12.071  0.00  0.00    +0.000 A 
ATOM     25  C   UNL     1       7.971   5.473  12.643  0.00  0.00    +0.000 A 
ATOM     26  O   UNL     1       7.820   5.480  13.993  0.00  0.00    +0.000 OA
ENDBRANCH  19  22
ENDBRANCH   1  20
TORSDOF 4
ENDMDL
MODEL 4
REMARK VINA RESULT:      -7.6      5.479      9.204
REMARK  Name = 
REMARK  4 active torsions:
REMARK  status: ('A' for Active; 'I' for Inactive)
REMARK    1  A    between atoms: C_2  and  C_21
REMARK    2  A    between atoms: N_3  and  C_4
REMARK    3  A    between atoms: C_4  and  C_13
REMARK    4  A    between atoms: C_5  and  C_6
REMARK                            x       y       z     vdW  Elec       q    Type
REMARK                         _______ _______ _______ _____ _____    ______ ____
ROOT
ATOM      1  C   UNL     1      -0.030  11.182  20.804  0.00  0.00    +0.000 C 
ATOM      2  C   UNL     1       1.024  10.391  21.086  0.00  0.00    +0.000 C 
ENDROOT
BRANCH   1   3
ATOM      3  C   UNL     1      -0.148  12.493  21.565  0.00  0.00    +0.000 C 
ATOM      4  O   UNL     1       0.648  13.398  21.293  0.00  0.00    +0.000 OA
ATOM      5  N   UNL     1      -1.076  12.654  22.586  0.00  0.00    +0.000 N 
ATOM      6  C   UNL     1      -2.093  11.727  23.103  0.00  0.00    +0.000 C 
ATOM      7  C   UNL     1      -3.481  12.360  22.944  0.00  0.00    +0.000 C 
ATOM      8  O   UNL     1      -3.548  13.596  23.672  0.00  0.00    +0.000 OA
ATOM      9  C   UNL     1      -2.565  14.528  23.187  0.00  0.00    +0.000 C 
ATOM     10  C   UNL     1      -1.146  13.950  23.274  0.00  0.00    +0.000 C 
ENDBRANCH   1   3
BRANCH   2  11
ATOM     11  C   UNL     1       1.316   9.181  20.315  0.00  0.00    +0.000 A 
ATOM     12  C   UNL     1       1.395   7.938  20.962  0.00  0.00    +0.000 A 
ATOM     13  C   UNL     1       1.856   6.812  20.272  0.00  0.00    +0.000 A 
ATOM     14  C   UNL     1       2.239   6.937  18.938  0.00  0.00    +0.000 A 
ATOM     15 BR   UNL     1       2.957   5.442  18.029  0.00  0.00    +0.000 Br
ATOM     16  C   UNL     1       2.133   8.159  18.275  0.00  0.00    +0.000 A 
ATOM     17  C   UNL     1       1.671   9.283  18.965  0.00  0.00    +0.000 A 
ENDBRANCH   2  11
BRANCH   1  20
ATOM     18  O   UNL     1      -0.300  12.468  18.344  0.00  0.00    +0.000 OA
ATOM     19  C   UNL     1      -1.033  11.529  18.640  0.00  0.00    +0.000 C 
ATOM     20  N   UNL     1      -0.939  10.830  19.832  0.00  0.00    +0.000 N 
ATOM     21  H   UNL     1      -1.150   9.844  19.727  0.00  0.00    +0.000 HD
BRANCH  19  22
ATOM     22  C   UNL     1      -2.089  11.050  17.771  0.00  0.00    +0.000 A 
ATOM     23  C   UNL     1      -2.121   9.992  16.883  0.00  0.00    +0.000 A 
ATOM     24  C   UNL     1      -3.355  10.072  16.195  0.00  0.00    +0.000 A 
ATOM     25  C   UNL     1      -4.013  11.162  16.714  0.00  0.00    +0.000 A 
ATOM     26  O   UNL     1      -3.267  11.749  17.687  0.00  0.00    +0.000 OA
ENDBRANCH  19  22
ENDBRANCH   1  20
TORSDOF 4
ENDMDL
MODEL 5
REMARK VINA RESULT:      -7.4      0.289      1.009
REMARK  Name = 
REMARK  4 active torsions:
REMARK  status: ('A' for Active; 'I' for Inactive)
REMARK    1  A    between atoms: C_2  and  C_21
REMARK    2  A    between atoms: N_3  and  C_4
REMARK    3  A    between atoms: C_4  and  C_13
REMARK    4  A    between atoms: C_5  and  C_6
REMARK                            x       y       z     vdW  Elec       q    Type
REMARK                         _______ _______ _______ _____ _____    ______ ____
ROOT
ATOM      1  C   UNL     1       3.468   6.786  17.740  0.00  0.00    +0.000 C 
ATOM      2  C   UNL     1       2.941   8.022  17.836  0.00  0.00    +0.000 C 
ENDROOT
BRANCH   1   3
ATOM      3  C   UNL     1       4.370   6.496  16.551  0.00  0.00    +0.000 C 
ATOM      4  O   UNL     1       4.234   7.186  15.535  0.00  0.00    +0.000 OA
ATOM      5  N   UNL     1       5.276   5.443  16.572  0.00  0.00    +0.000 N 
ATOM      6  C   UNL     1       5.592   4.481  17.637  0.00  0.00    +0.000 C 
ATOM      7  C   UNL     1       7.078   4.600  18.001  0.00  0.00    +0.000 C 
ATOM      8  O   UNL     1       7.893   4.324  16.850  0.00  0.00    +0.000 OA
ATOM      9  C   UNL     1       7.609   5.253  15.789  0.00  0.00    +0.000 C 
ATOM     10  C   UNL     1       6.126   5.225  15.394  0.00  0.00    +0.000 C 
ENDBRANCH   1   3
BRANCH   2  11
ATOM     11  C   UNL     1       2.180   8.454  19.010  0.00  0.00    +0.000 A 
ATOM     12  C   UNL     1       2.174   7.667  20.172  0.00  0.00    +0.000 A 
ATOM     13  C   UNL     1       1.306   7.972  21.226  0.00  0.00    +0.000 A 
ATOM     14  C   UNL     1       0.447   9.064  21.110  0.00  0.00    +0.000 A 
ATOM     15 BR   UNL     1      -0.798   9.422  22.488  0.00  0.00    +0.000 Br
ATOM     16  C   UNL     1       0.469   9.874  19.975  0.00  0.00    +0.000 A 
ATOM     17  C   UNL     1       1.337   9.567  18.923  0.00  0.00    +0.000 A 
ENDBRANCH   2  11
BRANCH   1  20
ATOM     18  O   UNL     1       1.633   4.698  17.504  0.00  0.00    +0.000 OA
ATOM     19  C   UNL     1       2.286   4.840  18.534  0.00  0.00    +0.000 C 
ATOM     20  N   UNL     1       3.230   5.838  18.710  0.00  0.00    +0.000 N 
ATOM     21  H   UNL     1       4.020   5.537  19.271  0.00  0.00    +0.000 HD
BRANCH  19  22
ATOM     22  C   UNL     1       2.135   3.977  19.688  0.00  0.00    +0.000 A 
ATOM     23  C   UNL     1       1.093   3.839  20.585  0.00  0.00    +0.000 A 
ATOM     24  C   UNL     1       1.540   2.957  21.598  0.00  0.00    +0.000 A 
ATOM     25  C   UNL     1       2.821   2.594  21.252  0.00  0.00    +0.000 A 
ATOM     26  O   UNL     1       3.184   3.186  20.085  0.00  0.00    +0.000 OA
ENDBRANCH  19  22
ENDBRANCH   1  20
TORSDOF 4
ENDMDL
MODEL 6
REMARK VINA RESULT:      -7.4      3.159      6.589
REMARK  Name = 
REMARK  4 active torsions:
REMARK  status: ('A' for Active; 'I' for Inactive)
REMARK    1  A    between atoms: C_2  and  C_21
REMARK    2  A    between atoms: N_3  and  C_4
REMARK    3  A    between atoms: C_4  and  C_13
REMARK    4  A    between atoms: C_5  and  C_6
REMARK                            x       y       z     vdW  Elec       q    Type
REMARK                         _______ _______ _______ _____ _____    ______ ____
ROOT
ATOM      1  C   UNL     1       2.466   7.207  18.386  0.00  0.00    +0.000 C 
ATOM      2  C   UNL     1       1.613   6.171  18.257  0.00  0.00    +0.000 C 
ENDROOT
BRANCH   1   3
ATOM      3  C   UNL     1       1.883   8.610  18.322  0.00  0.00    +0.000 C 
ATOM      4  O   UNL     1       1.894   9.196  17.234  0.00  0.00    +0.000 OA
ATOM      5  N   UNL     1       1.412   9.248  19.462  0.00  0.00    +0.000 N 
ATOM      6  C   UNL     1       1.324   8.774  20.850  0.00  0.00    +0.000 C 
ATOM      7  C   UNL     1      -0.142   8.808  21.303  0.00  0.00    +0.000 C 
ATOM      8  O   UNL     1      -0.654  10.148  21.223  0.00  0.00    +0.000 OA
ATOM      9  C   UNL     1      -0.584  10.641  19.873  0.00  0.00    +0.000 C 
ATOM     10  C   UNL     1       0.851  10.599  19.330  0.00  0.00    +0.000 C 
ENDBRANCH   1   3
BRANCH   2  11
ATOM     11  C   UNL     1       2.040   4.784  18.448  0.00  0.00    +0.000 A 
ATOM     12  C   UNL     1       2.248   4.286  19.744  0.00  0.00    +0.000 A 
ATOM     13  C   UNL     1       2.834   3.029  19.930  0.00  0.00    +0.000 A 
ATOM     14  C   UNL     1       3.209   2.278  18.818  0.00  0.00    +0.000 A 
ATOM     15 BR   UNL     1       4.091   0.623  19.063  0.00  0.00    +0.000 Br
ATOM     16  C   UNL     1       2.976   2.747  17.526  0.00  0.00    +0.000 A 
ATOM     17  C   UNL     1       2.391   4.003  17.342  0.00  0.00    +0.000 A 
ENDBRANCH   2  11
BRANCH   1  20
ATOM     18  O   UNL     1       4.381   6.883  16.384  0.00  0.00    +0.000 OA
ATOM     19  C   UNL     1       4.700   6.820  17.568  0.00  0.00    +0.000 C 
ATOM     20  N   UNL     1       3.807   6.995  18.612  0.00  0.00    +0.000 N 
ATOM     21  H   UNL     1       4.224   7.459  19.412  0.00  0.00    +0.000 HD
BRANCH  19  22
ATOM     22  C   UNL     1       6.055   6.547  18.006  0.00  0.00    +0.000 A 
ATOM     23  C   UNL     1       6.569   5.518  18.770  0.00  0.00    +0.000 A 
ATOM     24  C   UNL     1       7.929   5.827  19.011  0.00  0.00    +0.000 A 
ATOM     25  C   UNL     1       8.171   7.017  18.365  0.00  0.00    +0.000 A 
ATOM     26  O   UNL     1       7.051   7.451  17.731  0.00  0.00    +0.000 OA
ENDBRANCH  19  22
ENDBRANCH   1  20
TORSDOF 4
ENDMDL
MODEL 7
REMARK VINA RESULT:      -7.3      2.139      4.542
REMARK  Name = 
REMARK  4 active torsions:
REMARK  status: ('A' for Active; 'I' for Inactive)
REMARK    1  A    between atoms: C_2  and  C_21
REMARK    2  A    between atoms: N_3  and  C_4
REMARK    3  A    between atoms: C_4  and  C_13
REMARK    4  A    between atoms: C_5  and  C_6
REMARK                            x       y       z     vdW  Elec       q    Type
REMARK                         _______ _______ _______ _____ _____    ______ ____
ROOT
ATOM      1  C   UNL     1       2.559   5.891  18.367  0.00  0.00    +0.000 C 
ATOM      2  C   UNL     1       1.521   6.724  18.575  0.00  0.00    +0.000 C 
ENDROOT
BRANCH   1   3
ATOM      3  C   UNL     1       2.242   4.437  18.050  0.00  0.00    +0.000 C 
ATOM      4  O   UNL     1       1.536   4.196  17.065  0.00  0.00    +0.000 OA
ATOM      5  N   UNL     1       2.672   3.408  18.879  0.00  0.00    +0.000 N 
ATOM      6  C   UNL     1       3.485   3.448  20.103  0.00  0.00    +0.000 C 
ATOM      7  C   UNL     1       4.756   2.616  19.892  0.00  0.00    +0.000 C 
ATOM      8  O   UNL     1       4.412   1.254  19.592  0.00  0.00    +0.000 OA
ATOM      9  C   UNL     1       3.617   1.181  18.395  0.00  0.00    +0.000 C 
ATOM     10  C   UNL     1       2.341   2.026  18.511  0.00  0.00    +0.000 C 
ENDBRANCH   1   3
BRANCH   2  11
ATOM     11  C   UNL     1       1.703   8.167  18.742  0.00  0.00    +0.000 A 
ATOM     12  C   UNL     1       1.305   8.792  19.934  0.00  0.00    +0.000 A 
ATOM     13  C   UNL     1       1.300  10.187  20.030  0.00  0.00    +0.000 A 
ATOM     14  C   UNL     1       1.691  10.950  18.932  0.00  0.00    +0.000 A 
ATOM     15 BR   UNL     1       1.591  12.837  19.022  0.00  0.00    +0.000 Br
ATOM     16  C   UNL     1       2.121  10.340  17.754  0.00  0.00    +0.000 A 
ATOM     17  C   UNL     1       2.126   8.946  17.660  0.00  0.00    +0.000 A 
ENDBRANCH   2  11
BRANCH   1  20
ATOM     18  O   UNL     1       4.520   5.244  16.492  0.00  0.00    +0.000 OA
ATOM     19  C   UNL     1       4.785   5.973  17.443  0.00  0.00    +0.000 C 
ATOM     20  N   UNL     1       3.855   6.354  18.397  0.00  0.00    +0.000 N 
ATOM     21  H   UNL     1       4.004   7.298  18.736  0.00  0.00    +0.000 HD
BRANCH  19  22
ATOM     22  C   UNL     1       6.109   6.513  17.679  0.00  0.00    +0.000 A 
ATOM     23  C   UNL     1       7.110   6.112  18.541  0.00  0.00    +0.000 A 
ATOM     24  C   UNL     1       8.134   7.086  18.461  0.00  0.00    +0.000 A 
ATOM     25  C   UNL     1       7.707   8.016  17.542  0.00  0.00    +0.000 A 
ATOM     26  O   UNL     1       6.492   7.668  17.043  0.00  0.00    +0.000 OA
ENDBRANCH  19  22
ENDBRANCH   1  20
TORSDOF 4
ENDMDL
MODEL 8
REMARK VINA RESULT:      -7.3      5.767      8.584
REMARK  Name = 
REMARK  4 active torsions:
REMARK  status: ('A' for Active; 'I' for Inactive)
REMARK    1  A    between atoms: C_2  and  C_21
REMARK    2  A    between atoms: N_3  and  C_4
REMARK    3  A    between atoms: C_4  and  C_13
REMARK    4  A    between atoms: C_5  and  C_6
REMARK                            x       y       z     vdW  Elec       q    Type
REMARK                         _______ _______ _______ _____ _____    ______ ____
ROOT
ATOM      1  C   UNL     1       0.250  12.575  18.868  0.00  0.00    +0.000 C 
ATOM      2  C   UNL     1       1.121  11.844  19.591  0.00  0.00    +0.000 C 
ENDROOT
BRANCH   1   3
ATOM      3  C   UNL     1       0.225  14.077  19.105  0.00  0.00    +0.000 C 
ATOM      4  O   UNL     1      -0.800  14.574  19.583  0.00  0.00    +0.000 OA
ATOM      5  N   UNL     1       1.294  14.883  18.732  0.00  0.00    +0.000 N 
ATOM      6  C   UNL     1       2.586  14.532  18.128  0.00  0.00    +0.000 C 
ATOM      7  C   UNL     1       3.718  14.985  19.058  0.00  0.00    +0.000 C 
ATOM      8  O   UNL     1       3.656  16.406  19.259  0.00  0.00    +0.000 OA
ATOM      9  C   UNL     1       2.401  16.783  19.853  0.00  0.00    +0.000 C 
ATOM     10  C   UNL     1       1.211  16.325  18.999  0.00  0.00    +0.000 C 
ENDBRANCH   1   3
BRANCH   2  11
ATOM     11  C   UNL     1       1.333  10.417  19.343  0.00  0.00    +0.000 A 
ATOM     12  C   UNL     1       1.183   9.493  20.388  0.00  0.00    +0.000 A 
ATOM     13  C   UNL     1       1.564   8.159  20.210  0.00  0.00    +0.000 A 
ATOM     14  C   UNL     1       2.096   7.757  18.986  0.00  0.00    +0.000 A 
ATOM     15 BR   UNL     1       2.706   5.980  18.770  0.00  0.00    +0.000 Br
ATOM     16  C   UNL     1       2.218   8.659  17.929  0.00  0.00    +0.000 A 
ATOM     17  C   UNL     1       1.837   9.991  18.109  0.00  0.00    +0.000 A 
ENDBRANCH   2  11
BRANCH   1  20
ATOM     18  O   UNL     1      -2.390  11.784  19.296  0.00  0.00    +0.000 OA
ATOM     19  C   UNL     1      -1.852  11.594  18.209  0.00  0.00    +0.000 C 
ATOM     20  N   UNL     1      -0.554  11.983  17.920  0.00  0.00    +0.000 N 
ATOM     21  H   UNL     1      -0.439  12.284  16.958  0.00  0.00    +0.000 HD
BRANCH  19  22
ATOM     22  C   UNL     1      -2.517  10.933  17.104  0.00  0.00    +0.000 A 
ATOM     23  C   UNL     1      -3.086   9.678  17.010  0.00  0.00    +0.000 A 
ATOM     24  C   UNL     1      -3.462   9.500  15.657  0.00  0.00    +0.000 A 
ATOM     25  C   UNL     1      -3.117  10.662  15.008  0.00  0.00    +0.000 A 
ATOM     26  O   UNL     1      -2.566  11.548  15.878  0.00  0.00    +0.000 OA
ENDBRANCH  19  22
ENDBRANCH   1  20
TORSDOF 4
ENDMDL
MODEL 9
REMARK VINA RESULT:      -7.3      6.020      9.540
REMARK  Name = 
REMARK  4 active torsions:
REMARK  status: ('A' for Active; 'I' for Inactive)
REMARK    1  A    between atoms: C_2  and  C_21
REMARK    2  A    between atoms: N_3  and  C_4
REMARK    3  A    between atoms: C_4  and  C_13
REMARK    4  A    between atoms: C_5  and  C_6
REMARK                            x       y       z     vdW  Elec       q    Type
REMARK                         _______ _______ _______ _____ _____    ______ ____
ROOT
ATOM      1  C   UNL     1      -0.269  12.672  19.042  0.00  0.00    +0.000 C 
ATOM      2  C   UNL     1       0.617  11.982  19.786  0.00  0.00    +0.000 C 
ENDROOT
BRANCH   1   3
ATOM      3  C   UNL     1      -0.467  14.144  19.369  0.00  0.00    +0.000 C 
ATOM      4  O   UNL     1      -0.007  14.982  18.585  0.00  0.00    +0.000 OA
ATOM      5  N   UNL     1      -1.084  14.544  20.548  0.00  0.00    +0.000 N 
ATOM      6  C   UNL     1      -1.676  13.746  21.631  0.00  0.00    +0.000 C 
ATOM      7  C   UNL     1      -3.160  14.108  21.772  0.00  0.00    +0.000 C 
ATOM      8  O   UNL     1      -3.302  15.505  22.076  0.00  0.00    +0.000 OA
ATOM      9  C   UNL     1      -2.734  16.315  21.031  0.00  0.00    +0.000 C 
ATOM     10  C   UNL     1      -1.254  15.981  20.798  0.00  0.00    +0.000 C 
ENDBRANCH   1   3
BRANCH   2  11
ATOM     11  C   UNL     1       0.993  10.603  19.468  0.00  0.00    +0.000 A 
ATOM     12  C   UNL     1       0.867   9.599  20.440  0.00  0.00    +0.000 A 
ATOM     13  C   UNL     1       1.397   8.325  20.210  0.00  0.00    +0.000 A 
ATOM     14  C   UNL     1       2.053   8.064  19.008  0.00  0.00    +0.000 A 
ATOM     15 BR   UNL     1       2.859   6.375  18.731  0.00  0.00    +0.000 Br
ATOM     16  C   UNL     1       2.154   9.044  18.021  0.00  0.00    +0.000 A 
ATOM     17  C   UNL     1       1.624  10.316  18.253  0.00  0.00    +0.000 A 
ENDBRANCH   2  11
BRANCH   1  20
ATOM     18  O   UNL     1      -2.896  11.741  19.157  0.00  0.00    +0.000 OA
ATOM     19  C   UNL     1      -2.234  11.612  18.132  0.00  0.00    +0.000 C 
ATOM     20  N   UNL     1      -0.935  12.072  17.997  0.00  0.00    +0.000 N 
ATOM     21  H   UNL     1      -0.732  12.407  17.061  0.00  0.00    +0.000 HD
BRANCH  19  22
ATOM     22  C   UNL     1      -2.741  10.954  16.944  0.00  0.00    +0.000 A 
ATOM     23  C   UNL     1      -2.287   9.842  16.262  0.00  0.00    +0.000 A 
ATOM     24  C   UNL     1      -3.075   9.730  15.091  0.00  0.00    +0.000 A 
ATOM     25  C   UNL     1      -3.975  10.770  15.135  0.00  0.00    +0.000 A 
ATOM     26  O   UNL     1      -3.799  11.504  16.264  0.00  0.00    +0.000 OA
ENDBRANCH  19  22
ENDBRANCH   1  20
TORSDOF 4
ENDMDL
