MODEL 1
REMARK VINA RESULT:      -8.9      0.000      0.000
REMARK  Name = 
REMARK  7 active torsions:
REMARK  status: ('A' for Active; 'I' for Inactive)
REMARK    1  A    between atoms: C_1  and  N_2
REMARK    2  A    between atoms: C_9  and  C_10
REMARK    3  A    between atoms: C_13  and  C_14
REMARK    4  A    between atoms: C_14  and  C_15
REMARK    5  A    between atoms: C_15  and  C_16
REMARK    6  A    between atoms: C_15  and  N_18
REMARK    7  A    between atoms: C_19  and  C_21
REMARK                            x       y       z     vdW  Elec       q    Type
REMARK                         _______ _______ _______ _____ _____    ______ ____
ROOT
ATOM      1  C   UNL     1       7.730   6.751  18.336  0.00  0.00    +0.000 C 
ENDROOT
BRANCH   1   5
ATOM      2  C   UNL     1       8.804  10.972  18.150  0.00  0.00    +0.000 A 
ATOM      3  C   UNL     1       9.405  10.101  19.076  0.00  0.00    +0.000 A 
ATOM      4  C   UNL     1       9.070   8.741  19.131  0.00  0.00    +0.000 A 
ATOM      5  C   UNL     1       8.109   8.213  18.265  0.00  0.00    +0.000 A 
ATOM      6  C   UNL     1       7.487   9.066  17.352  0.00  0.00    +0.000 A 
ATOM      7  C   UNL     1       7.835  10.418  17.294  0.00  0.00    +0.000 A 
BRANCH   2  16
ATOM      8  C   UNL     1       6.515  15.886  18.939  0.00  0.00    +0.000 C 
ATOM      9  N   UNL     1       7.883  15.894  18.488  0.00  0.00    +0.000 N 
ATOM     10  C   UNL     1       8.615  17.045  18.194  0.00  0.00    +0.000 C 
ATOM     11  O   UNL     1       8.236  18.203  18.282  0.00  0.00    +0.000 OA
ATOM     12  C   UNL     1      10.004  16.596  17.725  0.00  0.00    +0.000 C 
ATOM     13  C   UNL     1       9.897  15.104  17.786  0.00  0.00    +0.000 A 
ATOM     14  C   UNL     1      10.832  14.143  17.452  0.00  0.00    +0.000 A 
ATOM     15  C   UNL     1      10.464  12.798  17.584  0.00  0.00    +0.000 A 
ATOM     16  C   UNL     1       9.183  12.403  18.057  0.00  0.00    +0.000 A 
ATOM     17  C   UNL     1       8.269  13.419  18.405  0.00  0.00    +0.000 A 
ATOM     18  C   UNL     1       8.638  14.741  18.249  0.00  0.00    +0.000 A 
ENDBRANCH   2  16
ENDBRANCH   1   5
BRANCH   1  19
ATOM     19  C   UNL     1       6.582   6.370  17.375  0.00  0.00    +0.000 C 
BRANCH  19  20
ATOM     20  N   UNL     1       5.622   5.488  18.041  0.00  0.00    +0.000 N 
ATOM     21  C   UNL     1       4.318   5.875  18.220  0.00  0.00    +0.000 C 
ATOM     22  O   UNL     1       3.922   6.987  17.877  0.00  0.00    +0.000 OA
ATOM     23  H   UNL     1       5.789   4.486  18.069  0.00  0.00    +0.000 HD
BRANCH  21  24
ATOM     24  C   UNL     1       3.415   4.792  18.894  0.00  0.00    +0.000 C 
ATOM     25  C   UNL     1       4.197   3.472  18.955  0.00  0.00    +0.000 C 
ATOM     26  C   UNL     1       3.365   2.201  19.043  0.00  0.00    +0.000 C 
ATOM     27  O   UNL     1       2.033   2.267  18.562  0.00  0.00    +0.000 OA
ATOM     28  C   UNL     1       1.345   3.509  18.681  0.00  0.00    +0.000 C 
ATOM     29  C   UNL     1       0.934   3.838  20.112  0.00  0.00    +0.000 C 
ATOM     30  C   UNL     1       1.907   4.718  20.903  0.00  0.00    +0.000 C 
ATOM     31  N   UNL     1       3.051   5.316  20.229  0.00  0.00    +0.000 NA
ATOM     32  C   UNL     1       2.160   4.613  18.049  0.00  0.00    +0.000 C 
ATOM     33  H   UNL     1       3.865   5.284  20.848  0.00  0.00    +0.000 HD
ENDBRANCH  21  24
ENDBRANCH  19  20
BRANCH  19  34
ATOM     34  C   UNL     1       7.102   5.707  16.165  0.00  0.00    +0.000 C 
ATOM     35  N   UNL     1       7.478   5.152  15.211  0.00  0.00    +0.000 NA
ENDBRANCH  19  34
ENDBRANCH   1  19
TORSDOF 6
ENDMDL
MODEL 2
REMARK VINA RESULT:      -8.6      2.282      2.954
REMARK  Name = 
REMARK  7 active torsions:
REMARK  status: ('A' for Active; 'I' for Inactive)
REMARK    1  A    between atoms: C_1  and  N_2
REMARK    2  A    between atoms: C_9  and  C_10
REMARK    3  A    between atoms: C_13  and  C_14
REMARK    4  A    between atoms: C_14  and  C_15
REMARK    5  A    between atoms: C_15  and  C_16
REMARK    6  A    between atoms: C_15  and  N_18
REMARK    7  A    between atoms: C_19  and  C_21
REMARK                            x       y       z     vdW  Elec       q    Type
REMARK                         _______ _______ _______ _____ _____    ______ ____
ROOT
ATOM      1  C   UNL     1       7.051   4.968  17.318  0.00  0.00    +0.000 C 
ENDROOT
BRANCH   1   5
ATOM      2  C   UNL     1       8.572   8.884  18.483  0.00  0.00    +0.000 A 
ATOM      3  C   UNL     1       7.929   8.682  17.249  0.00  0.00    +0.000 A 
ATOM      4  C   UNL     1       7.429   7.428  16.877  0.00  0.00    +0.000 A 
ATOM      5  C   UNL     1       7.570   6.328  17.727  0.00  0.00    +0.000 A 
ATOM      6  C   UNL     1       8.223   6.503  18.948  0.00  0.00    +0.000 A 
ATOM      7  C   UNL     1       8.708   7.760  19.319  0.00  0.00    +0.000 A 
BRANCH   2  16
ATOM      8  C   UNL     1       8.566  12.041  22.960  0.00  0.00    +0.000 C 
ATOM      9  N   UNL     1       9.197  12.603  21.794  0.00  0.00    +0.000 N 
ATOM     10  C   UNL     1       9.737  13.889  21.725  0.00  0.00    +0.000 C 
ATOM     11  O   UNL     1       9.778  14.721  22.619  0.00  0.00    +0.000 OA
ATOM     12  C   UNL     1      10.273  14.084  20.302  0.00  0.00    +0.000 C 
ATOM     13  C   UNL     1       9.931  12.782  19.648  0.00  0.00    +0.000 A 
ATOM     14  C   UNL     1      10.144  12.372  18.345  0.00  0.00    +0.000 A 
ATOM     15  C   UNL     1       9.702  11.093  17.982  0.00  0.00    +0.000 A 
ATOM     16  C   UNL     1       9.067  10.218  18.903  0.00  0.00    +0.000 A 
ATOM     17  C   UNL     1       8.890  10.672  20.227  0.00  0.00    +0.000 A 
ATOM     18  C   UNL     1       9.311  11.943  20.566  0.00  0.00    +0.000 A 
ENDBRANCH   2  16
ENDBRANCH   1   5
BRANCH   1  19
ATOM     19  C   UNL     1       5.610   5.007  16.760  0.00  0.00    +0.000 C 
BRANCH  19  20
ATOM     20  N   UNL     1       4.710   4.216  17.600  0.00  0.00    +0.000 N 
ATOM     21  C   UNL     1       3.698   4.816  18.306  0.00  0.00    +0.000 C 
ATOM     22  O   UNL     1       3.543   6.035  18.300  0.00  0.00    +0.000 OA
ATOM     23  H   UNL     1       4.587   3.223  17.418  0.00  0.00    +0.000 HD
BRANCH  21  24
ATOM     24  C   UNL     1       2.795   3.821  19.103  0.00  0.00    +0.000 C 
ATOM     25  C   UNL     1       2.114   2.872  18.106  0.00  0.00    +0.000 C 
ATOM     26  C   UNL     1       0.818   2.224  18.571  0.00  0.00    +0.000 C 
ATOM     27  O   UNL     1       0.095   2.888  19.595  0.00  0.00    +0.000 OA
ATOM     28  C   UNL     1       0.838   3.630  20.557  0.00  0.00    +0.000 C 
ATOM     29  C   UNL     1       1.596   2.751  21.547  0.00  0.00    +0.000 C 
ATOM     30  C   UNL     1       3.054   2.447  21.192  0.00  0.00    +0.000 C 
ATOM     31  N   UNL     1       3.679   3.121  20.061  0.00  0.00    +0.000 NA
ATOM     32  C   UNL     1       1.741   4.620  19.860  0.00  0.00    +0.000 C 
ATOM     33  H   UNL     1       4.279   2.461  19.561  0.00  0.00    +0.000 HD
ENDBRANCH  21  24
ENDBRANCH  19  20
BRANCH  19  34
ATOM     34  C   UNL     1       5.565   4.500  15.376  0.00  0.00    +0.000 C 
ATOM     35  N   UNL     1       5.570   4.078  14.289  0.00  0.00    +0.000 NA
ENDBRANCH  19  34
ENDBRANCH   1  19
TORSDOF 6
ENDMDL
MODEL 3
REMARK VINA RESULT:      -8.6      0.814      1.480
REMARK  Name = 
REMARK  7 active torsions:
REMARK  status: ('A' for Active; 'I' for Inactive)
REMARK    1  A    between atoms: C_1  and  N_2
REMARK    2  A    between atoms: C_9  and  C_10
REMARK    3  A    between atoms: C_13  and  C_14
REMARK    4  A    between atoms: C_14  and  C_15
REMARK    5  A    between atoms: C_15  and  C_16
REMARK    6  A    between atoms: C_15  and  N_18
REMARK    7  A    between atoms: C_19  and  C_21
REMARK                            x       y       z     vdW  Elec       q    Type
REMARK                         _______ _______ _______ _____ _____    ______ ____
ROOT
ATOM      1  C   UNL     1       7.730   6.714  18.462  0.00  0.00    +0.000 C 
ENDROOT
BRANCH   1   5
ATOM      2  C   UNL     1       8.865  10.912  18.163  0.00  0.00    +0.000 A 
ATOM      3  C   UNL     1       7.947  10.333  17.269  0.00  0.00    +0.000 A 
ATOM      4  C   UNL     1       7.571   8.987  17.369  0.00  0.00    +0.000 A 
ATOM      5  C   UNL     1       8.117   8.172  18.364  0.00  0.00    +0.000 A 
ATOM      6  C   UNL     1       9.044   8.723  19.250  0.00  0.00    +0.000 A 
ATOM      7  C   UNL     1       9.405  10.070  19.152  0.00  0.00    +0.000 A 
BRANCH   2  16
ATOM      8  C   UNL     1       6.495  15.803  18.847  0.00  0.00    +0.000 C 
ATOM      9  N   UNL     1       7.883  15.824  18.463  0.00  0.00    +0.000 N 
ATOM     10  C   UNL     1       8.618  16.982  18.206  0.00  0.00    +0.000 C 
ATOM     11  O   UNL     1       8.225  18.137  18.276  0.00  0.00    +0.000 OA
ATOM     12  C   UNL     1      10.032  16.547  17.802  0.00  0.00    +0.000 C 
ATOM     13  C   UNL     1       9.936  15.054  17.856  0.00  0.00    +0.000 A 
ATOM     14  C   UNL     1      10.895  14.102  17.566  0.00  0.00    +0.000 A 
ATOM     15  C   UNL     1      10.533  12.754  17.679  0.00  0.00    +0.000 A 
ATOM     16  C   UNL     1       9.235  12.346  18.090  0.00  0.00    +0.000 A 
ATOM     17  C   UNL     1       8.296  13.353  18.395  0.00  0.00    +0.000 A 
ATOM     18  C   UNL     1       8.660  14.679  18.259  0.00  0.00    +0.000 A 
ENDBRANCH   2  16
ENDBRANCH   1   5
BRANCH   1  19
ATOM     19  C   UNL     1       6.555   6.329  17.535  0.00  0.00    +0.000 C 
BRANCH  19  20
ATOM     20  N   UNL     1       5.638   5.414  18.215  0.00  0.00    +0.000 N 
ATOM     21  C   UNL     1       4.279   5.570  18.106  0.00  0.00    +0.000 C 
ATOM     22  O   UNL     1       3.785   6.505  17.480  0.00  0.00    +0.000 OA
ATOM     23  H   UNL     1       5.952   4.484  18.478  0.00  0.00    +0.000 HD
BRANCH  21  24
ATOM     24  C   UNL     1       3.447   4.473  18.845  0.00  0.00    +0.000 C 
ATOM     25  C   UNL     1       2.338   3.982  17.903  0.00  0.00    +0.000 C 
ATOM     26  C   UNL     1       1.117   3.362  18.566  0.00  0.00    +0.000 C 
ATOM     27  O   UNL     1       0.857   3.729  19.912  0.00  0.00    +0.000 OA
ATOM     28  C   UNL     1       1.973   4.030  20.744  0.00  0.00    +0.000 C 
ATOM     29  C   UNL     1       2.777   2.800  21.148  0.00  0.00    +0.000 C 
ATOM     30  C   UNL     1       3.987   2.472  20.267  0.00  0.00    +0.000 C 
ATOM     31  N   UNL     1       4.398   3.407  19.228  0.00  0.00    +0.000 NA
ATOM     32  C   UNL     1       2.831   5.090  20.094  0.00  0.00    +0.000 C 
ATOM     33  H   UNL     1       4.689   2.886  18.398  0.00  0.00    +0.000 HD
ENDBRANCH  21  24
ENDBRANCH  19  20
BRANCH  19  34
ATOM     34  C   UNL     1       7.044   5.703  16.292  0.00  0.00    +0.000 C 
ATOM     35  N   UNL     1       7.457   5.246  15.302  0.00  0.00    +0.000 NA
ENDBRANCH  19  34
ENDBRANCH   1  19
TORSDOF 6
ENDMDL
MODEL 4
REMARK VINA RESULT:      -8.5      7.916     11.720
REMARK  Name = 
REMARK  7 active torsions:
REMARK  status: ('A' for Active; 'I' for Inactive)
REMARK    1  A    between atoms: C_1  and  N_2
REMARK    2  A    between atoms: C_9  and  C_10
REMARK    3  A    between atoms: C_13  and  C_14
REMARK    4  A    between atoms: C_14  and  C_15
REMARK    5  A    between atoms: C_15  and  C_16
REMARK    6  A    between atoms: C_15  and  N_18
REMARK    7  A    between atoms: C_19  and  C_21
REMARK                            x       y       z     vdW  Elec       q    Type
REMARK                         _______ _______ _______ _____ _____    ______ ____
ROOT
ATOM      1  C   UNL     1      -0.835  12.075  19.760  0.00  0.00    +0.000 C 
ENDROOT
BRANCH   1   5
ATOM      2  C   UNL     1       1.700   8.599  19.058  0.00  0.00    +0.000 A 
ATOM      3  C   UNL     1       1.048   8.796  20.287  0.00  0.00    +0.000 A 
ATOM      4  C   UNL     1       0.224   9.907  20.513  0.00  0.00    +0.000 A 
ATOM      5  C   UNL     1       0.037  10.865  19.513  0.00  0.00    +0.000 A 
ATOM      6  C   UNL     1       0.691  10.696  18.291  0.00  0.00    +0.000 A 
ATOM      7  C   UNL     1       1.502   9.580  18.069  0.00  0.00    +0.000 A 
BRANCH   2  16
ATOM      8  C   UNL     1       2.571   3.641  21.218  0.00  0.00    +0.000 C 
ATOM      9  N   UNL     1       3.365   3.973  20.063  0.00  0.00    +0.000 N 
ATOM     10  C   UNL     1       4.354   3.153  19.518  0.00  0.00    +0.000 C 
ATOM     11  O   UNL     1       4.690   2.044  19.905  0.00  0.00    +0.000 OA
ATOM     12  C   UNL     1       4.964   3.902  18.327  0.00  0.00    +0.000 C 
ATOM     13  C   UNL     1       4.205   5.193  18.337  0.00  0.00    +0.000 A 
ATOM     14  C   UNL     1       4.333   6.292  17.509  0.00  0.00    +0.000 A 
ATOM     15  C   UNL     1       3.502   7.393  17.751  0.00  0.00    +0.000 A 
ATOM     16  C   UNL     1       2.540   7.405  18.797  0.00  0.00    +0.000 A 
ATOM     17  C   UNL     1       2.432   6.252  19.603  0.00  0.00    +0.000 A 
ATOM     18  C   UNL     1       3.272   5.182  19.366  0.00  0.00    +0.000 A 
ENDBRANCH   2  16
ENDBRANCH   1   5
BRANCH   1  19
ATOM     19  C   UNL     1      -1.168  12.293  21.253  0.00  0.00    +0.000 C 
BRANCH  19  20
ATOM     20  N   UNL     1      -2.553  12.740  21.413  0.00  0.00    +0.000 N 
ATOM     21  C   UNL     1      -3.260  12.445  22.553  0.00  0.00    +0.000 C 
ATOM     22  O   UNL     1      -2.778  11.759  23.451  0.00  0.00    +0.000 OA
ATOM     23  H   UNL     1      -2.895  13.534  20.879  0.00  0.00    +0.000 HD
BRANCH  21  24
ATOM     24  C   UNL     1      -4.701  13.047  22.586  0.00  0.00    +0.000 C 
ATOM     25  C   UNL     1      -4.619  14.536  22.220  0.00  0.00    +0.000 C 
ATOM     26  C   UNL     1      -5.757  15.415  22.717  0.00  0.00    +0.000 C 
ATOM     27  O   UNL     1      -6.483  14.954  23.844  0.00  0.00    +0.000 OA
ATOM     28  C   UNL     1      -6.621  13.547  24.015  0.00  0.00    +0.000 C 
ATOM     29  C   UNL     1      -7.589  12.908  23.026  0.00  0.00    +0.000 C 
ATOM     30  C   UNL     1      -6.961  12.325  21.756  0.00  0.00    +0.000 C 
ATOM     31  N   UNL     1      -5.512  12.257  21.633  0.00  0.00    +0.000 NA
ATOM     32  C   UNL     1      -5.261  12.889  23.994  0.00  0.00    +0.000 C 
ATOM     33  H   UNL     1      -5.241  12.487  20.674  0.00  0.00    +0.000 HD
ENDBRANCH  21  24
ENDBRANCH  19  20
BRANCH  19  34
ATOM     34  C   UNL     1      -0.259  13.283  21.860  0.00  0.00    +0.000 C 
ATOM     35  N   UNL     1       0.425  14.097  22.338  0.00  0.00    +0.000 NA
ENDBRANCH  19  34
ENDBRANCH   1  19
TORSDOF 6
ENDMDL
MODEL 5
REMARK VINA RESULT:      -8.4      0.862      1.626
REMARK  Name = 
REMARK  7 active torsions:
REMARK  status: ('A' for Active; 'I' for Inactive)
REMARK    1  A    between atoms: C_1  and  N_2
REMARK    2  A    between atoms: C_9  and  C_10
REMARK    3  A    between atoms: C_13  and  C_14
REMARK    4  A    between atoms: C_14  and  C_15
REMARK    5  A    between atoms: C_15  and  C_16
REMARK    6  A    between atoms: C_15  and  N_18
REMARK    7  A    between atoms: C_19  and  C_21
REMARK                            x       y       z     vdW  Elec       q    Type
REMARK                         _______ _______ _______ _____ _____    ______ ____
ROOT
ATOM      1  C   UNL     1       7.678   6.596  18.437  0.00  0.00    +0.000 C 
ENDROOT
BRANCH   1   5
ATOM      2  C   UNL     1       8.816  10.794  18.157  0.00  0.00    +0.000 A 
ATOM      3  C   UNL     1       7.884  10.225  17.272  0.00  0.00    +0.000 A 
ATOM      4  C   UNL     1       7.508   8.879  17.366  0.00  0.00    +0.000 A 
ATOM      5  C   UNL     1       8.066   8.054  18.346  0.00  0.00    +0.000 A 
ATOM      6  C   UNL     1       9.007   8.596  19.223  0.00  0.00    +0.000 A 
ATOM      7  C   UNL     1       9.369   9.943  19.131  0.00  0.00    +0.000 A 
BRANCH   2  16
ATOM      8  C   UNL     1       6.441  15.685  18.824  0.00  0.00    +0.000 C 
ATOM      9  N   UNL     1       7.833  15.707  18.456  0.00  0.00    +0.000 N 
ATOM     10  C   UNL     1       8.571  16.865  18.209  0.00  0.00    +0.000 C 
ATOM     11  O   UNL     1       8.178  18.020  18.278  0.00  0.00    +0.000 OA
ATOM     12  C   UNL     1       9.990  16.430  17.821  0.00  0.00    +0.000 C 
ATOM     13  C   UNL     1       9.892  14.937  17.871  0.00  0.00    +0.000 A 
ATOM     14  C   UNL     1      10.854  13.985  17.590  0.00  0.00    +0.000 A 
ATOM     15  C   UNL     1      10.490  12.636  17.696  0.00  0.00    +0.000 A 
ATOM     16  C   UNL     1       9.188  12.229  18.091  0.00  0.00    +0.000 A 
ATOM     17  C   UNL     1       8.246  13.236  18.388  0.00  0.00    +0.000 A 
ATOM     18  C   UNL     1       8.612  14.562  18.258  0.00  0.00    +0.000 A 
ENDBRANCH   2  16
ENDBRANCH   1   5
BRANCH   1  19
ATOM     19  C   UNL     1       6.543   6.204  17.464  0.00  0.00    +0.000 C 
BRANCH  19  20
ATOM     20  N   UNL     1       5.534   5.393  18.148  0.00  0.00    +0.000 N 
ATOM     21  C   UNL     1       4.209   5.749  18.122  0.00  0.00    +0.000 C 
ATOM     22  O   UNL     1       3.830   6.780  17.570  0.00  0.00    +0.000 OA
ATOM     23  H   UNL     1       5.720   4.414  18.348  0.00  0.00    +0.000 HD
BRANCH  21  24
ATOM     24  C   UNL     1       3.260   4.744  18.850  0.00  0.00    +0.000 C 
ATOM     25  C   UNL     1       2.642   5.448  20.066  0.00  0.00    +0.000 C 
ATOM     26  C   UNL     1       2.158   4.547  21.192  0.00  0.00    +0.000 C 
ATOM     27  O   UNL     1       2.743   3.258  21.283  0.00  0.00    +0.000 OA
ATOM     28  C   UNL     1       3.157   2.630  20.074  0.00  0.00    +0.000 C 
ATOM     29  C   UNL     1       1.995   2.134  19.220  0.00  0.00    +0.000 C 
ATOM     30  C   UNL     1       1.509   3.092  18.129  0.00  0.00    +0.000 C 
ATOM     31  N   UNL     1       2.255   4.312  17.854  0.00  0.00    +0.000 NA
ATOM     32  C   UNL     1       4.083   3.545  19.308  0.00  0.00    +0.000 C 
ATOM     33  H   UNL     1       1.602   5.076  17.668  0.00  0.00    +0.000 HD
ENDBRANCH  21  24
ENDBRANCH  19  20
BRANCH  19  34
ATOM     34  C   UNL     1       7.070   5.459  16.306  0.00  0.00    +0.000 C 
ATOM     35  N   UNL     1       7.477   4.829  15.413  0.00  0.00    +0.000 NA
ENDBRANCH  19  34
ENDBRANCH   1  19
TORSDOF 6
ENDMDL
MODEL 6
REMARK VINA RESULT:      -8.3      7.256     10.879
REMARK  Name = 
REMARK  7 active torsions:
REMARK  status: ('A' for Active; 'I' for Inactive)
REMARK    1  A    between atoms: C_1  and  N_2
REMARK    2  A    between atoms: C_9  and  C_10
REMARK    3  A    between atoms: C_13  and  C_14
REMARK    4  A    between atoms: C_14  and  C_15
REMARK    5  A    between atoms: C_15  and  C_16
REMARK    6  A    between atoms: C_15  and  N_18
REMARK    7  A    between atoms: C_19  and  C_21
REMARK                            x       y       z     vdW  Elec       q    Type
REMARK                         _______ _______ _______ _____ _____    ______ ____
ROOT
ATOM      1  C   UNL     1      -0.241  11.574  19.758  0.00  0.00    +0.000 C 
ENDROOT
BRANCH   1   5
ATOM      2  C   UNL     1       2.152   8.134  18.557  0.00  0.00    +0.000 A 
ATOM      3  C   UNL     1       1.895   9.196  17.672  0.00  0.00    +0.000 A 
ATOM      4  C   UNL     1       1.136  10.308  18.058  0.00  0.00    +0.000 A 
ATOM      5  C   UNL     1       0.596  10.385  19.344  0.00  0.00    +0.000 A 
ATOM      6  C   UNL     1       0.824   9.332  20.232  0.00  0.00    +0.000 A 
ATOM      7  C   UNL     1       1.592   8.231  19.844  0.00  0.00    +0.000 A 
BRANCH   2  16
ATOM      8  C   UNL     1       7.369   7.090  17.257  0.00  0.00    +0.000 C 
ATOM      9  N   UNL     1       6.474   5.963  17.217  0.00  0.00    +0.000 N 
ATOM     10  C   UNL     1       6.835   4.675  16.822  0.00  0.00    +0.000 C 
ATOM     11  O   UNL     1       7.941   4.294  16.470  0.00  0.00    +0.000 OA
ATOM     12  C   UNL     1       5.577   3.802  16.900  0.00  0.00    +0.000 C 
ATOM     13  C   UNL     1       4.536   4.779  17.350  0.00  0.00    +0.000 A 
ATOM     14  C   UNL     1       3.186   4.582  17.573  0.00  0.00    +0.000 A 
ATOM     15  C   UNL     1       2.422   5.685  17.975  0.00  0.00    +0.000 A 
ATOM     16  C   UNL     1       2.990   6.973  18.170  0.00  0.00    +0.000 A 
ATOM     17  C   UNL     1       4.375   7.121  17.950  0.00  0.00    +0.000 A 
ATOM     18  C   UNL     1       5.112   6.030  17.533  0.00  0.00    +0.000 A 
ENDBRANCH   2  16
ENDBRANCH   1   5
BRANCH   1  19
ATOM     19  C   UNL     1       0.081  12.084  21.180  0.00  0.00    +0.000 C 
BRANCH  19  20
ATOM     20  N   UNL     1      -1.071  12.784  21.752  0.00  0.00    +0.000 N 
ATOM     21  C   UNL     1      -1.611  12.387  22.949  0.00  0.00    +0.000 C 
ATOM     22  O   UNL     1      -1.184  11.408  23.556  0.00  0.00    +0.000 OA
ATOM     23  H   UNL     1      -1.269  13.742  21.478  0.00  0.00    +0.000 HD
BRANCH  21  24
ATOM     24  C   UNL     1      -2.796  13.277  23.443  0.00  0.00    +0.000 C 
ATOM     25  C   UNL     1      -3.866  12.367  24.064  0.00  0.00    +0.000 C 
ATOM     26  C   UNL     1      -5.284  12.919  24.093  0.00  0.00    +0.000 C 
ATOM     27  O   UNL     1      -5.605  13.924  23.146  0.00  0.00    +0.000 OA
ATOM     28  C   UNL     1      -4.567  14.810  22.740  0.00  0.00    +0.000 C 
ATOM     29  C   UNL     1      -4.183  15.825  23.811  0.00  0.00    +0.000 C 
ATOM     30  C   UNL     1      -3.005  15.438  24.710  0.00  0.00    +0.000 C 
ATOM     31  N   UNL     1      -2.226  14.245  24.406  0.00  0.00    +0.000 NA
ATOM     32  C   UNL     1      -3.378  14.019  22.246  0.00  0.00    +0.000 C 
ATOM     33  H   UNL     1      -1.983  13.766  25.276  0.00  0.00    +0.000 HD
ENDBRANCH  21  24
ENDBRANCH  19  20
BRANCH  19  34
ATOM     34  C   UNL     1       1.248  12.986  21.168  0.00  0.00    +0.000 C 
ATOM     35  N   UNL     1       2.143  13.734  21.175  0.00  0.00    +0.000 NA
ENDBRANCH  19  34
ENDBRANCH   1  19
TORSDOF 6
ENDMDL
MODEL 7
REMARK VINA RESULT:      -8.3      8.103     11.806
REMARK  Name = 
REMARK  7 active torsions:
REMARK  status: ('A' for Active; 'I' for Inactive)
REMARK    1  A    between atoms: C_1  and  N_2
REMARK    2  A    between atoms: C_9  and  C_10
REMARK    3  A    between atoms: C_13  and  C_14
REMARK    4  A    between atoms: C_14  and  C_15
REMARK    5  A    between atoms: C_15  and  C_16
REMARK    6  A    between atoms: C_15  and  N_18
REMARK    7  A    between atoms: C_19  and  C_21
REMARK                            x       y       z     vdW  Elec       q    Type
REMARK                         _______ _______ _______ _____ _____    ______ ____
ROOT
ATOM      1  C   UNL     1      -0.791  12.603  20.050  0.00  0.00    +0.000 C 
ENDROOT
BRANCH   1   5
ATOM      2  C   UNL     1       1.510   8.990  19.245  0.00  0.00    +0.000 A 
ATOM      3  C   UNL     1       0.804   9.159  20.449  0.00  0.00    +0.000 A 
ATOM      4  C   UNL     1       0.055  10.314  20.706  0.00  0.00    +0.000 A 
ATOM      5  C   UNL     1      -0.001  11.346  19.766  0.00  0.00    +0.000 A 
ATOM      6  C   UNL     1       0.709  11.206  18.572  0.00  0.00    +0.000 A 
ATOM      7  C   UNL     1       1.445  10.045  18.317  0.00  0.00    +0.000 A 
BRANCH   2  16
ATOM      8  C   UNL     1       2.233   4.000  21.387  0.00  0.00    +0.000 C 
ATOM      9  N   UNL     1       2.981   4.286  20.190  0.00  0.00    +0.000 N 
ATOM     10  C   UNL     1       3.894   3.413  19.598  0.00  0.00    +0.000 C 
ATOM     11  O   UNL     1       4.192   2.289  19.974  0.00  0.00    +0.000 OA
ATOM     12  C   UNL     1       4.479   4.124  18.373  0.00  0.00    +0.000 C 
ATOM     13  C   UNL     1       3.791   5.454  18.414  0.00  0.00    +0.000 A 
ATOM     14  C   UNL     1       3.932   6.541  17.574  0.00  0.00    +0.000 A 
ATOM     15  C   UNL     1       3.175   7.686  17.853  0.00  0.00    +0.000 A 
ATOM     16  C   UNL     1       2.271   7.752  18.948  0.00  0.00    +0.000 A 
ATOM     17  C   UNL     1       2.146   6.610  19.766  0.00  0.00    +0.000 A 
ATOM     18  C   UNL     1       2.915   5.496  19.492  0.00  0.00    +0.000 A 
ENDBRANCH   2  16
ENDBRANCH   1   5
BRANCH   1  19
ATOM     19  C   UNL     1      -1.241  12.724  21.523  0.00  0.00    +0.000 C 
BRANCH  19  20
ATOM     20  N   UNL     1      -2.670  13.027  21.604  0.00  0.00    +0.000 N 
ATOM     21  C   UNL     1      -3.441  12.516  22.618  0.00  0.00    +0.000 C 
ATOM     22  O   UNL     1      -2.976  11.752  23.460  0.00  0.00    +0.000 OA
ATOM     23  H   UNL     1      -3.039  13.858  21.150  0.00  0.00    +0.000 HD
BRANCH  21  24
ATOM     24  C   UNL     1      -4.931  12.986  22.589  0.00  0.00    +0.000 C 
ATOM     25  C   UNL     1      -5.511  12.691  21.199  0.00  0.00    +0.000 C 
ATOM     26  C   UNL     1      -6.704  13.534  20.773  0.00  0.00    +0.000 C 
ATOM     27  O   UNL     1      -6.860  14.795  21.403  0.00  0.00    +0.000 OA
ATOM     28  C   UNL     1      -6.414  14.924  22.750  0.00  0.00    +0.000 C 
ATOM     29  C   UNL     1      -7.314  14.215  23.756  0.00  0.00    +0.000 C 
ATOM     30  C   UNL     1      -6.900  12.792  24.139  0.00  0.00    +0.000 C 
ATOM     31  N   UNL     1      -5.625  12.261  23.675  0.00  0.00    +0.000 NA
ATOM     32  C   UNL     1      -4.973  14.486  22.860  0.00  0.00    +0.000 C 
ATOM     33  H   UNL     1      -5.740  11.278  23.418  0.00  0.00    +0.000 HD
ENDBRANCH  21  24
ENDBRANCH  19  20
BRANCH  19  34
ATOM     34  C   UNL     1      -0.475  13.769  22.227  0.00  0.00    +0.000 C 
ATOM     35  N   UNL     1       0.156  14.563  22.803  0.00  0.00    +0.000 NA
ENDBRANCH  19  34
ENDBRANCH   1  19
TORSDOF 6
ENDMDL
MODEL 8
REMARK VINA RESULT:      -8.3      8.234     11.930
REMARK  Name = 
REMARK  7 active torsions:
REMARK  status: ('A' for Active; 'I' for Inactive)
REMARK    1  A    between atoms: C_1  and  N_2
REMARK    2  A    between atoms: C_9  and  C_10
REMARK    3  A    between atoms: C_13  and  C_14
REMARK    4  A    between atoms: C_14  and  C_15
REMARK    5  A    between atoms: C_15  and  C_16
REMARK    6  A    between atoms: C_15  and  N_18
REMARK    7  A    between atoms: C_19  and  C_21
REMARK                            x       y       z     vdW  Elec       q    Type
REMARK                         _______ _______ _______ _____ _____    ______ ____
ROOT
ATOM      1  C   UNL     1      -1.500  11.970  20.150  0.00  0.00    +0.000 C 
ENDROOT
BRANCH   1   5
ATOM      2  C   UNL     1       1.266   8.734  19.210  0.00  0.00    +0.000 A 
ATOM      3  C   UNL     1       0.876   9.674  18.239  0.00  0.00    +0.000 A 
ATOM      4  C   UNL     1      -0.004  10.721  18.541  0.00  0.00    +0.000 A 
ATOM      5  C   UNL     1      -0.534  10.853  19.827  0.00  0.00    +0.000 A 
ATOM      6  C   UNL     1      -0.174   9.919  20.800  0.00  0.00    +0.000 A 
ATOM      7  C   UNL     1       0.714   8.884  20.496  0.00  0.00    +0.000 A 
BRANCH   2  16
ATOM      8  C   UNL     1       2.587   3.774  21.123  0.00  0.00    +0.000 C 
ATOM      9  N   UNL     1       3.370   4.250  20.013  0.00  0.00    +0.000 N 
ATOM     10  C   UNL     1       4.450   3.566  19.453  0.00  0.00    +0.000 C 
ATOM     11  O   UNL     1       4.889   2.476  19.789  0.00  0.00    +0.000 OA
ATOM     12  C   UNL     1       5.009   4.439  18.323  0.00  0.00    +0.000 C 
ATOM     13  C   UNL     1       4.123   5.645  18.381  0.00  0.00    +0.000 A 
ATOM     14  C   UNL     1       4.157   6.796  17.618  0.00  0.00    +0.000 A 
ATOM     15  C   UNL     1       3.213   7.793  17.894  0.00  0.00    +0.000 A 
ATOM     16  C   UNL     1       2.230   7.648  18.910  0.00  0.00    +0.000 A 
ATOM     17  C   UNL     1       2.220   6.446  19.649  0.00  0.00    +0.000 A 
ATOM     18  C   UNL     1       3.171   5.481  19.380  0.00  0.00    +0.000 A 
ENDBRANCH   2  16
ENDBRANCH   1   5
BRANCH   1  19
ATOM     19  C   UNL     1      -1.541  12.327  21.653  0.00  0.00    +0.000 C 
BRANCH  19  20
ATOM     20  N   UNL     1      -2.801  12.988  21.993  0.00  0.00    +0.000 N 
ATOM     21  C   UNL     1      -3.516  12.613  23.103  0.00  0.00    +0.000 C 
ATOM     22  O   UNL     1      -3.153  11.682  23.819  0.00  0.00    +0.000 OA
ATOM     23  H   UNL     1      -2.994  13.923  21.645  0.00  0.00    +0.000 HD
BRANCH  21  24
ATOM     24  C   UNL     1      -4.805  13.460  23.352  0.00  0.00    +0.000 C 
ATOM     25  C   UNL     1      -5.837  12.580  24.072  0.00  0.00    +0.000 C 
ATOM     26  C   UNL     1      -7.294  12.989  23.917  0.00  0.00    +0.000 C 
ATOM     27  O   UNL     1      -7.629  13.767  22.780  0.00  0.00    +0.000 OA
ATOM     28  C   UNL     1      -6.642  14.659  22.273  0.00  0.00    +0.000 C 
ATOM     29  C   UNL     1      -6.425  15.886  23.152  0.00  0.00    +0.000 C 
ATOM     30  C   UNL     1      -5.287  15.786  24.172  0.00  0.00    +0.000 C 
ATOM     31  N   UNL     1      -4.391  14.638  24.144  0.00  0.00    +0.000 NA
ATOM     32  C   UNL     1      -5.358  13.910  22.005  0.00  0.00    +0.000 C 
ATOM     33  H   UNL     1      -4.173  14.353  25.102  0.00  0.00    +0.000 HD
ENDBRANCH  21  24
ENDBRANCH  19  20
BRANCH  19  34
ATOM     34  C   UNL     1      -0.412  13.201  22.021  0.00  0.00    +0.000 C 
ATOM     35  N   UNL     1       0.469  13.888  22.357  0.00  0.00    +0.000 NA
ENDBRANCH  19  34
ENDBRANCH   1  19
TORSDOF 6
ENDMDL
MODEL 9
REMARK VINA RESULT:      -8.3      7.384     10.858
REMARK  Name = 
REMARK  7 active torsions:
REMARK  status: ('A' for Active; 'I' for Inactive)
REMARK    1  A    between atoms: C_1  and  N_2
REMARK    2  A    between atoms: C_9  and  C_10
REMARK    3  A    between atoms: C_13  and  C_14
REMARK    4  A    between atoms: C_14  and  C_15
REMARK    5  A    between atoms: C_15  and  C_16
REMARK    6  A    between atoms: C_15  and  N_18
REMARK    7  A    between atoms: C_19  and  C_21
REMARK                            x       y       z     vdW  Elec       q    Type
REMARK                         _______ _______ _______ _____ _____    ______ ____
ROOT
ATOM      1  C   UNL     1      -0.635  11.126  20.065  0.00  0.00    +0.000 C 
ENDROOT
BRANCH   1   5
ATOM      2  C   UNL     1       2.015   7.946  18.700  0.00  0.00    +0.000 A 
ATOM      3  C   UNL     1       1.656   8.073  20.053  0.00  0.00    +0.000 A 
ATOM      4  C   UNL     1       0.796   9.087  20.494  0.00  0.00    +0.000 A 
ATOM      5  C   UNL     1       0.277  10.017  19.590  0.00  0.00    +0.000 A 
ATOM      6  C   UNL     1       0.636   9.919  18.244  0.00  0.00    +0.000 A 
ATOM      7  C   UNL     1       1.485   8.898  17.810  0.00  0.00    +0.000 A 
BRANCH   2  16
ATOM      8  C   UNL     1       7.238   7.215  17.219  0.00  0.00    +0.000 C 
ATOM      9  N   UNL     1       6.390   6.055  17.126  0.00  0.00    +0.000 N 
ATOM     10  C   UNL     1       6.796   4.812  16.639  0.00  0.00    +0.000 C 
ATOM     11  O   UNL     1       7.908   4.503  16.238  0.00  0.00    +0.000 OA
ATOM     12  C   UNL     1       5.578   3.882  16.688  0.00  0.00    +0.000 C 
ATOM     13  C   UNL     1       4.508   4.782  17.224  0.00  0.00    +0.000 A 
ATOM     14  C   UNL     1       3.173   4.512  17.463  0.00  0.00    +0.000 A 
ATOM     15  C   UNL     1       2.374   5.553  17.953  0.00  0.00    +0.000 A 
ATOM     16  C   UNL     1       2.892   6.849  18.219  0.00  0.00    +0.000 A 
ATOM     17  C   UNL     1       4.264   7.071  17.978  0.00  0.00    +0.000 A 
ATOM     18  C   UNL     1       5.035   6.042  17.475  0.00  0.00    +0.000 A 
ENDBRANCH   2  16
ENDBRANCH   1   5
BRANCH   1  19
ATOM     19  C   UNL     1      -0.278  11.649  21.475  0.00  0.00    +0.000 C 
BRANCH  19  20
ATOM     20  N   UNL     1      -1.482  12.078  22.187  0.00  0.00    +0.000 N 
ATOM     21  C   UNL     1      -2.313  13.031  21.652  0.00  0.00    +0.000 C 
ATOM     22  O   UNL     1      -2.054  13.590  20.589  0.00  0.00    +0.000 OA
ATOM     23  H   UNL     1      -1.904  11.470  22.883  0.00  0.00    +0.000 HD
BRANCH  21  24
ATOM     24  C   UNL     1      -3.583  13.329  22.513  0.00  0.00    +0.000 C 
ATOM     25  C   UNL     1      -3.412  12.661  23.885  0.00  0.00    +0.000 C 
ATOM     26  C   UNL     1      -4.693  12.348  24.644  0.00  0.00    +0.000 C 
ATOM     27  O   UNL     1      -5.879  12.210  23.880  0.00  0.00    +0.000 OA
ATOM     28  C   UNL     1      -5.997  12.985  22.691  0.00  0.00    +0.000 C 
ATOM     29  C   UNL     1      -6.240  14.467  22.956  0.00  0.00    +0.000 C 
ATOM     30  C   UNL     1      -4.994  15.356  22.978  0.00  0.00    +0.000 C 
ATOM     31  N   UNL     1      -3.703  14.802  22.594  0.00  0.00    +0.000 NA
ATOM     32  C   UNL     1      -4.799  12.750  21.801  0.00  0.00    +0.000 C 
ATOM     33  H   UNL     1      -2.975  15.176  23.207  0.00  0.00    +0.000 HD
ENDBRANCH  21  24
ENDBRANCH  19  20
BRANCH  19  34
ATOM     34  C   UNL     1       0.675  12.772  21.398  0.00  0.00    +0.000 C 
ATOM     35  N   UNL     1       1.431  13.653  21.290  0.00  0.00    +0.000 NA
ENDBRANCH  19  34
ENDBRANCH   1  19
TORSDOF 6
ENDMDL
