MODEL 1
REMARK VINA RESULT:      -7.0      0.000      0.000
REMARK  Name = 
REMARK  6 active torsions:
REMARK  status: ('A' for Active; 'I' for Inactive)
REMARK    1  A    between atoms: C_1  and  C_2
REMARK    2  A    between atoms: C_2  and  C_3
REMARK    3  A    between atoms: C_2  and  C_10
REMARK    4  A    between atoms: C_3  and  N_4
REMARK    5  A    between atoms: C_13  and  S_14
REMARK    6  A    between atoms: S_14  and  C_15
REMARK                            x       y       z     vdW  Elec       q    Type
REMARK                         _______ _______ _______ _____ _____    ______ ____
ROOT
ATOM      1  C   UNL     1       2.041   3.502  20.882  0.00  0.00    +0.000 C 
ATOM      2  C   UNL     1       2.032   4.732  19.947  0.00  0.00    +0.000 C 
ENDROOT
BRANCH   2   3
ATOM      3  C   UNL     1       3.303   4.779  19.077  0.00  0.00    +0.000 A 
ATOM      4  C   UNL     1       4.567   4.992  19.657  0.00  0.00    +0.000 A 
ATOM      5  C   UNL     1       5.723   5.087  18.882  0.00  0.00    +0.000 A 
ATOM      6  C   UNL     1       5.637   4.923  17.506  0.00  0.00    +0.000 A 
ATOM      7  C   UNL     1       4.411   4.675  16.897  0.00  0.00    +0.000 A 
ATOM      8  C   UNL     1       3.255   4.588  17.683  0.00  0.00    +0.000 A 
BRANCH   6   9
ATOM      9  S   UNL     1       7.098   5.063  16.513  0.00  0.00    +0.000 S 
ATOM     10  C   UNL     1       6.588   4.381  14.957  0.00  0.00    +0.000 C 
ATOM     11  O   UNL     1       7.367   6.475  16.323  0.00  0.00    +0.000 OA
ATOM     12  O   UNL     1       8.102   4.183  17.083  0.00  0.00    +0.000 OA
ENDBRANCH   6   9
ENDBRANCH   2   3
BRANCH   2  13
ATOM     13  C   UNL     1       1.828   6.019  20.793  0.00  0.00    +0.000 C 
BRANCH  13  14
ATOM     14  N   UNL     1       2.067   7.251  20.050  0.00  0.00    +0.000 N 
ATOM     15  C   UNL     1       1.469   8.386  20.484  0.00  0.00    +0.000 A 
ATOM     16  N   UNL     1       1.125   8.638  21.726  0.00  0.00    +0.000 NA
ATOM     17  C   UNL     1       0.543   9.888  21.815  0.00  0.00    +0.000 A 
ATOM     18  C   UNL     1       0.413  10.568  20.625  0.00  0.00    +0.000 A 
ATOM     19  S   UNL     1       1.072   9.629  19.355  0.00  0.00    +0.000 S 
ATOM     20  H   UNL     1       2.071   7.129  19.044  0.00  0.00    +0.000 HD
ENDBRANCH  13  14
ENDBRANCH   2  13
TORSDOF 4
ENDMDL
MODEL 2
REMARK VINA RESULT:      -6.9      0.450      1.150
REMARK  Name = 
REMARK  6 active torsions:
REMARK  status: ('A' for Active; 'I' for Inactive)
REMARK    1  A    between atoms: C_1  and  C_2
REMARK    2  A    between atoms: C_2  and  C_3
REMARK    3  A    between atoms: C_2  and  C_10
REMARK    4  A    between atoms: C_3  and  N_4
REMARK    5  A    between atoms: C_13  and  S_14
REMARK    6  A    between atoms: S_14  and  C_15
REMARK                            x       y       z     vdW  Elec       q    Type
REMARK                         _______ _______ _______ _____ _____    ______ ____
ROOT
ATOM      1  C   UNL     1       1.695   3.473  20.273  0.00  0.00    +0.000 C 
ATOM      2  C   UNL     1       1.886   4.875  19.652  0.00  0.00    +0.000 C 
ENDROOT
BRANCH   2   3
ATOM      3  C   UNL     1       3.229   4.975  18.904  0.00  0.00    +0.000 A 
ATOM      4  C   UNL     1       3.273   5.321  17.541  0.00  0.00    +0.000 A 
ATOM      5  C   UNL     1       4.475   5.369  16.835  0.00  0.00    +0.000 A 
ATOM      6  C   UNL     1       5.667   5.111  17.499  0.00  0.00    +0.000 A 
ATOM      7  C   UNL     1       5.671   4.800  18.855  0.00  0.00    +0.000 A 
ATOM      8  C   UNL     1       4.459   4.749  19.553  0.00  0.00    +0.000 A 
BRANCH   6   9
ATOM      9  S   UNL     1       7.196   5.149  16.603  0.00  0.00    +0.000 S 
ATOM     10  C   UNL     1       6.742   4.500  15.015  0.00  0.00    +0.000 C 
ATOM     11  O   UNL     1       7.572   6.539  16.434  0.00  0.00    +0.000 OA
ATOM     12  O   UNL     1       8.098   4.204  17.235  0.00  0.00    +0.000 OA
ENDBRANCH   6   9
ENDBRANCH   2   3
BRANCH   2  13
ATOM     13  C   UNL     1       1.727   5.954  20.759  0.00  0.00    +0.000 C 
BRANCH  13  14
ATOM     14  N   UNL     1       2.074   7.300  20.318  0.00  0.00    +0.000 N 
ATOM     15  C   UNL     1       1.244   8.317  20.653  0.00  0.00    +0.000 A 
ATOM     16  N   UNL     1       0.466   8.347  21.711  0.00  0.00    +0.000 NA
ATOM     17  C   UNL     1      -0.242   9.533  21.747  0.00  0.00    +0.000 A 
ATOM     18  C   UNL     1      -0.026  10.386  20.689  0.00  0.00    +0.000 A 
ATOM     19  S   UNL     1       1.129   9.700  19.629  0.00  0.00    +0.000 S 
ATOM     20  H   UNL     1       2.439   7.341  19.373  0.00  0.00    +0.000 HD
ENDBRANCH  13  14
ENDBRANCH   2  13
TORSDOF 4
ENDMDL
MODEL 3
REMARK VINA RESULT:      -6.8      4.763      7.446
REMARK  Name = 
REMARK  6 active torsions:
REMARK  status: ('A' for Active; 'I' for Inactive)
REMARK    1  A    between atoms: C_1  and  C_2
REMARK    2  A    between atoms: C_2  and  C_3
REMARK    3  A    between atoms: C_2  and  C_10
REMARK    4  A    between atoms: C_3  and  N_4
REMARK    5  A    between atoms: C_13  and  S_14
REMARK    6  A    between atoms: S_14  and  C_15
REMARK                            x       y       z     vdW  Elec       q    Type
REMARK                         _______ _______ _______ _____ _____    ______ ____
ROOT
ATOM      1  C   UNL     1       7.686   5.692  18.914  0.00  0.00    +0.000 C 
ATOM      2  C   UNL     1       6.633   5.596  17.787  0.00  0.00    +0.000 C 
ENDROOT
BRANCH   2   3
ATOM      3  C   UNL     1       5.281   5.096  18.330  0.00  0.00    +0.000 A 
ATOM      4  C   UNL     1       5.217   4.002  19.212  0.00  0.00    +0.000 A 
ATOM      5  C   UNL     1       4.000   3.504  19.676  0.00  0.00    +0.000 A 
ATOM      6  C   UNL     1       2.818   4.128  19.296  0.00  0.00    +0.000 A 
ATOM      7  C   UNL     1       2.840   5.235  18.454  0.00  0.00    +0.000 A 
ATOM      8  C   UNL     1       4.067   5.724  17.989  0.00  0.00    +0.000 A 
BRANCH   6   9
ATOM      9  S   UNL     1       1.267   3.488  19.865  0.00  0.00    +0.000 S 
ATOM     10  C   UNL     1       1.740   2.445  21.220  0.00  0.00    +0.000 C 
ATOM     11  O   UNL     1       0.501   4.599  20.395  0.00  0.00    +0.000 OA
ATOM     12  O   UNL     1       0.728   2.645  18.814  0.00  0.00    +0.000 OA
ENDBRANCH   6   9
ENDBRANCH   2   3
BRANCH   2  13
ATOM     13  C   UNL     1       7.190   4.710  16.637  0.00  0.00    +0.000 C 
BRANCH  13  14
ATOM     14  N   UNL     1       7.372   5.429  15.382  0.00  0.00    +0.000 N 
ATOM     15  C   UNL     1       7.046   4.796  14.229  0.00  0.00    +0.000 A 
ATOM     16  N   UNL     1       6.144   3.849  14.110  0.00  0.00    +0.000 NA
ATOM     17  C   UNL     1       6.064   3.430  12.796  0.00  0.00    +0.000 A 
ATOM     18  C   UNL     1       6.940   4.038  11.925  0.00  0.00    +0.000 A 
ATOM     19  S   UNL     1       7.871   5.199  12.769  0.00  0.00    +0.000 S 
ATOM     20  H   UNL     1       8.225   5.975  15.342  0.00  0.00    +0.000 HD
ENDBRANCH  13  14
ENDBRANCH   2  13
TORSDOF 4
ENDMDL
MODEL 4
REMARK VINA RESULT:      -6.7      4.582      7.404
REMARK  Name = 
REMARK  6 active torsions:
REMARK  status: ('A' for Active; 'I' for Inactive)
REMARK    1  A    between atoms: C_1  and  C_2
REMARK    2  A    between atoms: C_2  and  C_3
REMARK    3  A    between atoms: C_2  and  C_10
REMARK    4  A    between atoms: C_3  and  N_4
REMARK    5  A    between atoms: C_13  and  S_14
REMARK    6  A    between atoms: S_14  and  C_15
REMARK                            x       y       z     vdW  Elec       q    Type
REMARK                         _______ _______ _______ _____ _____    ______ ____
ROOT
ATOM      1  C   UNL     1       7.741   5.201  18.585  0.00  0.00    +0.000 C 
ATOM      2  C   UNL     1       6.511   5.974  18.060  0.00  0.00    +0.000 C 
ENDROOT
BRANCH   2   3
ATOM      3  C   UNL     1       5.199   5.311  18.519  0.00  0.00    +0.000 A 
ATOM      4  C   UNL     1       3.962   5.959  18.342  0.00  0.00    +0.000 A 
ATOM      5  C   UNL     1       2.769   5.396  18.795  0.00  0.00    +0.000 A 
ATOM      6  C   UNL     1       2.789   4.145  19.397  0.00  0.00    +0.000 A 
ATOM      7  C   UNL     1       3.987   3.455  19.558  0.00  0.00    +0.000 A 
ATOM      8  C   UNL     1       5.180   4.031  19.106  0.00  0.00    +0.000 A 
BRANCH   6   9
ATOM      9  S   UNL     1       1.280   3.433  19.993  0.00  0.00    +0.000 S 
ATOM     10  C   UNL     1       1.810   2.506  21.410  0.00  0.00    +0.000 C 
ATOM     11  O   UNL     1       0.434   4.518  20.452  0.00  0.00    +0.000 OA
ATOM     12  O   UNL     1       0.811   2.495  18.990  0.00  0.00    +0.000 OA
ENDBRANCH   6   9
ENDBRANCH   2   3
BRANCH   2  13
ATOM     13  C   UNL     1       6.612   6.114  16.515  0.00  0.00    +0.000 C 
BRANCH  13  14
ATOM     14  N   UNL     1       6.429   4.855  15.801  0.00  0.00    +0.000 N 
ATOM     15  C   UNL     1       6.829   4.788  14.509  0.00  0.00    +0.000 A 
ATOM     16  N   UNL     1       7.789   5.506  13.972  0.00  0.00    +0.000 NA
ATOM     17  C   UNL     1       7.937   5.180  12.637  0.00  0.00    +0.000 A 
ATOM     18  C   UNL     1       7.056   4.239  12.154  0.00  0.00    +0.000 A 
ATOM     19  S   UNL     1       6.030   3.715  13.420  0.00  0.00    +0.000 S 
ATOM     20  H   UNL     1       5.546   4.397  15.998  0.00  0.00    +0.000 HD
ENDBRANCH  13  14
ENDBRANCH   2  13
TORSDOF 4
ENDMDL
MODEL 5
REMARK VINA RESULT:      -6.6      4.546      7.322
REMARK  Name = 
REMARK  6 active torsions:
REMARK  status: ('A' for Active; 'I' for Inactive)
REMARK    1  A    between atoms: C_1  and  C_2
REMARK    2  A    between atoms: C_2  and  C_3
REMARK    3  A    between atoms: C_2  and  C_10
REMARK    4  A    between atoms: C_3  and  N_4
REMARK    5  A    between atoms: C_13  and  S_14
REMARK    6  A    between atoms: S_14  and  C_15
REMARK                            x       y       z     vdW  Elec       q    Type
REMARK                         _______ _______ _______ _____ _____    ______ ____
ROOT
ATOM      1  C   UNL     1       7.868   6.049  18.903  0.00  0.00    +0.000 C 
ATOM      2  C   UNL     1       6.689   6.424  17.978  0.00  0.00    +0.000 C 
ENDROOT
BRANCH   2   3
ATOM      3  C   UNL     1       5.442   5.577  18.293  0.00  0.00    +0.000 A 
ATOM      4  C   UNL     1       4.155   6.033  17.955  0.00  0.00    +0.000 A 
ATOM      5  C   UNL     1       3.010   5.303  18.276  0.00  0.00    +0.000 A 
ATOM      6  C   UNL     1       3.140   4.073  18.907  0.00  0.00    +0.000 A 
ATOM      7  C   UNL     1       4.397   3.569  19.227  0.00  0.00    +0.000 A 
ATOM      8  C   UNL     1       5.540   4.312  18.905  0.00  0.00    +0.000 A 
BRANCH   6   9
ATOM      9  S   UNL     1       1.690   3.150  19.337  0.00  0.00    +0.000 S 
ATOM     10  C   UNL     1       0.787   4.283  20.361  0.00  0.00    +0.000 C 
ATOM     11  O   UNL     1       0.930   2.934  18.122  0.00  0.00    +0.000 OA
ATOM     12  O   UNL     1       2.110   2.032  20.163  0.00  0.00    +0.000 OA
ENDBRANCH   6   9
ENDBRANCH   2   3
BRANCH   2  13
ATOM     13  C   UNL     1       7.142   6.308  16.495  0.00  0.00    +0.000 C 
BRANCH  13  14
ATOM     14  N   UNL     1       6.828   5.020  15.887  0.00  0.00    +0.000 N 
ATOM     15  C   UNL     1       7.027   4.877  14.555  0.00  0.00    +0.000 A 
ATOM     16  N   UNL     1       7.909   5.538  13.842  0.00  0.00    +0.000 NA
ATOM     17  C   UNL     1       7.847   5.141  12.520  0.00  0.00    +0.000 A 
ATOM     18  C   UNL     1       6.884   4.201  12.227  0.00  0.00    +0.000 A 
ATOM     19  S   UNL     1       6.052   3.771  13.659  0.00  0.00    +0.000 S 
ATOM     20  H   UNL     1       5.977   4.597  16.239  0.00  0.00    +0.000 HD
ENDBRANCH  13  14
ENDBRANCH   2  13
TORSDOF 4
ENDMDL
MODEL 6
REMARK VINA RESULT:      -6.6      3.809      6.439
REMARK  Name = 
REMARK  6 active torsions:
REMARK  status: ('A' for Active; 'I' for Inactive)
REMARK    1  A    between atoms: C_1  and  C_2
REMARK    2  A    between atoms: C_2  and  C_3
REMARK    3  A    between atoms: C_2  and  C_10
REMARK    4  A    between atoms: C_3  and  N_4
REMARK    5  A    between atoms: C_13  and  S_14
REMARK    6  A    between atoms: S_14  and  C_15
REMARK                            x       y       z     vdW  Elec       q    Type
REMARK                         _______ _______ _______ _____ _____    ______ ____
ROOT
ATOM      1  C   UNL     1       2.539   3.379  17.327  0.00  0.00    +0.000 C 
ATOM      2  C   UNL     1       2.930   3.528  18.814  0.00  0.00    +0.000 C 
ENDROOT
BRANCH   2   3
ATOM      3  C   UNL     1       2.496   4.898  19.370  0.00  0.00    +0.000 A 
ATOM      4  C   UNL     1       1.800   4.995  20.588  0.00  0.00    +0.000 A 
ATOM      5  C   UNL     1       1.355   6.221  21.083  0.00  0.00    +0.000 A 
ATOM      6  C   UNL     1       1.643   7.384  20.382  0.00  0.00    +0.000 A 
ATOM      7  C   UNL     1       2.360   7.335  19.190  0.00  0.00    +0.000 A 
ATOM      8  C   UNL     1       2.796   6.099  18.699  0.00  0.00    +0.000 A 
BRANCH   6   9
ATOM      9  S   UNL     1       1.064   8.943  20.994  0.00  0.00    +0.000 S 
ATOM     10  C   UNL     1      -0.526   8.539  21.669  0.00  0.00    +0.000 C 
ATOM     11  O   UNL     1       1.932   9.338  22.085  0.00  0.00    +0.000 OA
ATOM     12  O   UNL     1       0.859   9.815  19.851  0.00  0.00    +0.000 OA
ENDBRANCH   6   9
ENDBRANCH   2   3
BRANCH   2  13
ATOM     13  C   UNL     1       4.454   3.264  18.974  0.00  0.00    +0.000 C 
BRANCH  13  14
ATOM     14  N   UNL     1       5.254   3.769  17.865  0.00  0.00    +0.000 N 
ATOM     15  C   UNL     1       6.186   4.716  18.127  0.00  0.00    +0.000 A 
ATOM     16  N   UNL     1       6.806   4.876  19.274  0.00  0.00    +0.000 NA
ATOM     17  C   UNL     1       7.694   5.931  19.192  0.00  0.00    +0.000 A 
ATOM     18  C   UNL     1       7.716   6.597  17.987  0.00  0.00    +0.000 A 
ATOM     19  S   UNL     1       6.615   5.857  16.906  0.00  0.00    +0.000 S 
ATOM     20  H   UNL     1       4.726   3.916  17.012  0.00  0.00    +0.000 HD
ENDBRANCH  13  14
ENDBRANCH   2  13
TORSDOF 4
ENDMDL
MODEL 7
REMARK VINA RESULT:      -6.5      4.568      7.278
REMARK  Name = 
REMARK  6 active torsions:
REMARK  status: ('A' for Active; 'I' for Inactive)
REMARK    1  A    between atoms: C_1  and  C_2
REMARK    2  A    between atoms: C_2  and  C_3
REMARK    3  A    between atoms: C_2  and  C_10
REMARK    4  A    between atoms: C_3  and  N_4
REMARK    5  A    between atoms: C_13  and  S_14
REMARK    6  A    between atoms: S_14  and  C_15
REMARK                            x       y       z     vdW  Elec       q    Type
REMARK                         _______ _______ _______ _____ _____    ______ ____
ROOT
ATOM      1  C   UNL     1       7.816   5.510  18.734  0.00  0.00    +0.000 C 
ATOM      2  C   UNL     1       6.539   6.176  18.175  0.00  0.00    +0.000 C 
ENDROOT
BRANCH   2   3
ATOM      3  C   UNL     1       5.272   5.458  18.677  0.00  0.00    +0.000 A 
ATOM      4  C   UNL     1       5.341   4.154  19.201  0.00  0.00    +0.000 A 
ATOM      5  C   UNL     1       4.198   3.469  19.616  0.00  0.00    +0.000 A 
ATOM      6  C   UNL     1       2.964   4.101  19.553  0.00  0.00    +0.000 A 
ATOM      7  C   UNL     1       2.857   5.404  19.075  0.00  0.00    +0.000 A 
ATOM      8  C   UNL     1       4.009   6.081  18.656  0.00  0.00    +0.000 A 
BRANCH   6   9
ATOM      9  S   UNL     1       1.506   3.230  20.058  0.00  0.00    +0.000 S 
ATOM     10  C   UNL     1       1.053   2.332  18.597  0.00  0.00    +0.000 C 
ATOM     11  O   UNL     1       1.895   2.273  21.075  0.00  0.00    +0.000 OA
ATOM     12  O   UNL     1       0.473   4.216  20.319  0.00  0.00    +0.000 OA
ENDBRANCH   6   9
ENDBRANCH   2   3
BRANCH   2  13
ATOM     13  C   UNL     1       6.627   6.237  16.625  0.00  0.00    +0.000 C 
BRANCH  13  14
ATOM     14  N   UNL     1       6.413   4.949  15.976  0.00  0.00    +0.000 N 
ATOM     15  C   UNL     1       6.785   4.816  14.680  0.00  0.00    +0.000 A 
ATOM     16  N   UNL     1       7.742   5.494  14.090  0.00  0.00    +0.000 NA
ATOM     17  C   UNL     1       7.857   5.104  12.770  0.00  0.00    +0.000 A 
ATOM     18  C   UNL     1       6.955   4.153  12.350  0.00  0.00    +0.000 A 
ATOM     19  S   UNL     1       5.950   3.703  13.660  0.00  0.00    +0.000 S 
ATOM     20  H   UNL     1       5.530   4.512  16.213  0.00  0.00    +0.000 HD
ENDBRANCH  13  14
ENDBRANCH   2  13
TORSDOF 4
ENDMDL
MODEL 8
REMARK VINA RESULT:      -6.4      3.492      6.759
REMARK  Name = 
REMARK  6 active torsions:
REMARK  status: ('A' for Active; 'I' for Inactive)
REMARK    1  A    between atoms: C_1  and  C_2
REMARK    2  A    between atoms: C_2  and  C_3
REMARK    3  A    between atoms: C_2  and  C_10
REMARK    4  A    between atoms: C_3  and  N_4
REMARK    5  A    between atoms: C_13  and  S_14
REMARK    6  A    between atoms: S_14  and  C_15
REMARK                            x       y       z     vdW  Elec       q    Type
REMARK                         _______ _______ _______ _____ _____    ______ ____
ROOT
ATOM      1  C   UNL     1       1.552   4.128  19.502  0.00  0.00    +0.000 C 
ATOM      2  C   UNL     1       2.489   5.108  20.244  0.00  0.00    +0.000 C 
ENDROOT
BRANCH   2   3
ATOM      3  C   UNL     1       2.138   6.571  19.914  0.00  0.00    +0.000 A 
ATOM      4  C   UNL     1       1.504   7.392  20.864  0.00  0.00    +0.000 A 
ATOM      5  C   UNL     1       1.134   8.704  20.568  0.00  0.00    +0.000 A 
ATOM      6  C   UNL     1       1.436   9.233  19.320  0.00  0.00    +0.000 A 
ATOM      7  C   UNL     1       2.093   8.465  18.364  0.00  0.00    +0.000 A 
ATOM      8  C   UNL     1       2.455   7.148  18.669  0.00  0.00    +0.000 A 
BRANCH   6   9
ATOM      9  S   UNL     1       0.950  10.892  18.930  0.00  0.00    +0.000 S 
ATOM     10  C   UNL     1       0.793  11.647  20.528  0.00  0.00    +0.000 C 
ATOM     11  O   UNL     1       2.056  11.523  18.238  0.00  0.00    +0.000 OA
ATOM     12  O   UNL     1      -0.370  10.834  18.328  0.00  0.00    +0.000 OA
ENDBRANCH   6   9
ENDBRANCH   2   3
BRANCH   2  13
ATOM     13  C   UNL     1       3.967   4.751  19.919  0.00  0.00    +0.000 C 
BRANCH  13  14
ATOM     14  N   UNL     1       4.141   4.108  18.622  0.00  0.00    +0.000 N 
ATOM     15  C   UNL     1       5.319   4.280  17.976  0.00  0.00    +0.000 A 
ATOM     16  N   UNL     1       6.476   4.512  18.553  0.00  0.00    +0.000 NA
ATOM     17  C   UNL     1       7.468   4.631  17.599  0.00  0.00    +0.000 A 
ATOM     18  C   UNL     1       7.051   4.527  16.291  0.00  0.00    +0.000 A 
ATOM     19  S   UNL     1       5.365   4.234  16.252  0.00  0.00    +0.000 S 
ATOM     20  H   UNL     1       3.320   4.151  18.029  0.00  0.00    +0.000 HD
ENDBRANCH  13  14
ENDBRANCH   2  13
TORSDOF 4
ENDMDL
MODEL 9
REMARK VINA RESULT:      -6.4      4.190      6.826
REMARK  Name = 
REMARK  6 active torsions:
REMARK  status: ('A' for Active; 'I' for Inactive)
REMARK    1  A    between atoms: C_1  and  C_2
REMARK    2  A    between atoms: C_2  and  C_3
REMARK    3  A    between atoms: C_2  and  C_10
REMARK    4  A    between atoms: C_3  and  N_4
REMARK    5  A    between atoms: C_13  and  S_14
REMARK    6  A    between atoms: S_14  and  C_15
REMARK                            x       y       z     vdW  Elec       q    Type
REMARK                         _______ _______ _______ _____ _____    ______ ____
ROOT
ATOM      1  C   UNL     1       4.599   5.949  18.210  0.00  0.00    +0.000 C 
ATOM      2  C   UNL     1       3.180   6.229  17.665  0.00  0.00    +0.000 C 
ENDROOT
BRANCH   2   3
ATOM      3  C   UNL     1       2.469   7.314  18.496  0.00  0.00    +0.000 A 
ATOM      4  C   UNL     1       2.197   7.115  19.862  0.00  0.00    +0.000 A 
ATOM      5  C   UNL     1       1.512   8.065  20.619  0.00  0.00    +0.000 A 
ATOM      6  C   UNL     1       1.123   9.259  20.026  0.00  0.00    +0.000 A 
ATOM      7  C   UNL     1       1.405   9.510  18.687  0.00  0.00    +0.000 A 
ATOM      8  C   UNL     1       2.088   8.548  17.934  0.00  0.00    +0.000 A 
BRANCH   6   9
ATOM      9  S   UNL     1       0.234  10.461  20.977  0.00  0.00    +0.000 S 
ATOM     10  C   UNL     1      -0.256   9.547  22.416  0.00  0.00    +0.000 C 
ATOM     11  O   UNL     1       1.177  11.482  21.388  0.00  0.00    +0.000 OA
ATOM     12  O   UNL     1      -0.965  10.808  20.235  0.00  0.00    +0.000 OA
ENDBRANCH   6   9
ENDBRANCH   2   3
BRANCH   2  13
ATOM     13  C   UNL     1       2.382   4.897  17.598  0.00  0.00    +0.000 C 
BRANCH  13  14
ATOM     14  N   UNL     1       3.049   3.783  18.263  0.00  0.00    +0.000 N 
ATOM     15  C   UNL     1       2.569   3.374  19.461  0.00  0.00    +0.000 A 
ATOM     16  N   UNL     1       1.324   3.494  19.864  0.00  0.00    +0.000 NA
ATOM     17  C   UNL     1       1.182   2.969  21.134  0.00  0.00    +0.000 A 
ATOM     18  C   UNL     1       2.335   2.484  21.709  0.00  0.00    +0.000 A 
ATOM     19  S   UNL     1       3.637   2.657  20.611  0.00  0.00    +0.000 S 
ATOM     20  H   UNL     1       4.060   3.810  18.195  0.00  0.00    +0.000 HD
ENDBRANCH  13  14
ENDBRANCH   2  13
TORSDOF 4
ENDMDL
