MODEL 1
REMARK VINA RESULT:      -8.1      0.000      0.000
REMARK  Name = 
REMARK  10 active torsions:
REMARK  status: ('A' for Active; 'I' for Inactive)
REMARK    1  A    between atoms: C_2  and  C_16
REMARK    2  A    between atoms: N_3  and  C_4
REMARK    3  A    between atoms: C_4  and  C_5
REMARK    4  A    between atoms: C_5  and  N_6
REMARK    5  A    between atoms: N_6  and  C_7
REMARK    6  A    between atoms: C_10  and  N_11
REMARK    7  A    between atoms: C_19  and  C_20
REMARK    8  A    between atoms: C_20  and  S_21
REMARK    9  A    between atoms: S_21  and  C_22
REMARK   10  A    between atoms: N_26  and  C_27
REMARK                            x       y       z     vdW  Elec       q    Type
REMARK                         _______ _______ _______ _____ _____    ______ ____
ROOT
ATOM      1  C   UNL     1       1.840   6.632  19.865  0.00  0.00    +0.000 A 
ATOM      2  C   UNL     1       2.357   6.999  18.618  0.00  0.00    +0.000 A 
ATOM      3  C   UNL     1       2.286   8.332  18.190  0.00  0.00    +0.000 A 
ATOM      4  C   UNL     1       1.694   9.323  18.992  0.00  0.00    +0.000 A 
ATOM      5  C   UNL     1       1.193   8.950  20.246  0.00  0.00    +0.000 A 
ATOM      6  C   UNL     1       1.270   7.619  20.680  0.00  0.00    +0.000 A 
ENDROOT
BRANCH   1   8
ATOM      7  O   UNL     1       2.534   4.977  21.403  0.00  0.00    +0.000 OA
ATOM      8  C   UNL     1       1.899   5.231  20.385  0.00  0.00    +0.000 C 
ATOM      9  N   UNL     1       1.194   4.270  19.688  0.00  0.00    +0.000 N 
ATOM     10  H   UNL     1       0.614   4.538  18.906  0.00  0.00    +0.000 HD
BRANCH   9  11
ATOM     11  C   UNL     1       1.164   2.886  20.147  0.00  0.00    +0.000 C 
BRANCH  11  12
ATOM     12  C   UNL     1       2.138   1.992  19.369  0.00  0.00    +0.000 C 
BRANCH  12  13
ATOM     13  N   UNL     1       3.537   2.313  19.645  0.00  0.00    +0.000 N 
ATOM     14  H   UNL     1       3.777   2.425  20.629  0.00  0.00    +0.000 HD
BRANCH  13  15
ATOM     15  C   UNL     1       4.243   3.162  18.789  0.00  0.00    +0.000 A 
ATOM     16  C   UNL     1       5.213   4.073  19.247  0.00  0.00    +0.000 A 
ATOM     17  C   UNL     1       5.836   4.977  18.386  0.00  0.00    +0.000 A 
ATOM     18  C   UNL     1       5.482   5.000  17.037  0.00  0.00    +0.000 A 
ATOM     19  C   UNL     1       4.502   4.127  16.556  0.00  0.00    +0.000 A 
ATOM     20  C   UNL     1       3.887   3.222  17.433  0.00  0.00    +0.000 A 
BRANCH  18  21
ATOM     21  N   UNL     1       6.134   5.952  16.128  0.00  0.00    +0.000 N 
ATOM     22  O   UNL     1       7.353   6.145  16.281  0.00  0.00    +0.000 OA
ATOM     23  O   UNL     1       5.435   6.503  15.266  0.00  0.00    +0.000 OA
ENDBRANCH  18  21
ENDBRANCH  13  15
ENDBRANCH  12  13
ENDBRANCH  11  12
ENDBRANCH   9  11
ENDBRANCH   1   8
BRANCH   4  24
ATOM     24  C   UNL     1       1.619  10.767  18.527  0.00  0.00    +0.000 C 
BRANCH  24  25
ATOM     25  S   UNL     1       0.230  11.634  19.307  0.00  0.00    +0.000 S 
BRANCH  25  26
ATOM     26  C   UNL     1       1.001  12.644  20.492  0.00  0.00    +0.000 A 
ATOM     27  N   UNL     1       2.240  13.075  20.436  0.00  0.00    +0.000 NA
ATOM     28  N   UNL     1       2.360  13.998  21.440  0.00  0.00    +0.000 NA
ATOM     29  N   UNL     1       1.215  14.159  22.089  0.00  0.00    +0.000 NA
ATOM     30  N   UNL     1       0.348  13.256  21.559  0.00  0.00    +0.000 N 
BRANCH  30  31
ATOM     31  C   UNL     1      -0.953  13.092  22.099  0.00  0.00    +0.000 A 
ATOM     32  C   UNL     1      -1.255  11.940  22.833  0.00  0.00    +0.000 A 
ATOM     33  C   UNL     1      -2.515  11.788  23.416  0.00  0.00    +0.000 A 
ATOM     34  C   UNL     1      -3.491  12.770  23.241  0.00  0.00    +0.000 A 
ATOM     35  C   UNL     1      -3.210  13.898  22.477  0.00  0.00    +0.000 A 
ATOM     36  C   UNL     1      -1.947  14.062  21.903  0.00  0.00    +0.000 A 
ENDBRANCH  30  31
ENDBRANCH  25  26
ENDBRANCH  24  25
ENDBRANCH   4  24
TORSDOF 10
ENDMDL
MODEL 2
REMARK VINA RESULT:      -8.1      5.213      8.753
REMARK  Name = 
REMARK  10 active torsions:
REMARK  status: ('A' for Active; 'I' for Inactive)
REMARK    1  A    between atoms: C_2  and  C_16
REMARK    2  A    between atoms: N_3  and  C_4
REMARK    3  A    between atoms: C_4  and  C_5
REMARK    4  A    between atoms: C_5  and  N_6
REMARK    5  A    between atoms: N_6  and  C_7
REMARK    6  A    between atoms: C_10  and  N_11
REMARK    7  A    between atoms: C_19  and  C_20
REMARK    8  A    between atoms: C_20  and  S_21
REMARK    9  A    between atoms: S_21  and  C_22
REMARK   10  A    between atoms: N_26  and  C_27
REMARK                            x       y       z     vdW  Elec       q    Type
REMARK                         _______ _______ _______ _____ _____    ______ ____
ROOT
ATOM      1  C   UNL     1       5.955   5.040  17.116  0.00  0.00    +0.000 A 
ATOM      2  C   UNL     1       5.847   4.443  18.377  0.00  0.00    +0.000 A 
ATOM      3  C   UNL     1       4.836   3.506  18.629  0.00  0.00    +0.000 A 
ATOM      4  C   UNL     1       3.909   3.151  17.634  0.00  0.00    +0.000 A 
ATOM      5  C   UNL     1       4.033   3.742  16.370  0.00  0.00    +0.000 A 
ATOM      6  C   UNL     1       5.050   4.673  16.112  0.00  0.00    +0.000 A 
ENDROOT
BRANCH   1   8
ATOM      7  O   UNL     1       7.666   5.920  15.742  0.00  0.00    +0.000 OA
ATOM      8  C   UNL     1       7.021   6.034  16.779  0.00  0.00    +0.000 C 
ATOM      9  N   UNL     1       7.213   7.076  17.664  0.00  0.00    +0.000 N 
ATOM     10  H   UNL     1       6.601   7.180  18.460  0.00  0.00    +0.000 HD
BRANCH   9  11
ATOM     11  C   UNL     1       8.204   8.112  17.395  0.00  0.00    +0.000 C 
BRANCH  11  12
ATOM     12  C   UNL     1       7.930   9.401  18.179  0.00  0.00    +0.000 C 
BRANCH  12  13
ATOM     13  N   UNL     1       9.057   9.797  19.020  0.00  0.00    +0.000 N 
ATOM     14  H   UNL     1       9.024   9.468  19.984  0.00  0.00    +0.000 HD
BRANCH  13  15
ATOM     15  C   UNL     1       9.633  11.062  18.872  0.00  0.00    +0.000 A 
ATOM     16  C   UNL     1       9.358  12.132  19.744  0.00  0.00    +0.000 A 
ATOM     17  C   UNL     1       9.869  13.410  19.520  0.00  0.00    +0.000 A 
ATOM     18  C   UNL     1      10.660  13.650  18.397  0.00  0.00    +0.000 A 
ATOM     19  C   UNL     1      10.929  12.615  17.496  0.00  0.00    +0.000 A 
ATOM     20  C   UNL     1      10.410  11.334  17.737  0.00  0.00    +0.000 A 
BRANCH  18  21
ATOM     21  N   UNL     1      11.198  14.996  18.157  0.00  0.00    +0.000 N 
ATOM     22  O   UNL     1      11.686  15.598  19.130  0.00  0.00    +0.000 OA
ATOM     23  O   UNL     1      11.136  15.449  17.005  0.00  0.00    +0.000 OA
ENDBRANCH  18  21
ENDBRANCH  13  15
ENDBRANCH  12  13
ENDBRANCH  11  12
ENDBRANCH   9  11
ENDBRANCH   1   8
BRANCH   4  24
ATOM     24  C   UNL     1       2.814   2.135  17.911  0.00  0.00    +0.000 C 
BRANCH  24  25
ATOM     25  S   UNL     1       1.298   2.948  18.485  0.00  0.00    +0.000 S 
BRANCH  25  26
ATOM     26  C   UNL     1       1.636   3.295  20.154  0.00  0.00    +0.000 A 
ATOM     27  N   UNL     1       1.741   2.403  21.112  0.00  0.00    +0.000 NA
ATOM     28  N   UNL     1       2.221   3.080  22.201  0.00  0.00    +0.000 NA
ATOM     29  N   UNL     1       2.435   4.359  21.921  0.00  0.00    +0.000 NA
ATOM     30  N   UNL     1       2.001   4.546  20.647  0.00  0.00    +0.000 N 
BRANCH  30  31
ATOM     31  C   UNL     1       1.993   5.838  20.062  0.00  0.00    +0.000 A 
ATOM     32  C   UNL     1       1.485   6.921  20.788  0.00  0.00    +0.000 A 
ATOM     33  C   UNL     1       1.519   8.208  20.248  0.00  0.00    +0.000 A 
ATOM     34  C   UNL     1       2.031   8.416  18.967  0.00  0.00    +0.000 A 
ATOM     35  C   UNL     1       2.498   7.337  18.223  0.00  0.00    +0.000 A 
ATOM     36  C   UNL     1       2.480   6.050  18.764  0.00  0.00    +0.000 A 
ENDBRANCH  30  31
ENDBRANCH  25  26
ENDBRANCH  24  25
ENDBRANCH   4  24
TORSDOF 10
ENDMDL
MODEL 3
REMARK VINA RESULT:      -7.8      5.326      8.772
REMARK  Name = 
REMARK  10 active torsions:
REMARK  status: ('A' for Active; 'I' for Inactive)
REMARK    1  A    between atoms: C_2  and  C_16
REMARK    2  A    between atoms: N_3  and  C_4
REMARK    3  A    between atoms: C_4  and  C_5
REMARK    4  A    between atoms: C_5  and  N_6
REMARK    5  A    between atoms: N_6  and  C_7
REMARK    6  A    between atoms: C_10  and  N_11
REMARK    7  A    between atoms: C_19  and  C_20
REMARK    8  A    between atoms: C_20  and  S_21
REMARK    9  A    between atoms: S_21  and  C_22
REMARK   10  A    between atoms: N_26  and  C_27
REMARK                            x       y       z     vdW  Elec       q    Type
REMARK                         _______ _______ _______ _____ _____    ______ ____
ROOT
ATOM      1  C   UNL     1       6.170   5.236  17.954  0.00  0.00    +0.000 A 
ATOM      2  C   UNL     1       5.452   5.039  16.769  0.00  0.00    +0.000 A 
ATOM      3  C   UNL     1       4.425   4.086  16.718  0.00  0.00    +0.000 A 
ATOM      4  C   UNL     1       4.098   3.308  17.842  0.00  0.00    +0.000 A 
ATOM      5  C   UNL     1       4.812   3.522  19.028  0.00  0.00    +0.000 A 
ATOM      6  C   UNL     1       5.834   4.481  19.084  0.00  0.00    +0.000 A 
ENDROOT
BRANCH   1   8
ATOM      7  O   UNL     1       8.176   6.075  18.881  0.00  0.00    +0.000 OA
ATOM      8  C   UNL     1       7.266   6.247  18.077  0.00  0.00    +0.000 C 
ATOM      9  N   UNL     1       7.212   7.342  17.237  0.00  0.00    +0.000 N 
ATOM     10  H   UNL     1       6.492   7.399  16.531  0.00  0.00    +0.000 HD
BRANCH   9  11
ATOM     11  C   UNL     1       8.259   8.356  17.263  0.00  0.00    +0.000 C 
BRANCH  11  12
ATOM     12  C   UNL     1       7.893   9.552  18.150  0.00  0.00    +0.000 C 
BRANCH  12  13
ATOM     13  N   UNL     1       9.019  10.017  18.957  0.00  0.00    +0.000 N 
ATOM     14  H   UNL     1       8.979   9.781  19.947  0.00  0.00    +0.000 HD
BRANCH  13  15
ATOM     15  C   UNL     1       9.605  11.259  18.694  0.00  0.00    +0.000 A 
ATOM     16  C   UNL     1      10.542  11.458  17.664  0.00  0.00    +0.000 A 
ATOM     17  C   UNL     1      11.184  12.683  17.482  0.00  0.00    +0.000 A 
ATOM     18  C   UNL     1      10.911  13.740  18.349  0.00  0.00    +0.000 A 
ATOM     19  C   UNL     1      10.004  13.567  19.400  0.00  0.00    +0.000 A 
ATOM     20  C   UNL     1       9.365  12.330  19.568  0.00  0.00    +0.000 A 
BRANCH  18  21
ATOM     21  N   UNL     1      11.586  15.031  18.162  0.00  0.00    +0.000 N 
ATOM     22  O   UNL     1      11.367  15.919  19.005  0.00  0.00    +0.000 OA
ATOM     23  O   UNL     1      12.333  15.158  17.182  0.00  0.00    +0.000 OA
ENDBRANCH  18  21
ENDBRANCH  13  15
ENDBRANCH  12  13
ENDBRANCH  11  12
ENDBRANCH   9  11
ENDBRANCH   1   8
BRANCH   4  24
ATOM     24  C   UNL     1       2.984   2.277  17.784  0.00  0.00    +0.000 C 
BRANCH  24  25
ATOM     25  S   UNL     1       1.399   2.998  18.293  0.00  0.00    +0.000 S 
BRANCH  25  26
ATOM     26  C   UNL     1       1.604   3.254  19.998  0.00  0.00    +0.000 A 
ATOM     27  N   UNL     1       1.652   2.311  20.911  0.00  0.00    +0.000 NA
ATOM     28  N   UNL     1       2.036   2.932  22.070  0.00  0.00    +0.000 NA
ATOM     29  N   UNL     1       2.250   4.227  21.877  0.00  0.00    +0.000 NA
ATOM     30  N   UNL     1       1.911   4.480  20.586  0.00  0.00    +0.000 N 
BRANCH  30  31
ATOM     31  C   UNL     1       1.926   5.802  20.074  0.00  0.00    +0.000 A 
ATOM     32  C   UNL     1       1.446   6.853  20.864  0.00  0.00    +0.000 A 
ATOM     33  C   UNL     1       1.504   8.168  20.397  0.00  0.00    +0.000 A 
ATOM     34  C   UNL     1       2.011   8.436  19.125  0.00  0.00    +0.000 A 
ATOM     35  C   UNL     1       2.450   7.392  18.319  0.00  0.00    +0.000 A 
ATOM     36  C   UNL     1       2.409   6.076  18.787  0.00  0.00    +0.000 A 
ENDBRANCH  30  31
ENDBRANCH  25  26
ENDBRANCH  24  25
ENDBRANCH   4  24
TORSDOF 10
ENDMDL
MODEL 4
REMARK VINA RESULT:      -7.7      2.540      3.505
REMARK  Name = 
REMARK  10 active torsions:
REMARK  status: ('A' for Active; 'I' for Inactive)
REMARK    1  A    between atoms: C_2  and  C_16
REMARK    2  A    between atoms: N_3  and  C_4
REMARK    3  A    between atoms: C_4  and  C_5
REMARK    4  A    between atoms: C_5  and  N_6
REMARK    5  A    between atoms: N_6  and  C_7
REMARK    6  A    between atoms: C_10  and  N_11
REMARK    7  A    between atoms: C_19  and  C_20
REMARK    8  A    between atoms: C_20  and  S_21
REMARK    9  A    between atoms: S_21  and  C_22
REMARK   10  A    between atoms: N_26  and  C_27
REMARK                            x       y       z     vdW  Elec       q    Type
REMARK                         _______ _______ _______ _____ _____    ______ ____
ROOT
ATOM      1  C   UNL     1       1.024   9.031  20.370  0.00  0.00    +0.000 A 
ATOM      2  C   UNL     1       0.224  10.040  19.821  0.00  0.00    +0.000 A 
ATOM      3  C   UNL     1      -0.568  10.842  20.653  0.00  0.00    +0.000 A 
ATOM      4  C   UNL     1      -0.585  10.652  22.046  0.00  0.00    +0.000 A 
ATOM      5  C   UNL     1       0.230   9.650  22.589  0.00  0.00    +0.000 A 
ATOM      6  C   UNL     1       1.030   8.852  21.759  0.00  0.00    +0.000 A 
ENDROOT
BRANCH   1   8
ATOM      7  O   UNL     1       2.173   8.466  18.383  0.00  0.00    +0.000 OA
ATOM      8  C   UNL     1       1.903   8.152  19.538  0.00  0.00    +0.000 C 
ATOM      9  N   UNL     1       2.403   7.013  20.136  0.00  0.00    +0.000 N 
ATOM     10  H   UNL     1       2.226   6.839  21.115  0.00  0.00    +0.000 HD
BRANCH   9  11
ATOM     11  C   UNL     1       3.299   6.120  19.411  0.00  0.00    +0.000 C 
BRANCH  11  12
ATOM     12  C   UNL     1       3.134   4.655  19.836  0.00  0.00    +0.000 C 
BRANCH  12  13
ATOM     13  N   UNL     1       4.324   3.854  19.560  0.00  0.00    +0.000 N 
ATOM     14  H   UNL     1       4.929   3.673  20.360  0.00  0.00    +0.000 HD
BRANCH  13  15
ATOM     15  C   UNL     1       5.013   4.013  18.354  0.00  0.00    +0.000 A 
ATOM     16  C   UNL     1       6.288   4.605  18.276  0.00  0.00    +0.000 A 
ATOM     17  C   UNL     1       6.914   4.840  17.052  0.00  0.00    +0.000 A 
ATOM     18  C   UNL     1       6.261   4.501  15.867  0.00  0.00    +0.000 A 
ATOM     19  C   UNL     1       4.983   3.936  15.909  0.00  0.00    +0.000 A 
ATOM     20  C   UNL     1       4.368   3.703  17.148  0.00  0.00    +0.000 A 
BRANCH  18  21
ATOM     21  N   UNL     1       6.917   4.749  14.576  0.00  0.00    +0.000 N 
ATOM     22  O   UNL     1       6.499   4.116  13.591  0.00  0.00    +0.000 OA
ATOM     23  O   UNL     1       7.843   5.573  14.545  0.00  0.00    +0.000 OA
ENDBRANCH  18  21
ENDBRANCH  13  15
ENDBRANCH  12  13
ENDBRANCH  11  12
ENDBRANCH   9  11
ENDBRANCH   1   8
BRANCH   4  24
ATOM     24  C   UNL     1      -1.445  11.524  22.945  0.00  0.00    +0.000 C 
BRANCH  24  25
ATOM     25  S   UNL     1      -1.513  13.229  22.330  0.00  0.00    +0.000 S 
BRANCH  25  26
ATOM     26  C   UNL     1      -1.655  14.173  23.781  0.00  0.00    +0.000 A 
ATOM     27  N   UNL     1      -0.680  14.836  24.359  0.00  0.00    +0.000 NA
ATOM     28  N   UNL     1      -1.271  15.600  25.330  0.00  0.00    +0.000 NA
ATOM     29  N   UNL     1      -2.587  15.438  25.339  0.00  0.00    +0.000 NA
ATOM     30  N   UNL     1      -2.858  14.479  24.415  0.00  0.00    +0.000 N 
BRANCH  30  31
ATOM     31  C   UNL     1      -4.177  13.988  24.239  0.00  0.00    +0.000 A 
ATOM     32  C   UNL     1      -4.479  12.674  24.612  0.00  0.00    +0.000 A 
ATOM     33  C   UNL     1      -5.785  12.193  24.495  0.00  0.00    +0.000 A 
ATOM     34  C   UNL     1      -6.789  13.011  23.975  0.00  0.00    +0.000 A 
ATOM     35  C   UNL     1      -6.485  14.305  23.564  0.00  0.00    +0.000 A 
ATOM     36  C   UNL     1      -5.184  14.796  23.692  0.00  0.00    +0.000 A 
ENDBRANCH  30  31
ENDBRANCH  25  26
ENDBRANCH  24  25
ENDBRANCH   4  24
TORSDOF 10
ENDMDL
MODEL 5
REMARK VINA RESULT:      -7.7      1.688      3.277
REMARK  Name = 
REMARK  10 active torsions:
REMARK  status: ('A' for Active; 'I' for Inactive)
REMARK    1  A    between atoms: C_2  and  C_16
REMARK    2  A    between atoms: N_3  and  C_4
REMARK    3  A    between atoms: C_4  and  C_5
REMARK    4  A    between atoms: C_5  and  N_6
REMARK    5  A    between atoms: N_6  and  C_7
REMARK    6  A    between atoms: C_10  and  N_11
REMARK    7  A    between atoms: C_19  and  C_20
REMARK    8  A    between atoms: C_20  and  S_21
REMARK    9  A    between atoms: S_21  and  C_22
REMARK   10  A    between atoms: N_26  and  C_27
REMARK                            x       y       z     vdW  Elec       q    Type
REMARK                         _______ _______ _______ _____ _____    ______ ____
ROOT
ATOM      1  C   UNL     1       1.802   6.460  19.900  0.00  0.00    +0.000 A 
ATOM      2  C   UNL     1       1.358   7.494  20.732  0.00  0.00    +0.000 A 
ATOM      3  C   UNL     1       1.314   8.812  20.256  0.00  0.00    +0.000 A 
ATOM      4  C   UNL     1       1.717   9.126  18.946  0.00  0.00    +0.000 A 
ATOM      5  C   UNL     1       2.146   8.083  18.115  0.00  0.00    +0.000 A 
ATOM      6  C   UNL     1       2.183   6.763  18.587  0.00  0.00    +0.000 A 
ENDROOT
BRANCH   1   8
ATOM      7  O   UNL     1       2.418   4.734  21.393  0.00  0.00    +0.000 OA
ATOM      8  C   UNL     1       1.859   5.032  20.344  0.00  0.00    +0.000 C 
ATOM      9  N   UNL     1       1.236   4.098  19.540  0.00  0.00    +0.000 N 
ATOM     10  H   UNL     1       0.713   4.398  18.731  0.00  0.00    +0.000 HD
BRANCH   9  11
ATOM     11  C   UNL     1       1.209   2.689  19.916  0.00  0.00    +0.000 C 
BRANCH  11  12
ATOM     12  C   UNL     1       2.302   1.875  19.212  0.00  0.00    +0.000 C 
BRANCH  12  13
ATOM     13  N   UNL     1       3.647   2.356  19.522  0.00  0.00    +0.000 N 
ATOM     14  H   UNL     1       3.837   2.525  20.509  0.00  0.00    +0.000 HD
BRANCH  13  15
ATOM     15  C   UNL     1       4.289   3.248  18.660  0.00  0.00    +0.000 A 
ATOM     16  C   UNL     1       4.068   3.260  17.271  0.00  0.00    +0.000 A 
ATOM     17  C   UNL     1       4.792   4.095  16.419  0.00  0.00    +0.000 A 
ATOM     18  C   UNL     1       5.775   4.932  16.946  0.00  0.00    +0.000 A 
ATOM     19  C   UNL     1       6.038   4.925  18.319  0.00  0.00    +0.000 A 
ATOM     20  C   UNL     1       5.300   4.082  19.163  0.00  0.00    +0.000 A 
BRANCH  18  21
ATOM     21  N   UNL     1       6.540   5.812  16.053  0.00  0.00    +0.000 N 
ATOM     22  O   UNL     1       6.186   5.865  14.862  0.00  0.00    +0.000 OA
ATOM     23  O   UNL     1       7.488   6.447  16.536  0.00  0.00    +0.000 OA
ENDBRANCH  18  21
ENDBRANCH  13  15
ENDBRANCH  12  13
ENDBRANCH  11  12
ENDBRANCH   9  11
ENDBRANCH   1   8
BRANCH   4  24
ATOM     24  C   UNL     1       1.667  10.554  18.433  0.00  0.00    +0.000 C 
BRANCH  24  25
ATOM     25  S   UNL     1      -0.002  11.248  18.591  0.00  0.00    +0.000 S 
BRANCH  25  26
ATOM     26  C   UNL     1       0.056  12.095  20.106  0.00  0.00    +0.000 A 
ATOM     27  N   UNL     1      -0.501  11.695  21.226  0.00  0.00    +0.000 NA
ATOM     28  N   UNL     1      -0.030  12.536  22.198  0.00  0.00    +0.000 NA
ATOM     29  N   UNL     1       0.823  13.422  21.701  0.00  0.00    +0.000 NA
ATOM     30  N   UNL     1       0.842  13.218  20.358  0.00  0.00    +0.000 N 
BRANCH  30  31
ATOM     31  C   UNL     1       1.584  14.071  19.502  0.00  0.00    +0.000 A 
ATOM     32  C   UNL     1       1.046  15.307  19.125  0.00  0.00    +0.000 A 
ATOM     33  C   UNL     1       1.786  16.182  18.327  0.00  0.00    +0.000 A 
ATOM     34  C   UNL     1       3.053  15.813  17.873  0.00  0.00    +0.000 A 
ATOM     35  C   UNL     1       3.575  14.568  18.209  0.00  0.00    +0.000 A 
ATOM     36  C   UNL     1       2.846  13.695  19.019  0.00  0.00    +0.000 A 
ENDBRANCH  30  31
ENDBRANCH  25  26
ENDBRANCH  24  25
ENDBRANCH   4  24
TORSDOF 10
ENDMDL
MODEL 6
REMARK VINA RESULT:      -7.7      4.299      5.555
REMARK  Name = 
REMARK  10 active torsions:
REMARK  status: ('A' for Active; 'I' for Inactive)
REMARK    1  A    between atoms: C_2  and  C_16
REMARK    2  A    between atoms: N_3  and  C_4
REMARK    3  A    between atoms: C_4  and  C_5
REMARK    4  A    between atoms: C_5  and  N_6
REMARK    5  A    between atoms: N_6  and  C_7
REMARK    6  A    between atoms: C_10  and  N_11
REMARK    7  A    between atoms: C_19  and  C_20
REMARK    8  A    between atoms: C_20  and  S_21
REMARK    9  A    between atoms: S_21  and  C_22
REMARK   10  A    between atoms: N_26  and  C_27
REMARK                            x       y       z     vdW  Elec       q    Type
REMARK                         _______ _______ _______ _____ _____    ______ ____
ROOT
ATOM      1  C   UNL     1      -1.045  10.520  18.286  0.00  0.00    +0.000 A 
ATOM      2  C   UNL     1      -1.768   9.939  17.238  0.00  0.00    +0.000 A 
ATOM      3  C   UNL     1      -3.118  10.265  17.047  0.00  0.00    +0.000 A 
ATOM      4  C   UNL     1      -3.776  11.168  17.900  0.00  0.00    +0.000 A 
ATOM      5  C   UNL     1      -3.041  11.756  18.938  0.00  0.00    +0.000 A 
ATOM      6  C   UNL     1      -1.688  11.439  19.125  0.00  0.00    +0.000 A 
ENDROOT
BRANCH   1   8
ATOM      7  O   UNL     1       1.140  11.097  18.976  0.00  0.00    +0.000 OA
ATOM      8  C   UNL     1       0.401  10.226  18.533  0.00  0.00    +0.000 C 
ATOM      9  N   UNL     1       0.838   8.943  18.267  0.00  0.00    +0.000 N 
ATOM     10  H   UNL     1       0.176   8.234  17.986  0.00  0.00    +0.000 HD
BRANCH   9  11
ATOM     11  C   UNL     1       2.222   8.559  18.515  0.00  0.00    +0.000 C 
BRANCH  11  12
ATOM     12  C   UNL     1       2.337   7.404  19.518  0.00  0.00    +0.000 C 
BRANCH  12  13
ATOM     13  N   UNL     1       2.457   6.103  18.864  0.00  0.00    +0.000 N 
ATOM     14  H   UNL     1       1.839   5.374  19.219  0.00  0.00    +0.000 HD
BRANCH  13  15
ATOM     15  C   UNL     1       3.708   5.636  18.455  0.00  0.00    +0.000 A 
ATOM     16  C   UNL     1       4.811   5.547  19.324  0.00  0.00    +0.000 A 
ATOM     17  C   UNL     1       6.075   5.169  18.870  0.00  0.00    +0.000 A 
ATOM     18  C   UNL     1       6.266   4.886  17.518  0.00  0.00    +0.000 A 
ATOM     19  C   UNL     1       5.197   4.991  16.623  0.00  0.00    +0.000 A 
ATOM     20  C   UNL     1       3.932   5.370  17.096  0.00  0.00    +0.000 A 
BRANCH  18  21
ATOM     21  N   UNL     1       7.596   4.490  17.036  0.00  0.00    +0.000 N 
ATOM     22  O   UNL     1       7.821   4.607  15.819  0.00  0.00    +0.000 OA
ATOM     23  O   UNL     1       8.411   4.066  17.867  0.00  0.00    +0.000 OA
ENDBRANCH  18  21
ENDBRANCH  13  15
ENDBRANCH  12  13
ENDBRANCH  11  12
ENDBRANCH   9  11
ENDBRANCH   1   8
BRANCH   4  24
ATOM     24  C   UNL     1      -5.238  11.519  17.691  0.00  0.00    +0.000 C 
BRANCH  24  25
ATOM     25  S   UNL     1      -5.802  12.728  18.920  0.00  0.00    +0.000 S 
BRANCH  25  26
ATOM     26  C   UNL     1      -6.741  11.770  20.024  0.00  0.00    +0.000 A 
ATOM     27  N   UNL     1      -7.266  10.596  19.758  0.00  0.00    +0.000 NA
ATOM     28  N   UNL     1      -7.725  10.113  20.955  0.00  0.00    +0.000 NA
ATOM     29  N   UNL     1      -7.467  10.954  21.947  0.00  0.00    +0.000 NA
ATOM     30  N   UNL     1      -6.908  12.054  21.378  0.00  0.00    +0.000 N 
BRANCH  30  31
ATOM     31  C   UNL     1      -6.599  13.199  22.155  0.00  0.00    +0.000 A 
ATOM     32  C   UNL     1      -7.386  14.350  22.030  0.00  0.00    +0.000 A 
ATOM     33  C   UNL     1      -7.128  15.468  22.827  0.00  0.00    +0.000 A 
ATOM     34  C   UNL     1      -6.063  15.454  23.728  0.00  0.00    +0.000 A 
ATOM     35  C   UNL     1      -5.252  14.328  23.826  0.00  0.00    +0.000 A 
ATOM     36  C   UNL     1      -5.514  13.202  23.042  0.00  0.00    +0.000 A 
ENDBRANCH  30  31
ENDBRANCH  25  26
ENDBRANCH  24  25
ENDBRANCH   4  24
TORSDOF 10
ENDMDL
MODEL 7
REMARK VINA RESULT:      -7.7      3.946     11.236
REMARK  Name = 
REMARK  10 active torsions:
REMARK  status: ('A' for Active; 'I' for Inactive)
REMARK    1  A    between atoms: C_2  and  C_16
REMARK    2  A    between atoms: N_3  and  C_4
REMARK    3  A    between atoms: C_4  and  C_5
REMARK    4  A    between atoms: C_5  and  N_6
REMARK    5  A    between atoms: N_6  and  C_7
REMARK    6  A    between atoms: C_10  and  N_11
REMARK    7  A    between atoms: C_19  and  C_20
REMARK    8  A    between atoms: C_20  and  S_21
REMARK    9  A    between atoms: S_21  and  C_22
REMARK   10  A    between atoms: N_26  and  C_27
REMARK                            x       y       z     vdW  Elec       q    Type
REMARK                         _______ _______ _______ _____ _____    ______ ____
ROOT
ATOM      1  C   UNL     1       1.642   8.203  19.498  0.00  0.00    +0.000 A 
ATOM      2  C   UNL     1       2.228   7.910  18.261  0.00  0.00    +0.000 A 
ATOM      3  C   UNL     1       2.792   6.648  18.030  0.00  0.00    +0.000 A 
ATOM      4  C   UNL     1       2.790   5.656  19.026  0.00  0.00    +0.000 A 
ATOM      5  C   UNL     1       2.187   5.952  20.256  0.00  0.00    +0.000 A 
ATOM      6  C   UNL     1       1.615   7.211  20.487  0.00  0.00    +0.000 A 
ENDROOT
BRANCH   1   8
ATOM      7  O   UNL     1       0.421   9.696  20.863  0.00  0.00    +0.000 OA
ATOM      8  C   UNL     1       1.010   9.524  19.802  0.00  0.00    +0.000 C 
ATOM      9  N   UNL     1       1.149  10.522  18.857  0.00  0.00    +0.000 N 
ATOM     10  H   UNL     1       1.717  10.363  18.037  0.00  0.00    +0.000 HD
BRANCH   9  11
ATOM     11  C   UNL     1       0.599  11.851  19.089  0.00  0.00    +0.000 C 
BRANCH  11  12
ATOM     12  C   UNL     1      -0.846  11.981  18.590  0.00  0.00    +0.000 C 
BRANCH  12  13
ATOM     13  N   UNL     1      -1.550  13.108  19.198  0.00  0.00    +0.000 N 
ATOM     14  H   UNL     1      -1.126  14.023  19.053  0.00  0.00    +0.000 HD
BRANCH  13  15
ATOM     15  C   UNL     1      -2.165  12.960  20.445  0.00  0.00    +0.000 A 
ATOM     16  C   UNL     1      -3.556  13.060  20.626  0.00  0.00    +0.000 A 
ATOM     17  C   UNL     1      -4.137  13.004  21.893  0.00  0.00    +0.000 A 
ATOM     18  C   UNL     1      -3.325  12.865  23.019  0.00  0.00    +0.000 A 
ATOM     19  C   UNL     1      -1.936  12.791  22.875  0.00  0.00    +0.000 A 
ATOM     20  C   UNL     1      -1.368  12.845  21.594  0.00  0.00    +0.000 A 
BRANCH  18  21
ATOM     21  N   UNL     1      -3.933  12.809  24.354  0.00  0.00    +0.000 N 
ATOM     22  O   UNL     1      -4.693  11.854  24.597  0.00  0.00    +0.000 OA
ATOM     23  O   UNL     1      -3.654  13.710  25.158  0.00  0.00    +0.000 OA
ENDBRANCH  18  21
ENDBRANCH  13  15
ENDBRANCH  12  13
ENDBRANCH  11  12
ENDBRANCH   9  11
ENDBRANCH   1   8
BRANCH   4  24
ATOM     24  C   UNL     1       3.401   4.289  18.772  0.00  0.00    +0.000 C 
BRANCH  24  25
ATOM     25  S   UNL     1       4.128   4.197  17.112  0.00  0.00    +0.000 S 
BRANCH  25  26
ATOM     26  C   UNL     1       5.819   4.472  17.399  0.00  0.00    +0.000 A 
ATOM     27  N   UNL     1       6.382   4.597  18.579  0.00  0.00    +0.000 NA
ATOM     28  N   UNL     1       7.732   4.582  18.352  0.00  0.00    +0.000 NA
ATOM     29  N   UNL     1       8.005   4.423  17.064  0.00  0.00    +0.000 NA
ATOM     30  N   UNL     1       6.809   4.425  16.419  0.00  0.00    +0.000 N 
BRANCH  30  31
ATOM     31  C   UNL     1       6.744   4.374  15.004  0.00  0.00    +0.000 A 
ATOM     32  C   UNL     1       7.659   5.112  14.244  0.00  0.00    +0.000 A 
ATOM     33  C   UNL     1       7.643   5.031  12.850  0.00  0.00    +0.000 A 
ATOM     34  C   UNL     1       6.692   4.239  12.206  0.00  0.00    +0.000 A 
ATOM     35  C   UNL     1       5.752   3.537  12.955  0.00  0.00    +0.000 A 
ATOM     36  C   UNL     1       5.773   3.603  14.349  0.00  0.00    +0.000 A 
ENDBRANCH  30  31
ENDBRANCH  25  26
ENDBRANCH  24  25
ENDBRANCH   4  24
TORSDOF 10
ENDMDL
MODEL 8
REMARK VINA RESULT:      -7.6      1.336      1.819
REMARK  Name = 
REMARK  10 active torsions:
REMARK  status: ('A' for Active; 'I' for Inactive)
REMARK    1  A    between atoms: C_2  and  C_16
REMARK    2  A    between atoms: N_3  and  C_4
REMARK    3  A    between atoms: C_4  and  C_5
REMARK    4  A    between atoms: C_5  and  N_6
REMARK    5  A    between atoms: N_6  and  C_7
REMARK    6  A    between atoms: C_10  and  N_11
REMARK    7  A    between atoms: C_19  and  C_20
REMARK    8  A    between atoms: C_20  and  S_21
REMARK    9  A    between atoms: S_21  and  C_22
REMARK   10  A    between atoms: N_26  and  C_27
REMARK                            x       y       z     vdW  Elec       q    Type
REMARK                         _______ _______ _______ _____ _____    ______ ____
ROOT
ATOM      1  C   UNL     1       2.089   7.324  19.373  0.00  0.00    +0.000 A 
ATOM      2  C   UNL     1       1.536   8.073  20.417  0.00  0.00    +0.000 A 
ATOM      3  C   UNL     1       1.217   9.424  20.224  0.00  0.00    +0.000 A 
ATOM      4  C   UNL     1       1.448  10.057  18.990  0.00  0.00    +0.000 A 
ATOM      5  C   UNL     1       1.988   9.296  17.945  0.00  0.00    +0.000 A 
ATOM      6  C   UNL     1       2.300   7.942  18.134  0.00  0.00    +0.000 A 
ENDROOT
BRANCH   1   8
ATOM      7  O   UNL     1       3.085   5.487  20.476  0.00  0.00    +0.000 OA
ATOM      8  C   UNL     1       2.437   5.876  19.511  0.00  0.00    +0.000 C 
ATOM      9  N   UNL     1       1.975   5.020  18.531  0.00  0.00    +0.000 N 
ATOM     10  H   UNL     1       1.372   5.370  17.801  0.00  0.00    +0.000 HD
BRANCH   9  11
ATOM     11  C   UNL     1       2.235   3.588  18.607  0.00  0.00    +0.000 C 
BRANCH  11  12
ATOM     12  C   UNL     1       2.846   3.035  17.313  0.00  0.00    +0.000 C 
BRANCH  12  13
ATOM     13  N   UNL     1       4.287   2.821  17.421  0.00  0.00    +0.000 N 
ATOM     14  H   UNL     1       4.573   2.014  17.974  0.00  0.00    +0.000 HD
BRANCH  13  15
ATOM     15  C   UNL     1       5.153   3.913  17.523  0.00  0.00    +0.000 A 
ATOM     16  C   UNL     1       5.823   4.246  18.714  0.00  0.00    +0.000 A 
ATOM     17  C   UNL     1       6.606   5.396  18.819  0.00  0.00    +0.000 A 
ATOM     18  C   UNL     1       6.720   6.255  17.726  0.00  0.00    +0.000 A 
ATOM     19  C   UNL     1       6.045   5.967  16.536  0.00  0.00    +0.000 A 
ATOM     20  C   UNL     1       5.263   4.805  16.446  0.00  0.00    +0.000 A 
BRANCH  18  21
ATOM     21  N   UNL     1       7.542   7.467  17.833  0.00  0.00    +0.000 N 
ATOM     22  O   UNL     1       7.276   8.408  17.065  0.00  0.00    +0.000 OA
ATOM     23  O   UNL     1       8.447   7.482  18.680  0.00  0.00    +0.000 OA
ENDBRANCH  18  21
ENDBRANCH  13  15
ENDBRANCH  12  13
ENDBRANCH  11  12
ENDBRANCH   9  11
ENDBRANCH   1   8
BRANCH   4  24
ATOM     24  C   UNL     1       1.100  11.521  18.783  0.00  0.00    +0.000 C 
BRANCH  24  25
ATOM     25  S   UNL     1      -0.295  12.016  19.832  0.00  0.00    +0.000 S 
BRANCH  25  26
ATOM     26  C   UNL     1       0.450  13.009  21.048  0.00  0.00    +0.000 A 
ATOM     27  N   UNL     1       1.712  13.372  21.068  0.00  0.00    +0.000 NA
ATOM     28  N   UNL     1       1.815  14.310  22.061  0.00  0.00    +0.000 NA
ATOM     29  N   UNL     1       0.639  14.546  22.627  0.00  0.00    +0.000 NA
ATOM     30  N   UNL     1      -0.239  13.679  22.057  0.00  0.00    +0.000 N 
BRANCH  30  31
ATOM     31  C   UNL     1      -1.580  13.596  22.510  0.00  0.00    +0.000 A 
ATOM     32  C   UNL     1      -2.016  12.439  23.165  0.00  0.00    +0.000 A 
ATOM     33  C   UNL     1      -3.318  12.363  23.665  0.00  0.00    +0.000 A 
ATOM     34  C   UNL     1      -4.201  13.428  23.484  0.00  0.00    +0.000 A 
ATOM     35  C   UNL     1      -3.786  14.564  22.796  0.00  0.00    +0.000 A 
ATOM     36  C   UNL     1      -2.481  14.652  22.307  0.00  0.00    +0.000 A 
ENDBRANCH  30  31
ENDBRANCH  25  26
ENDBRANCH  24  25
ENDBRANCH   4  24
TORSDOF 10
ENDMDL
MODEL 9
REMARK VINA RESULT:      -7.5      1.633      2.305
REMARK  Name = 
REMARK  10 active torsions:
REMARK  status: ('A' for Active; 'I' for Inactive)
REMARK    1  A    between atoms: C_2  and  C_16
REMARK    2  A    between atoms: N_3  and  C_4
REMARK    3  A    between atoms: C_4  and  C_5
REMARK    4  A    between atoms: C_5  and  N_6
REMARK    5  A    between atoms: N_6  and  C_7
REMARK    6  A    between atoms: C_10  and  N_11
REMARK    7  A    between atoms: C_19  and  C_20
REMARK    8  A    between atoms: C_20  and  S_21
REMARK    9  A    between atoms: S_21  and  C_22
REMARK   10  A    between atoms: N_26  and  C_27
REMARK                            x       y       z     vdW  Elec       q    Type
REMARK                         _______ _______ _______ _____ _____    ______ ____
ROOT
ATOM      1  C   UNL     1       1.861   6.568  19.762  0.00  0.00    +0.000 A 
ATOM      2  C   UNL     1       1.415   7.604  20.590  0.00  0.00    +0.000 A 
ATOM      3  C   UNL     1       1.361   8.919  20.107  0.00  0.00    +0.000 A 
ATOM      4  C   UNL     1       1.757   9.228  18.794  0.00  0.00    +0.000 A 
ATOM      5  C   UNL     1       2.187   8.183  17.967  0.00  0.00    +0.000 A 
ATOM      6  C   UNL     1       2.234   6.865  18.445  0.00  0.00    +0.000 A 
ENDROOT
BRANCH   1   8
ATOM      7  O   UNL     1       2.449   4.859  21.285  0.00  0.00    +0.000 OA
ATOM      8  C   UNL     1       1.927   5.143  20.213  0.00  0.00    +0.000 C 
ATOM      9  N   UNL     1       1.356   4.194  19.388  0.00  0.00    +0.000 N 
ATOM     10  H   UNL     1       0.860   4.482  18.557  0.00  0.00    +0.000 HD
BRANCH   9  11
ATOM     11  C   UNL     1       1.341   2.787  19.768  0.00  0.00    +0.000 C 
BRANCH  11  12
ATOM     12  C   UNL     1       2.450   1.983  19.077  0.00  0.00    +0.000 C 
BRANCH  12  13
ATOM     13  N   UNL     1       3.788   2.423  19.467  0.00  0.00    +0.000 N 
ATOM     14  H   UNL     1       3.948   2.511  20.469  0.00  0.00    +0.000 HD
BRANCH  13  15
ATOM     15  C   UNL     1       4.464   3.376  18.700  0.00  0.00    +0.000 A 
ATOM     16  C   UNL     1       4.376   3.428  17.297  0.00  0.00    +0.000 A 
ATOM     17  C   UNL     1       5.135   4.326  16.547  0.00  0.00    +0.000 A 
ATOM     18  C   UNL     1       6.020   5.188  17.193  0.00  0.00    +0.000 A 
ATOM     19  C   UNL     1       6.151   5.143  18.584  0.00  0.00    +0.000 A 
ATOM     20  C   UNL     1       5.379   4.236  19.324  0.00  0.00    +0.000 A 
BRANCH  18  21
ATOM     21  N   UNL     1       6.822   6.134  16.406  0.00  0.00    +0.000 N 
ATOM     22  O   UNL     1       6.870   7.312  16.803  0.00  0.00    +0.000 OA
ATOM     23  O   UNL     1       7.402   5.705  15.398  0.00  0.00    +0.000 OA
ENDBRANCH  18  21
ENDBRANCH  13  15
ENDBRANCH  12  13
ENDBRANCH  11  12
ENDBRANCH   9  11
ENDBRANCH   1   8
BRANCH   4  24
ATOM     24  C   UNL     1       1.697  10.654  18.273  0.00  0.00    +0.000 C 
BRANCH  24  25
ATOM     25  S   UNL     1       1.000  11.775  19.517  0.00  0.00    +0.000 S 
BRANCH  25  26
ATOM     26  C   UNL     1      -0.676  11.880  19.070  0.00  0.00    +0.000 A 
ATOM     27  N   UNL     1      -1.223  11.306  18.023  0.00  0.00    +0.000 NA
ATOM     28  N   UNL     1      -2.574  11.467  18.172  0.00  0.00    +0.000 NA
ATOM     29  N   UNL     1      -2.864  12.103  19.300  0.00  0.00    +0.000 NA
ATOM     30  N   UNL     1      -1.674  12.448  19.858  0.00  0.00    +0.000 N 
BRANCH  30  31
ATOM     31  C   UNL     1      -1.623  13.236  21.036  0.00  0.00    +0.000 A 
ATOM     32  C   UNL     1      -1.501  12.608  22.281  0.00  0.00    +0.000 A 
ATOM     33  C   UNL     1      -1.395  13.371  23.446  0.00  0.00    +0.000 A 
ATOM     34  C   UNL     1      -1.444  14.764  23.377  0.00  0.00    +0.000 A 
ATOM     35  C   UNL     1      -1.608  15.392  22.147  0.00  0.00    +0.000 A 
ATOM     36  C   UNL     1      -1.700  14.635  20.977  0.00  0.00    +0.000 A 
ENDBRANCH  30  31
ENDBRANCH  25  26
ENDBRANCH  24  25
ENDBRANCH   4  24
TORSDOF 10
ENDMDL
