MODEL 1
REMARK VINA RESULT:      -8.2      0.000      0.000
REMARK  Name = 
REMARK  2 active torsions:
REMARK  status: ('A' for Active; 'I' for Inactive)
REMARK    1  A    between atoms: C_2  and  C_22
REMARK    2  A    between atoms: C_10  and  C_11
REMARK                            x       y       z     vdW  Elec       q    Type
REMARK                         _______ _______ _______ _____ _____    ______ ____
ROOT
ATOM      1  O   UNL     1      -0.273  10.141  23.750  0.00  0.00    +0.000 OA
ATOM      2  C   UNL     1      -0.682  10.846  22.838  0.00  0.00    +0.000 C 
ATOM      3  N   UNL     1      -0.506  10.660  21.480  0.00  0.00    +0.000 N 
ATOM      4  C   UNL     1       0.209   9.588  20.927  0.00  0.00    +0.000 A 
ATOM      5  C   UNL     1       0.686   9.729  19.637  0.00  0.00    +0.000 A 
ATOM      6  C   UNL     1       1.562   8.754  19.157  0.00  0.00    +0.000 A 
ATOM      7  C   UNL     1       2.221   8.925  17.842  0.00  0.00    +0.000 A 
ATOM      8  O   UNL     1       1.974   9.889  17.125  0.00  0.00    +0.000 OA
ATOM      9  N   UNL     1       3.137   7.963  17.489  0.00  0.00    +0.000 N 
ATOM     10  C   UNL     1       3.447   6.857  18.245  0.00  0.00    +0.000 A 
ATOM     11  C   UNL     1       2.862   6.654  19.436  0.00  0.00    +0.000 A 
ATOM     12  C   UNL     1       1.893   7.636  19.923  0.00  0.00    +0.000 A 
ATOM     13  C   UNL     1       1.284   7.543  21.161  0.00  0.00    +0.000 A 
ATOM     14  N   UNL     1       0.467   8.494  21.663  0.00  0.00    +0.000 NA
ATOM     15  H   UNL     1      -0.742  11.426  20.868  0.00  0.00    +0.000 HD
ATOM     16  H   UNL     1       3.588   8.095  16.592  0.00  0.00    +0.000 HD
ENDROOT
BRANCH  10  17
ATOM     17  C   UNL     1       4.447   5.930  17.695  0.00  0.00    +0.000 A 
ATOM     18  C   UNL     1       5.773   6.375  17.560  0.00  0.00    +0.000 A 
ATOM     19  C   UNL     1       6.737   5.566  16.953  0.00  0.00    +0.000 A 
ATOM     20  C   UNL     1       6.393   4.298  16.488  0.00  0.00    +0.000 A 
ATOM     21  C   UNL     1       5.087   3.832  16.642  0.00  0.00    +0.000 A 
ATOM     22  C   UNL     1       4.117   4.643  17.240  0.00  0.00    +0.000 A 
ATOM     23 CL   UNL     1       2.510   4.014  17.365  0.00  0.00    +0.000 Cl
ENDBRANCH  10  17
BRANCH   2  24
ATOM     24  C   UNL     1      -1.353  12.142  23.158  0.00  0.00    +0.000 C 
ATOM     25  C   UNL     1      -2.226  12.863  22.153  0.00  0.00    +0.000 C 
ATOM     26  C   UNL     1      -2.861  12.136  23.302  0.00  0.00    +0.000 C 
ENDBRANCH   2  24
TORSDOF 2
ENDMDL
MODEL 2
REMARK VINA RESULT:      -7.5      2.042      2.839
REMARK  Name = 
REMARK  2 active torsions:
REMARK  status: ('A' for Active; 'I' for Inactive)
REMARK    1  A    between atoms: C_2  and  C_22
REMARK    2  A    between atoms: C_10  and  C_11
REMARK                            x       y       z     vdW  Elec       q    Type
REMARK                         _______ _______ _______ _____ _____    ______ ____
ROOT
ATOM      1  O   UNL     1      -3.095  12.223  18.597  0.00  0.00    +0.000 OA
ATOM      2  C   UNL     1      -2.852  12.250  19.796  0.00  0.00    +0.000 C 
ATOM      3  N   UNL     1      -1.773  11.691  20.454  0.00  0.00    +0.000 N 
ATOM      4  C   UNL     1      -0.757  10.969  19.811  0.00  0.00    +0.000 A 
ATOM      5  C   UNL     1       0.006  10.107  20.577  0.00  0.00    +0.000 A 
ATOM      6  C   UNL     1       0.878   9.244  19.913  0.00  0.00    +0.000 A 
ATOM      7  C   UNL     1       1.612   8.200  20.664  0.00  0.00    +0.000 A 
ATOM      8  O   UNL     1       1.515   8.105  21.883  0.00  0.00    +0.000 OA
ATOM      9  N   UNL     1       2.378   7.337  19.919  0.00  0.00    +0.000 N 
ATOM     10  C   UNL     1       2.532   7.400  18.554  0.00  0.00    +0.000 A 
ATOM     11  C   UNL     1       1.899   8.341  17.835  0.00  0.00    +0.000 A 
ATOM     12  C   UNL     1       1.031   9.294  18.526  0.00  0.00    +0.000 A 
ATOM     13  C   UNL     1       0.293  10.257  17.866  0.00  0.00    +0.000 A 
ATOM     14  N   UNL     1      -0.589  11.075  18.481  0.00  0.00    +0.000 NA
ATOM     15  H   UNL     1      -1.814  11.640  21.460  0.00  0.00    +0.000 HD
ATOM     16  H   UNL     1       2.868   6.622  20.442  0.00  0.00    +0.000 HD
ENDROOT
BRANCH  10  17
ATOM     17  C   UNL     1       3.405   6.393  17.932  0.00  0.00    +0.000 A 
ATOM     18  C   UNL     1       4.605   6.819  17.338  0.00  0.00    +0.000 A 
ATOM     19  C   UNL     1       5.418   5.915  16.649  0.00  0.00    +0.000 A 
ATOM     20  C   UNL     1       5.051   4.573  16.558  0.00  0.00    +0.000 A 
ATOM     21  C   UNL     1       3.877   4.131  17.169  0.00  0.00    +0.000 A 
ATOM     22  C   UNL     1       3.055   5.035  17.850  0.00  0.00    +0.000 A 
ATOM     23 CL   UNL     1       1.596   4.424  18.551  0.00  0.00    +0.000 Cl
ENDBRANCH  10  17
BRANCH   2  24
ATOM     24  C   UNL     1      -3.857  12.834  20.734  0.00  0.00    +0.000 C 
ATOM     25  C   UNL     1      -3.546  13.069  22.197  0.00  0.00    +0.000 C 
ATOM     26  C   UNL     1      -3.603  14.235  21.254  0.00  0.00    +0.000 C 
ENDBRANCH   2  24
TORSDOF 2
ENDMDL
MODEL 3
REMARK VINA RESULT:      -7.5      1.848      2.267
REMARK  Name = 
REMARK  2 active torsions:
REMARK  status: ('A' for Active; 'I' for Inactive)
REMARK    1  A    between atoms: C_2  and  C_22
REMARK    2  A    between atoms: C_10  and  C_11
REMARK                            x       y       z     vdW  Elec       q    Type
REMARK                         _______ _______ _______ _____ _____    ______ ____
ROOT
ATOM      1  O   UNL     1      -0.668  12.437  23.152  0.00  0.00    +0.000 OA
ATOM      2  C   UNL     1      -0.768  12.868  22.011  0.00  0.00    +0.000 C 
ATOM      3  N   UNL     1      -0.530  12.195  20.828  0.00  0.00    +0.000 N 
ATOM      4  C   UNL     1      -0.111  10.859  20.763  0.00  0.00    +0.000 A 
ATOM      5  C   UNL     1       0.503  10.431  19.600  0.00  0.00    +0.000 A 
ATOM      6  C   UNL     1       1.098   9.169  19.604  0.00  0.00    +0.000 A 
ATOM      7  C   UNL     1       1.896   8.716  18.442  0.00  0.00    +0.000 A 
ATOM      8  O   UNL     1       2.007   9.408  17.435  0.00  0.00    +0.000 OA
ATOM      9  N   UNL     1       2.520   7.498  18.568  0.00  0.00    +0.000 N 
ATOM     10  C   UNL     1       2.425   6.675  19.665  0.00  0.00    +0.000 A 
ATOM     11  C   UNL     1       1.699   7.039  20.734  0.00  0.00    +0.000 A 
ATOM     12  C   UNL     1       1.017   8.333  20.718  0.00  0.00    +0.000 A 
ATOM     13  C   UNL     1       0.297   8.818  21.794  0.00  0.00    +0.000 A 
ATOM     14  N   UNL     1      -0.251  10.052  21.829  0.00  0.00    +0.000 NA
ATOM     15  H   UNL     1      -0.476  12.741  19.982  0.00  0.00    +0.000 HD
ATOM     16  H   UNL     1       3.071   7.203  17.771  0.00  0.00    +0.000 HD
ENDROOT
BRANCH  10  17
ATOM     17  C   UNL     1       3.158   5.401  19.612  0.00  0.00    +0.000 A 
ATOM     18  C   UNL     1       4.517   5.424  19.257  0.00  0.00    +0.000 A 
ATOM     19  C   UNL     1       5.230   4.232  19.097  0.00  0.00    +0.000 A 
ATOM     20  C   UNL     1       4.600   3.007  19.304  0.00  0.00    +0.000 A 
ATOM     21  C   UNL     1       3.258   2.972  19.686  0.00  0.00    +0.000 A 
ATOM     22  C   UNL     1       2.538   4.161  19.836  0.00  0.00    +0.000 A 
ATOM     23 CL   UNL     1       0.869   4.040  20.275  0.00  0.00    +0.000 Cl
ENDBRANCH  10  17
BRANCH   2  24
ATOM     24  C   UNL     1      -1.060  14.318  21.799  0.00  0.00    +0.000 C 
ATOM     25  C   UNL     1      -1.485  14.861  20.451  0.00  0.00    +0.000 C 
ATOM     26  C   UNL     1      -2.500  14.716  21.547  0.00  0.00    +0.000 C 
ENDBRANCH   2  24
TORSDOF 2
ENDMDL
MODEL 4
REMARK VINA RESULT:      -7.5      5.944      7.936
REMARK  Name = 
REMARK  2 active torsions:
REMARK  status: ('A' for Active; 'I' for Inactive)
REMARK    1  A    between atoms: C_2  and  C_22
REMARK    2  A    between atoms: C_10  and  C_11
REMARK                            x       y       z     vdW  Elec       q    Type
REMARK                         _______ _______ _______ _____ _____    ______ ____
ROOT
ATOM      1  O   UNL     1       8.297  11.566  17.599  0.00  0.00    +0.000 OA
ATOM      2  C   UNL     1       9.228  11.005  18.161  0.00  0.00    +0.000 C 
ATOM      3  N   UNL     1       9.350   9.663  18.464  0.00  0.00    +0.000 N 
ATOM      4  C   UNL     1       8.370   8.705  18.165  0.00  0.00    +0.000 A 
ATOM      5  C   UNL     1       8.389   7.520  18.877  0.00  0.00    +0.000 A 
ATOM      6  C   UNL     1       7.305   6.653  18.726  0.00  0.00    +0.000 A 
ATOM      7  C   UNL     1       7.196   5.441  19.570  0.00  0.00    +0.000 A 
ATOM      8  O   UNL     1       8.072   5.143  20.375  0.00  0.00    +0.000 OA
ATOM      9  N   UNL     1       6.053   4.693  19.418  0.00  0.00    +0.000 N 
ATOM     10  C   UNL     1       5.043   4.972  18.528  0.00  0.00    +0.000 A 
ATOM     11  C   UNL     1       5.109   6.051  17.732  0.00  0.00    +0.000 A 
ATOM     12  C   UNL     1       6.270   6.935  17.834  0.00  0.00    +0.000 A 
ATOM     13  C   UNL     1       6.398   8.099  17.100  0.00  0.00    +0.000 A 
ATOM     14  N   UNL     1       7.414   8.974  17.259  0.00  0.00    +0.000 NA
ATOM     15  H   UNL     1      10.090   9.390  19.091  0.00  0.00    +0.000 HD
ATOM     16  H   UNL     1       5.985   3.872  20.007  0.00  0.00    +0.000 HD
ENDROOT
BRANCH  10  17
ATOM     17  C   UNL     1       3.900   4.047  18.502  0.00  0.00    +0.000 A 
ATOM     18  C   UNL     1       4.025   2.846  17.784  0.00  0.00    +0.000 A 
ATOM     19  C   UNL     1       2.935   1.981  17.648  0.00  0.00    +0.000 A 
ATOM     20  C   UNL     1       1.714   2.299  18.239  0.00  0.00    +0.000 A 
ATOM     21  C   UNL     1       1.584   3.474  18.980  0.00  0.00    +0.000 A 
ATOM     22  C   UNL     1       2.670   4.347  19.109  0.00  0.00    +0.000 A 
ATOM     23 CL   UNL     1       2.427   5.803  20.010  0.00  0.00    +0.000 Cl
ENDBRANCH  10  17
BRANCH   2  24
ATOM     24  C   UNL     1      10.345  11.824  18.720  0.00  0.00    +0.000 C 
ATOM     25  C   UNL     1      11.760  11.292  18.815  0.00  0.00    +0.000 C 
ATOM     26  C   UNL     1      11.416  12.303  17.760  0.00  0.00    +0.000 C 
ENDBRANCH   2  24
TORSDOF 2
ENDMDL
MODEL 5
REMARK VINA RESULT:      -7.5      2.598      8.354
REMARK  Name = 
REMARK  2 active torsions:
REMARK  status: ('A' for Active; 'I' for Inactive)
REMARK    1  A    between atoms: C_2  and  C_22
REMARK    2  A    between atoms: C_10  and  C_11
REMARK                            x       y       z     vdW  Elec       q    Type
REMARK                         _______ _______ _______ _____ _____    ______ ____
ROOT
ATOM      1  O   UNL     1       3.597   3.735  17.944  0.00  0.00    +0.000 OA
ATOM      2  C   UNL     1       4.153   4.509  17.177  0.00  0.00    +0.000 C 
ATOM      3  N   UNL     1       4.128   5.891  17.202  0.00  0.00    +0.000 N 
ATOM      4  C   UNL     1       3.418   6.639  18.152  0.00  0.00    +0.000 A 
ATOM      5  C   UNL     1       3.106   7.949  17.837  0.00  0.00    +0.000 A 
ATOM      6  C   UNL     1       2.233   8.632  18.686  0.00  0.00    +0.000 A 
ATOM      7  C   UNL     1       1.746   9.983  18.326  0.00  0.00    +0.000 A 
ATOM      8  O   UNL     1       2.136  10.552  17.312  0.00  0.00    +0.000 OA
ATOM      9  N   UNL     1       0.820  10.543  19.173  0.00  0.00    +0.000 N 
ATOM     10  C   UNL     1       0.354   9.959  20.327  0.00  0.00    +0.000 A 
ATOM     11  C   UNL     1       0.781   8.742  20.700  0.00  0.00    +0.000 A 
ATOM     12  C   UNL     1       1.745   8.041  19.853  0.00  0.00    +0.000 A 
ATOM     13  C   UNL     1       2.197   6.763  20.123  0.00  0.00    +0.000 A 
ATOM     14  N   UNL     1       3.007   6.067  19.296  0.00  0.00    +0.000 NA
ATOM     15  H   UNL     1       4.482   6.380  16.395  0.00  0.00    +0.000 HD
ATOM     16  H   UNL     1       0.487  11.463  18.912  0.00  0.00    +0.000 HD
ENDROOT
BRANCH  10  17
ATOM     17  C   UNL     1      -0.630  10.719  21.112  0.00  0.00    +0.000 A 
ATOM     18  C   UNL     1      -1.426  11.670  20.451  0.00  0.00    +0.000 A 
ATOM     19  C   UNL     1      -2.305  12.485  21.169  0.00  0.00    +0.000 A 
ATOM     20  C   UNL     1      -2.411  12.350  22.552  0.00  0.00    +0.000 A 
ATOM     21  C   UNL     1      -1.649  11.389  23.217  0.00  0.00    +0.000 A 
ATOM     22  C   UNL     1      -0.760  10.579  22.503  0.00  0.00    +0.000 A 
ATOM     23 CL   UNL     1       0.180   9.435  23.398  0.00  0.00    +0.000 Cl
ENDBRANCH  10  17
BRANCH   2  24
ATOM     24  C   UNL     1       4.862   3.969  15.978  0.00  0.00    +0.000 C 
ATOM     25  C   UNL     1       5.571   4.873  14.991  0.00  0.00    +0.000 C 
ATOM     26  C   UNL     1       6.375   4.052  15.957  0.00  0.00    +0.000 C 
ENDBRANCH   2  24
TORSDOF 2
ENDMDL
MODEL 6
REMARK VINA RESULT:      -7.4      1.161      1.349
REMARK  Name = 
REMARK  2 active torsions:
REMARK  status: ('A' for Active; 'I' for Inactive)
REMARK    1  A    between atoms: C_2  and  C_22
REMARK    2  A    between atoms: C_10  and  C_11
REMARK                            x       y       z     vdW  Elec       q    Type
REMARK                         _______ _______ _______ _____ _____    ______ ____
ROOT
ATOM      1  O   UNL     1      -0.720  11.414  23.501  0.00  0.00    +0.000 OA
ATOM      2  C   UNL     1      -0.929  12.054  22.480  0.00  0.00    +0.000 C 
ATOM      3  N   UNL     1      -0.675  11.675  21.176  0.00  0.00    +0.000 N 
ATOM      4  C   UNL     1      -0.105  10.444  20.820  0.00  0.00    +0.000 A 
ATOM      5  C   UNL     1       0.495  10.347  19.578  0.00  0.00    +0.000 A 
ATOM      6  C   UNL     1       1.234   9.196  19.300  0.00  0.00    +0.000 A 
ATOM      7  C   UNL     1       2.019   9.097  18.048  0.00  0.00    +0.000 A 
ATOM      8  O   UNL     1       1.994   9.990  17.208  0.00  0.00    +0.000 OA
ATOM      9  N   UNL     1       2.788   7.968  17.899  0.00  0.00    +0.000 N 
ATOM     10  C   UNL     1       2.847   6.932  18.800  0.00  0.00    +0.000 A 
ATOM     11  C   UNL     1       2.140   6.973  19.940  0.00  0.00    +0.000 A 
ATOM     12  C   UNL     1       1.310   8.145  20.215  0.00  0.00    +0.000 A 
ATOM     13  C   UNL     1       0.594   8.304  21.386  0.00  0.00    +0.000 A 
ATOM     14  N   UNL     1      -0.093   9.424  21.695  0.00  0.00    +0.000 NA
ATOM     15  H   UNL     1      -0.730  12.385  20.463  0.00  0.00    +0.000 HD
ATOM     16  H   UNL     1       3.327   7.916  17.043  0.00  0.00    +0.000 HD
ENDROOT
BRANCH  10  17
ATOM     17  C   UNL     1       3.722   5.799  18.460  0.00  0.00    +0.000 A 
ATOM     18  C   UNL     1       5.106   5.938  18.656  0.00  0.00    +0.000 A 
ATOM     19  C   UNL     1       5.986   4.928  18.257  0.00  0.00    +0.000 A 
ATOM     20  C   UNL     1       5.494   3.763  17.672  0.00  0.00    +0.000 A 
ATOM     21  C   UNL     1       4.119   3.600  17.499  0.00  0.00    +0.000 A 
ATOM     22  C   UNL     1       3.236   4.613  17.887  0.00  0.00    +0.000 A 
ATOM     23 CL   UNL     1       1.548   4.357  17.609  0.00  0.00    +0.000 Cl
ENDBRANCH  10  17
BRANCH   2  24
ATOM     24  C   UNL     1      -1.401  13.468  22.586  0.00  0.00    +0.000 C 
ATOM     25  C   UNL     1      -1.284  14.257  23.873  0.00  0.00    +0.000 C 
ATOM     26  C   UNL     1      -0.351  14.551  22.735  0.00  0.00    +0.000 C 
ENDBRANCH   2  24
TORSDOF 2
ENDMDL
MODEL 7
REMARK VINA RESULT:      -7.4      1.184      1.540
REMARK  Name = 
REMARK  2 active torsions:
REMARK  status: ('A' for Active; 'I' for Inactive)
REMARK    1  A    between atoms: C_2  and  C_22
REMARK    2  A    between atoms: C_10  and  C_11
REMARK                            x       y       z     vdW  Elec       q    Type
REMARK                         _______ _______ _______ _____ _____    ______ ____
ROOT
ATOM      1  O   UNL     1      -0.076   9.668  23.749  0.00  0.00    +0.000 OA
ATOM      2  C   UNL     1      -0.483  10.449  22.900  0.00  0.00    +0.000 C 
ATOM      3  N   UNL     1      -0.318  10.372  21.530  0.00  0.00    +0.000 N 
ATOM      4  C   UNL     1       0.384   9.342  20.887  0.00  0.00    +0.000 A 
ATOM      5  C   UNL     1       0.855   9.583  19.610  0.00  0.00    +0.000 A 
ATOM      6  C   UNL     1       1.719   8.643  19.047  0.00  0.00    +0.000 A 
ATOM      7  C   UNL     1       2.372   8.914  17.745  0.00  0.00    +0.000 A 
ATOM      8  O   UNL     1       2.128   9.935  17.110  0.00  0.00    +0.000 OA
ATOM      9  N   UNL     1       3.276   7.976  17.309  0.00  0.00    +0.000 N 
ATOM     10  C   UNL     1       3.582   6.811  17.971  0.00  0.00    +0.000 A 
ATOM     11  C   UNL     1       3.002   6.517  19.146  0.00  0.00    +0.000 A 
ATOM     12  C   UNL     1       2.044   7.464  19.718  0.00  0.00    +0.000 A 
ATOM     13  C   UNL     1       1.442   7.277  20.948  0.00  0.00    +0.000 A 
ATOM     14  N   UNL     1       0.637   8.190  21.531  0.00  0.00    +0.000 NA
ATOM     15  H   UNL     1      -0.551  11.187  20.985  0.00  0.00    +0.000 HD
ATOM     16  H   UNL     1       3.723   8.177  16.423  0.00  0.00    +0.000 HD
ENDROOT
BRANCH  10  17
ATOM     17  C   UNL     1       4.570   5.923  17.341  0.00  0.00    +0.000 A 
ATOM     18  C   UNL     1       4.164   4.635  16.953  0.00  0.00    +0.000 A 
ATOM     19  C   UNL     1       5.089   3.722  16.440  0.00  0.00    +0.000 A 
ATOM     20  C   UNL     1       6.426   4.087  16.297  0.00  0.00    +0.000 A 
ATOM     21  C   UNL     1       6.837   5.372  16.651  0.00  0.00    +0.000 A 
ATOM     22  C   UNL     1       5.917   6.286  17.174  0.00  0.00    +0.000 A 
ATOM     23 CL   UNL     1       6.504   7.849  17.627  0.00  0.00    +0.000 Cl
ENDBRANCH  10  17
BRANCH   2  24
ATOM     24  C   UNL     1      -1.141  11.720  23.329  0.00  0.00    +0.000 C 
ATOM     25  C   UNL     1      -1.679  12.721  22.329  0.00  0.00    +0.000 C 
ATOM     26  C   UNL     1      -2.633  11.853  23.097  0.00  0.00    +0.000 C 
ENDBRANCH   2  24
TORSDOF 2
ENDMDL
MODEL 8
REMARK VINA RESULT:      -7.3      3.362      9.023
REMARK  Name = 
REMARK  2 active torsions:
REMARK  status: ('A' for Active; 'I' for Inactive)
REMARK    1  A    between atoms: C_2  and  C_22
REMARK    2  A    between atoms: C_10  and  C_11
REMARK                            x       y       z     vdW  Elec       q    Type
REMARK                         _______ _______ _______ _____ _____    ______ ____
ROOT
ATOM      1  O   UNL     1       2.198   5.529  20.430  0.00  0.00    +0.000 OA
ATOM      2  C   UNL     1       2.352   6.098  19.358  0.00  0.00    +0.000 C 
ATOM      3  N   UNL     1       2.091   7.421  19.056  0.00  0.00    +0.000 N 
ATOM      4  C   UNL     1       1.578   8.343  19.978  0.00  0.00    +0.000 A 
ATOM      5  C   UNL     1       0.959   9.476  19.481  0.00  0.00    +0.000 A 
ATOM      6  C   UNL     1       0.274  10.292  20.382  0.00  0.00    +0.000 A 
ATOM      7  C   UNL     1      -0.530  11.435  19.892  0.00  0.00    +0.000 A 
ATOM      8  O   UNL     1      -0.569  11.723  18.700  0.00  0.00    +0.000 OA
ATOM      9  N   UNL     1      -1.242  12.130  20.839  0.00  0.00    +0.000 N 
ATOM     10  C   UNL     1      -1.230  11.861  22.187  0.00  0.00    +0.000 A 
ATOM     11  C   UNL     1      -0.502  10.844  22.677  0.00  0.00    +0.000 A 
ATOM     12  C   UNL     1       0.272  10.019  21.751  0.00  0.00    +0.000 A 
ATOM     13  C   UNL     1       1.002   8.917  22.153  0.00  0.00    +0.000 A 
ATOM     14  N   UNL     1       1.637   8.088  21.296  0.00  0.00    +0.000 NA
ATOM     15  H   UNL     1       2.095   7.688  18.084  0.00  0.00    +0.000 HD
ATOM     16  H   UNL     1      -1.796  12.903  20.491  0.00  0.00    +0.000 HD
ENDROOT
BRANCH  10  17
ATOM     17  C   UNL     1      -2.052  12.723  23.049  0.00  0.00    +0.000 A 
ATOM     18  C   UNL     1      -3.273  12.222  23.531  0.00  0.00    +0.000 A 
ATOM     19  C   UNL     1      -4.133  13.037  24.272  0.00  0.00    +0.000 A 
ATOM     20  C   UNL     1      -3.779  14.355  24.553  0.00  0.00    +0.000 A 
ATOM     21  C   UNL     1      -2.556  14.856  24.106  0.00  0.00    +0.000 A 
ATOM     22  C   UNL     1      -1.697  14.047  23.355  0.00  0.00    +0.000 A 
ATOM     23 CL   UNL     1      -0.214  14.746  22.802  0.00  0.00    +0.000 Cl
ENDBRANCH  10  17
BRANCH   2  24
ATOM     24  C   UNL     1       2.752   5.302  18.158  0.00  0.00    +0.000 C 
ATOM     25  C   UNL     1       3.055   3.821  18.243  0.00  0.00    +0.000 C 
ATOM     26  C   UNL     1       1.765   4.282  17.629  0.00  0.00    +0.000 C 
ENDBRANCH   2  24
TORSDOF 2
ENDMDL
MODEL 9
REMARK VINA RESULT:      -7.2      2.792      3.634
REMARK  Name = 
REMARK  2 active torsions:
REMARK  status: ('A' for Active; 'I' for Inactive)
REMARK    1  A    between atoms: C_2  and  C_22
REMARK    2  A    between atoms: C_10  and  C_11
REMARK                            x       y       z     vdW  Elec       q    Type
REMARK                         _______ _______ _______ _____ _____    ______ ____
ROOT
ATOM      1  O   UNL     1       0.755  13.649  22.001  0.00  0.00    +0.000 OA
ATOM      2  C   UNL     1       0.787  13.853  20.796  0.00  0.00    +0.000 C 
ATOM      3  N   UNL     1       0.807  12.918  19.779  0.00  0.00    +0.000 N 
ATOM      4  C   UNL     1       0.805  11.533  19.995  0.00  0.00    +0.000 A 
ATOM      5  C   UNL     1       1.258  10.720  18.972  0.00  0.00    +0.000 A 
ATOM      6  C   UNL     1       1.445   9.365  19.252  0.00  0.00    +0.000 A 
ATOM      7  C   UNL     1       2.066   8.474  18.245  0.00  0.00    +0.000 A 
ATOM      8  O   UNL     1       2.378   8.887  17.133  0.00  0.00    +0.000 OA
ATOM      9  N   UNL     1       2.295   7.177  18.637  0.00  0.00    +0.000 N 
ATOM     10  C   UNL     1       1.959   6.656  19.864  0.00  0.00    +0.000 A 
ATOM     11  C   UNL     1       1.379   7.424  20.801  0.00  0.00    +0.000 A 
ATOM     12  C   UNL     1       1.119   8.831  20.499  0.00  0.00    +0.000 A 
ATOM     13  C   UNL     1       0.581   9.712  21.418  0.00  0.00    +0.000 A 
ATOM     14  N   UNL     1       0.431  11.033  21.185  0.00  0.00    +0.000 NA
ATOM     15  H   UNL     1       1.021  13.243  18.849  0.00  0.00    +0.000 HD
ATOM     16  H   UNL     1       2.729   6.580  17.944  0.00  0.00    +0.000 HD
ENDROOT
BRANCH  10  17
ATOM     17  C   UNL     1       2.274   5.238  20.098  0.00  0.00    +0.000 A 
ATOM     18  C   UNL     1       1.304   4.427  20.709  0.00  0.00    +0.000 A 
ATOM     19  C   UNL     1       1.592   3.100  21.040  0.00  0.00    +0.000 A 
ATOM     20  C   UNL     1       2.845   2.564  20.752  0.00  0.00    +0.000 A 
ATOM     21  C   UNL     1       3.808   3.350  20.118  0.00  0.00    +0.000 A 
ATOM     22  C   UNL     1       3.527   4.681  19.795  0.00  0.00    +0.000 A 
ATOM     23 CL   UNL     1       4.781   5.607  19.044  0.00  0.00    +0.000 Cl
ENDBRANCH  10  17
BRANCH   2  24
ATOM     24  C   UNL     1       0.945  15.251  20.294  0.00  0.00    +0.000 C 
ATOM     25  C   UNL     1       0.501  15.660  18.905  0.00  0.00    +0.000 C 
ATOM     26  C   UNL     1      -0.312  16.075  20.096  0.00  0.00    +0.000 C 
ENDBRANCH   2  24
TORSDOF 2
ENDMDL
