MODEL 1
REMARK VINA RESULT:      -8.5      0.000      0.000
REMARK  Name = 
REMARK  3 active torsions:
REMARK  status: ('A' for Active; 'I' for Inactive)
REMARK    1  A    between atoms: C_1  and  C_2
REMARK    2  A    between atoms: C_7  and  C_8
REMARK    3  A    between atoms: C_13  and  C_14
REMARK                            x       y       z     vdW  Elec       q    Type
REMARK                         _______ _______ _______ _____ _____    ______ ____
ROOT
ATOM      1  C   UNL     1       1.415   8.121  20.313  0.00  0.00    +0.000 C 
ATOM      2  O   UNL     1       1.812   8.399  19.186  0.00  0.00    +0.000 OA
ATOM      3  N   UNL     1       1.500   6.880  20.902  0.00  0.00    +0.000 N 
ATOM      4  C   UNL     1       2.051   5.757  20.272  0.00  0.00    +0.000 A 
ATOM      5  C   UNL     1       3.207   5.814  19.495  0.00  0.00    +0.000 A 
ATOM      6  C   UNL     1       3.712   4.645  18.897  0.00  0.00    +0.000 A 
ATOM      7  C   UNL     1       2.958   3.478  19.068  0.00  0.00    +0.000 A 
ATOM      8  C   UNL     1       1.821   3.513  19.862  0.00  0.00    +0.000 A 
ATOM      9  N   UNL     1       1.384   4.612  20.509  0.00  0.00    +0.000 NA
ATOM     10  H   UNL     1       0.814   6.643  21.606  0.00  0.00    +0.000 HD
ENDROOT
BRANCH   1  17
ATOM     11  C   UNL     1      -0.020  10.486  19.005  0.00  0.00    +0.000 C 
ATOM     12  C   UNL     1      -0.014  10.236  20.486  0.00  0.00    +0.000 A 
ATOM     13  C   UNL     1      -0.746  11.108  21.314  0.00  0.00    +0.000 A 
ATOM     14  C   UNL     1      -0.797  10.919  22.700  0.00  0.00    +0.000 A 
ATOM     15  C   UNL     1      -0.114   9.861  23.283  0.00  0.00    +0.000 A 
ATOM     16  C   UNL     1       0.623   8.991  22.481  0.00  0.00    +0.000 A 
ATOM     17  C   UNL     1       0.679   9.165  21.086  0.00  0.00    +0.000 A 
ENDBRANCH   1  17
BRANCH   6  18
ATOM     18  C   UNL     1       4.987   4.634  18.136  0.00  0.00    +0.000 A 
ATOM     19  C   UNL     1       6.202   5.020  18.736  0.00  0.00    +0.000 A 
ATOM     20  C   UNL     1       7.411   5.005  18.028  0.00  0.00    +0.000 A 
ATOM     21  C   UNL     1       7.435   4.597  16.699  0.00  0.00    +0.000 A 
ATOM     22  C   UNL     1       6.254   4.194  16.083  0.00  0.00    +0.000 A 
ATOM     23  C   UNL     1       5.047   4.213  16.793  0.00  0.00    +0.000 A 
ENDBRANCH   6  18
TORSDOF 2
ENDMDL
MODEL 2
REMARK VINA RESULT:      -8.5      0.178      1.036
REMARK  Name = 
REMARK  3 active torsions:
REMARK  status: ('A' for Active; 'I' for Inactive)
REMARK    1  A    between atoms: C_1  and  C_2
REMARK    2  A    between atoms: C_7  and  C_8
REMARK    3  A    between atoms: C_13  and  C_14
REMARK                            x       y       z     vdW  Elec       q    Type
REMARK                         _______ _______ _______ _____ _____    ______ ____
ROOT
ATOM      1  C   UNL     1       1.472   8.032  20.247  0.00  0.00    +0.000 C 
ATOM      2  O   UNL     1       1.819   8.294  19.099  0.00  0.00    +0.000 OA
ATOM      3  N   UNL     1       1.594   6.803  20.854  0.00  0.00    +0.000 N 
ATOM      4  C   UNL     1       2.130   5.675  20.221  0.00  0.00    +0.000 A 
ATOM      5  C   UNL     1       3.253   5.729  19.395  0.00  0.00    +0.000 A 
ATOM      6  C   UNL     1       3.744   4.554  18.797  0.00  0.00    +0.000 A 
ATOM      7  C   UNL     1       3.009   3.383  19.020  0.00  0.00    +0.000 A 
ATOM      8  C   UNL     1       1.906   3.422  19.860  0.00  0.00    +0.000 A 
ATOM      9  N   UNL     1       1.485   4.527  20.505  0.00  0.00    +0.000 NA
ATOM     10  H   UNL     1       0.941   6.572  21.590  0.00  0.00    +0.000 HD
ENDROOT
BRANCH   1  17
ATOM     11  C   UNL     1       0.006  10.390  18.959  0.00  0.00    +0.000 C 
ATOM     12  C   UNL     1       0.051  10.151  20.441  0.00  0.00    +0.000 A 
ATOM     13  C   UNL     1      -0.658  11.030  21.283  0.00  0.00    +0.000 A 
ATOM     14  C   UNL     1      -0.672  10.852  22.671  0.00  0.00    +0.000 A 
ATOM     15  C   UNL     1       0.025   9.797  23.243  0.00  0.00    +0.000 A 
ATOM     16  C   UNL     1       0.739   8.920  22.428  0.00  0.00    +0.000 A 
ATOM     17  C   UNL     1       0.758   9.083  21.031  0.00  0.00    +0.000 A 
ENDBRANCH   1  17
BRANCH   6  18
ATOM     18  C   UNL     1       4.986   4.541  17.984  0.00  0.00    +0.000 A 
ATOM     19  C   UNL     1       4.956   4.262  16.603  0.00  0.00    +0.000 A 
ATOM     20  C   UNL     1       6.123   4.255  15.828  0.00  0.00    +0.000 A 
ATOM     21  C   UNL     1       7.352   4.534  16.416  0.00  0.00    +0.000 A 
ATOM     22  C   UNL     1       7.412   4.830  17.774  0.00  0.00    +0.000 A 
ATOM     23  C   UNL     1       6.244   4.832  18.546  0.00  0.00    +0.000 A 
ENDBRANCH   6  18
TORSDOF 2
ENDMDL
MODEL 3
REMARK VINA RESULT:      -8.4      1.210      1.399
REMARK  Name = 
REMARK  3 active torsions:
REMARK  status: ('A' for Active; 'I' for Inactive)
REMARK    1  A    between atoms: C_1  and  C_2
REMARK    2  A    between atoms: C_7  and  C_8
REMARK    3  A    between atoms: C_13  and  C_14
REMARK                            x       y       z     vdW  Elec       q    Type
REMARK                         _______ _______ _______ _____ _____    ______ ____
ROOT
ATOM      1  C   UNL     1       1.152   8.577  20.239  0.00  0.00    +0.000 C 
ATOM      2  O   UNL     1       1.097   8.703  19.020  0.00  0.00    +0.000 OA
ATOM      3  N   UNL     1       1.624   7.469  20.904  0.00  0.00    +0.000 N 
ATOM      4  C   UNL     1       2.100   6.321  20.259  0.00  0.00    +0.000 A 
ATOM      5  C   UNL     1       2.903   6.368  19.120  0.00  0.00    +0.000 A 
ATOM      6  C   UNL     1       3.353   5.174  18.527  0.00  0.00    +0.000 A 
ATOM      7  C   UNL     1       2.894   3.979  19.095  0.00  0.00    +0.000 A 
ATOM      8  C   UNL     1       2.101   4.028  20.232  0.00  0.00    +0.000 A 
ATOM      9  N   UNL     1       1.741   5.168  20.854  0.00  0.00    +0.000 NA
ATOM     10  H   UNL     1       1.263   7.283  21.830  0.00  0.00    +0.000 HD
ENDROOT
BRANCH   1  17
ATOM     11  C   UNL     1       1.248  11.548  19.508  0.00  0.00    +0.000 C 
ATOM     12  C   UNL     1       0.574  11.019  20.742  0.00  0.00    +0.000 A 
ATOM     13  C   UNL     1      -0.090  11.931  21.584  0.00  0.00    +0.000 A 
ATOM     14  C   UNL     1      -0.754  11.500  22.739  0.00  0.00    +0.000 A 
ATOM     15  C   UNL     1      -0.760  10.153  23.076  0.00  0.00    +0.000 A 
ATOM     16  C   UNL     1      -0.102   9.236  22.258  0.00  0.00    +0.000 A 
ATOM     17  C   UNL     1       0.564   9.653  21.091  0.00  0.00    +0.000 A 
ENDBRANCH   1  17
BRANCH   6  18
ATOM     18  C   UNL     1       4.282   5.169  17.368  0.00  0.00    +0.000 A 
ATOM     19  C   UNL     1       4.801   3.966  16.849  0.00  0.00    +0.000 A 
ATOM     20  C   UNL     1       5.672   3.952  15.752  0.00  0.00    +0.000 A 
ATOM     21  C   UNL     1       6.042   5.145  15.141  0.00  0.00    +0.000 A 
ATOM     22  C   UNL     1       5.534   6.348  15.620  0.00  0.00    +0.000 A 
ATOM     23  C   UNL     1       4.666   6.358  16.719  0.00  0.00    +0.000 A 
ENDBRANCH   6  18
TORSDOF 2
ENDMDL
MODEL 4
REMARK VINA RESULT:      -8.2      2.558      4.448
REMARK  Name = 
REMARK  3 active torsions:
REMARK  status: ('A' for Active; 'I' for Inactive)
REMARK    1  A    between atoms: C_1  and  C_2
REMARK    2  A    between atoms: C_7  and  C_8
REMARK    3  A    between atoms: C_13  and  C_14
REMARK                            x       y       z     vdW  Elec       q    Type
REMARK                         _______ _______ _______ _____ _____    ______ ____
ROOT
ATOM      1  C   UNL     1       3.186   6.533  18.231  0.00  0.00    +0.000 C 
ATOM      2  O   UNL     1       2.710   5.677  17.490  0.00  0.00    +0.000 OA
ATOM      3  N   UNL     1       4.529   6.754  18.431  0.00  0.00    +0.000 N 
ATOM      4  C   UNL     1       5.539   6.008  17.810  0.00  0.00    +0.000 A 
ATOM      5  C   UNL     1       5.482   5.619  16.472  0.00  0.00    +0.000 A 
ATOM      6  C   UNL     1       6.537   4.877  15.909  0.00  0.00    +0.000 A 
ATOM      7  C   UNL     1       7.575   4.508  16.773  0.00  0.00    +0.000 A 
ATOM      8  C   UNL     1       7.551   4.945  18.089  0.00  0.00    +0.000 A 
ATOM      9  N   UNL     1       6.586   5.729  18.609  0.00  0.00    +0.000 NA
ATOM     10  H   UNL     1       4.817   7.153  19.313  0.00  0.00    +0.000 HD
ENDROOT
BRANCH   1  17
ATOM     11  C   UNL     1       2.001   5.520  20.865  0.00  0.00    +0.000 C 
ATOM     12  C   UNL     1       1.736   6.890  20.308  0.00  0.00    +0.000 A 
ATOM     13  C   UNL     1       0.938   7.774  21.060  0.00  0.00    +0.000 A 
ATOM     14  C   UNL     1       0.667   9.070  20.606  0.00  0.00    +0.000 A 
ATOM     15  C   UNL     1       1.184   9.504  19.393  0.00  0.00    +0.000 A 
ATOM     16  C   UNL     1       1.971   8.641  18.631  0.00  0.00    +0.000 A 
ATOM     17  C   UNL     1       2.255   7.337  19.077  0.00  0.00    +0.000 A 
ENDBRANCH   1  17
BRANCH   6  18
ATOM     18  C   UNL     1       6.568   4.515  14.469  0.00  0.00    +0.000 A 
ATOM     19  C   UNL     1       5.594   3.668  13.905  0.00  0.00    +0.000 A 
ATOM     20  C   UNL     1       5.611   3.327  12.546  0.00  0.00    +0.000 A 
ATOM     21  C   UNL     1       6.603   3.834  11.714  0.00  0.00    +0.000 A 
ATOM     22  C   UNL     1       7.569   4.687  12.237  0.00  0.00    +0.000 A 
ATOM     23  C   UNL     1       7.551   5.022  13.597  0.00  0.00    +0.000 A 
ENDBRANCH   6  18
TORSDOF 2
ENDMDL
MODEL 5
REMARK VINA RESULT:      -8.2      2.571      4.404
REMARK  Name = 
REMARK  3 active torsions:
REMARK  status: ('A' for Active; 'I' for Inactive)
REMARK    1  A    between atoms: C_1  and  C_2
REMARK    2  A    between atoms: C_7  and  C_8
REMARK    3  A    between atoms: C_13  and  C_14
REMARK                            x       y       z     vdW  Elec       q    Type
REMARK                         _______ _______ _______ _____ _____    ______ ____
ROOT
ATOM      1  C   UNL     1       3.184   6.537  18.219  0.00  0.00    +0.000 C 
ATOM      2  O   UNL     1       2.705   5.681  17.482  0.00  0.00    +0.000 OA
ATOM      3  N   UNL     1       4.529   6.760  18.410  0.00  0.00    +0.000 N 
ATOM      4  C   UNL     1       5.536   6.016  17.783  0.00  0.00    +0.000 A 
ATOM      5  C   UNL     1       5.470   5.626  16.446  0.00  0.00    +0.000 A 
ATOM      6  C   UNL     1       6.522   4.886  15.876  0.00  0.00    +0.000 A 
ATOM      7  C   UNL     1       7.566   4.518  16.734  0.00  0.00    +0.000 A 
ATOM      8  C   UNL     1       7.550   4.955  18.050  0.00  0.00    +0.000 A 
ATOM      9  N   UNL     1       6.588   5.738  18.576  0.00  0.00    +0.000 NA
ATOM     10  H   UNL     1       4.821   7.159  19.291  0.00  0.00    +0.000 HD
ENDROOT
BRANCH   1  17
ATOM     11  C   UNL     1       2.031   5.530  20.870  0.00  0.00    +0.000 C 
ATOM     12  C   UNL     1       1.753   6.896  20.310  0.00  0.00    +0.000 A 
ATOM     13  C   UNL     1       0.958   7.779  21.066  0.00  0.00    +0.000 A 
ATOM     14  C   UNL     1       0.676   9.072  20.609  0.00  0.00    +0.000 A 
ATOM     15  C   UNL     1       1.179   9.503  19.389  0.00  0.00    +0.000 A 
ATOM     16  C   UNL     1       1.962   8.641  18.623  0.00  0.00    +0.000 A 
ATOM     17  C   UNL     1       2.258   7.340  19.071  0.00  0.00    +0.000 A 
ENDBRANCH   1  17
BRANCH   6  18
ATOM     18  C   UNL     1       6.545   4.524  14.436  0.00  0.00    +0.000 A 
ATOM     19  C   UNL     1       7.560   4.991  13.578  0.00  0.00    +0.000 A 
ATOM     20  C   UNL     1       7.592   4.649  12.220  0.00  0.00    +0.000 A 
ATOM     21  C   UNL     1       6.610   3.823  11.686  0.00  0.00    +0.000 A 
ATOM     22  C   UNL     1       5.603   3.332  12.511  0.00  0.00    +0.000 A 
ATOM     23  C   UNL     1       5.572   3.679  13.868  0.00  0.00    +0.000 A 
ENDBRANCH   6  18
TORSDOF 2
ENDMDL
MODEL 6
REMARK VINA RESULT:      -8.2      2.893      4.285
REMARK  Name = 
REMARK  3 active torsions:
REMARK  status: ('A' for Active; 'I' for Inactive)
REMARK    1  A    between atoms: C_1  and  C_2
REMARK    2  A    between atoms: C_7  and  C_8
REMARK    3  A    between atoms: C_13  and  C_14
REMARK                            x       y       z     vdW  Elec       q    Type
REMARK                         _______ _______ _______ _____ _____    ______ ____
ROOT
ATOM      1  C   UNL     1       1.284   9.877  18.872  0.00  0.00    +0.000 C 
ATOM      2  O   UNL     1       1.174   9.310  19.955  0.00  0.00    +0.000 OA
ATOM      3  N   UNL     1       1.941   9.371  17.773  0.00  0.00    +0.000 N 
ATOM      4  C   UNL     1       2.586   8.128  17.759  0.00  0.00    +0.000 A 
ATOM      5  C   UNL     1       2.050   6.987  18.355  0.00  0.00    +0.000 A 
ATOM      6  C   UNL     1       2.748   5.767  18.296  0.00  0.00    +0.000 A 
ATOM      7  C   UNL     1       4.007   5.795  17.683  0.00  0.00    +0.000 A 
ATOM      8  C   UNL     1       4.459   6.976  17.112  0.00  0.00    +0.000 A 
ATOM      9  N   UNL     1       3.754   8.124  17.090  0.00  0.00    +0.000 NA
ATOM     10  H   UNL     1       2.330  10.028  17.111  0.00  0.00    +0.000 HD
ENDROOT
BRANCH   1  17
ATOM     11  C   UNL     1      -1.666  10.548  18.409  0.00  0.00    +0.000 C 
ATOM     12  C   UNL     1      -0.594  11.588  18.567  0.00  0.00    +0.000 A 
ATOM     13  C   UNL     1      -0.970  12.945  18.548  0.00  0.00    +0.000 A 
ATOM     14  C   UNL     1      -0.021  13.962  18.708  0.00  0.00    +0.000 A 
ATOM     15  C   UNL     1       1.318  13.643  18.884  0.00  0.00    +0.000 A 
ATOM     16  C   UNL     1       1.711  12.306  18.898  0.00  0.00    +0.000 A 
ATOM     17  C   UNL     1       0.769  11.272  18.744  0.00  0.00    +0.000 A 
ENDBRANCH   1  17
BRANCH   6  18
ATOM     18  C   UNL     1       2.181   4.505  18.835  0.00  0.00    +0.000 A 
ATOM     19  C   UNL     1       1.648   4.438  20.138  0.00  0.00    +0.000 A 
ATOM     20  C   UNL     1       1.105   3.254  20.651  0.00  0.00    +0.000 A 
ATOM     21  C   UNL     1       1.075   2.104  19.869  0.00  0.00    +0.000 A 
ATOM     22  C   UNL     1       1.578   2.143  18.573  0.00  0.00    +0.000 A 
ATOM     23  C   UNL     1       2.124   3.328  18.064  0.00  0.00    +0.000 A 
ENDBRANCH   6  18
TORSDOF 2
ENDMDL
MODEL 7
REMARK VINA RESULT:      -8.1      2.887      4.325
REMARK  Name = 
REMARK  3 active torsions:
REMARK  status: ('A' for Active; 'I' for Inactive)
REMARK    1  A    between atoms: C_1  and  C_2
REMARK    2  A    between atoms: C_7  and  C_8
REMARK    3  A    between atoms: C_13  and  C_14
REMARK                            x       y       z     vdW  Elec       q    Type
REMARK                         _______ _______ _______ _____ _____    ______ ____
ROOT
ATOM      1  C   UNL     1       1.228   9.796  18.821  0.00  0.00    +0.000 C 
ATOM      2  O   UNL     1       1.130   9.236  19.909  0.00  0.00    +0.000 OA
ATOM      3  N   UNL     1       1.899   9.298  17.728  0.00  0.00    +0.000 N 
ATOM      4  C   UNL     1       2.576   8.072  17.725  0.00  0.00    +0.000 A 
ATOM      5  C   UNL     1       2.068   6.922  18.330  0.00  0.00    +0.000 A 
ATOM      6  C   UNL     1       2.798   5.721  18.282  0.00  0.00    +0.000 A 
ATOM      7  C   UNL     1       4.057   5.776  17.672  0.00  0.00    +0.000 A 
ATOM      8  C   UNL     1       4.480   6.962  17.091  0.00  0.00    +0.000 A 
ATOM      9  N   UNL     1       3.746   8.092  17.058  0.00  0.00    +0.000 NA
ATOM     10  H   UNL     1       2.273   9.959  17.062  0.00  0.00    +0.000 HD
ENDROOT
BRANCH   1  17
ATOM     11  C   UNL     1      -1.697  10.382  18.137  0.00  0.00    +0.000 C 
ATOM     12  C   UNL     1      -0.677  11.452  18.401  0.00  0.00    +0.000 A 
ATOM     13  C   UNL     1      -1.096  12.796  18.381  0.00  0.00    +0.000 A 
ATOM     14  C   UNL     1      -0.198  13.840  18.637  0.00  0.00    +0.000 A 
ATOM     15  C   UNL     1       1.133  13.560  18.914  0.00  0.00    +0.000 A 
ATOM     16  C   UNL     1       1.569  12.236  18.932  0.00  0.00    +0.000 A 
ATOM     17  C   UNL     1       0.677  11.176  18.681  0.00  0.00    +0.000 A 
ENDBRANCH   1  17
BRANCH   6  18
ATOM     18  C   UNL     1       2.262   4.449  18.831  0.00  0.00    +0.000 A 
ATOM     19  C   UNL     1       2.419   3.229  18.142  0.00  0.00    +0.000 A 
ATOM     20  C   UNL     1       1.923   2.024  18.656  0.00  0.00    +0.000 A 
ATOM     21  C   UNL     1       1.261   2.008  19.878  0.00  0.00    +0.000 A 
ATOM     22  C   UNL     1       1.105   3.193  20.590  0.00  0.00    +0.000 A 
ATOM     23  C   UNL     1       1.599   4.396  20.072  0.00  0.00    +0.000 A 
ENDBRANCH   6  18
TORSDOF 2
ENDMDL
MODEL 8
REMARK VINA RESULT:      -8.1      1.932      2.529
REMARK  Name = 
REMARK  3 active torsions:
REMARK  status: ('A' for Active; 'I' for Inactive)
REMARK    1  A    between atoms: C_1  and  C_2
REMARK    2  A    between atoms: C_7  and  C_8
REMARK    3  A    between atoms: C_13  and  C_14
REMARK                            x       y       z     vdW  Elec       q    Type
REMARK                         _______ _______ _______ _____ _____    ______ ____
ROOT
ATOM      1  C   UNL     1       1.263   9.387  18.523  0.00  0.00    +0.000 C 
ATOM      2  O   UNL     1       1.379   9.076  17.342  0.00  0.00    +0.000 OA
ATOM      3  N   UNL     1       1.654   8.612  19.592  0.00  0.00    +0.000 N 
ATOM      4  C   UNL     1       2.232   7.343  19.460  0.00  0.00    +0.000 A 
ATOM      5  C   UNL     1       3.186   7.041  18.489  0.00  0.00    +0.000 A 
ATOM      6  C   UNL     1       3.733   5.746  18.419  0.00  0.00    +0.000 A 
ATOM      7  C   UNL     1       3.216   4.798  19.310  0.00  0.00    +0.000 A 
ATOM      8  C   UNL     1       2.270   5.190  20.246  0.00  0.00    +0.000 A 
ATOM      9  N   UNL     1       1.810   6.450  20.374  0.00  0.00    +0.000 NA
ATOM     10  H   UNL     1       1.168   8.737  20.469  0.00  0.00    +0.000 HD
ENDROOT
BRANCH   1  17
ATOM     11  C   UNL     1       2.492  12.166  18.159  0.00  0.00    +0.000 C 
ATOM     12  C   UNL     1       1.094  11.936  18.658  0.00  0.00    +0.000 A 
ATOM     13  C   UNL     1       0.287  13.058  18.929  0.00  0.00    +0.000 A 
ATOM     14  C   UNL     1      -1.031  12.912  19.379  0.00  0.00    +0.000 A 
ATOM     15  C   UNL     1      -1.563  11.645  19.571  0.00  0.00    +0.000 A 
ATOM     16  C   UNL     1      -0.778  10.522  19.315  0.00  0.00    +0.000 A 
ATOM     17  C   UNL     1       0.546  10.653  18.858  0.00  0.00    +0.000 A 
ENDBRANCH   1  17
BRANCH   6  18
ATOM     18  C   UNL     1       4.816   5.397  17.464  0.00  0.00    +0.000 A 
ATOM     19  C   UNL     1       4.699   4.294  16.595  0.00  0.00    +0.000 A 
ATOM     20  C   UNL     1       5.713   3.961  15.688  0.00  0.00    +0.000 A 
ATOM     21  C   UNL     1       6.869   4.731  15.621  0.00  0.00    +0.000 A 
ATOM     22  C   UNL     1       7.006   5.836  16.454  0.00  0.00    +0.000 A 
ATOM     23  C   UNL     1       5.992   6.163  17.364  0.00  0.00    +0.000 A 
ENDBRANCH   6  18
TORSDOF 2
ENDMDL
MODEL 9
REMARK VINA RESULT:      -8.1      1.851      2.293
REMARK  Name = 
REMARK  3 active torsions:
REMARK  status: ('A' for Active; 'I' for Inactive)
REMARK    1  A    between atoms: C_1  and  C_2
REMARK    2  A    between atoms: C_7  and  C_8
REMARK    3  A    between atoms: C_13  and  C_14
REMARK                            x       y       z     vdW  Elec       q    Type
REMARK                         _______ _______ _______ _____ _____    ______ ____
ROOT
ATOM      1  C   UNL     1       1.290   9.380  18.595  0.00  0.00    +0.000 C 
ATOM      2  O   UNL     1       1.397   9.094  17.406  0.00  0.00    +0.000 OA
ATOM      3  N   UNL     1       1.677   8.576  19.643  0.00  0.00    +0.000 N 
ATOM      4  C   UNL     1       2.241   7.305  19.480  0.00  0.00    +0.000 A 
ATOM      5  C   UNL     1       3.188   7.015  18.498  0.00  0.00    +0.000 A 
ATOM      6  C   UNL     1       3.721   5.717  18.396  0.00  0.00    +0.000 A 
ATOM      7  C   UNL     1       3.198   4.754  19.268  0.00  0.00    +0.000 A 
ATOM      8  C   UNL     1       2.261   5.134  20.217  0.00  0.00    +0.000 A 
ATOM      9  N   UNL     1       1.814   6.395  20.376  0.00  0.00    +0.000 NA
ATOM     10  H   UNL     1       1.197   8.687  20.525  0.00  0.00    +0.000 HD
ENDROOT
BRANCH   1  17
ATOM     11  C   UNL     1       2.481  12.162  18.138  0.00  0.00    +0.000 C 
ATOM     12  C   UNL     1       1.117  11.929  18.720  0.00  0.00    +0.000 A 
ATOM     13  C   UNL     1       0.321  13.050  19.029  0.00  0.00    +0.000 A 
ATOM     14  C   UNL     1      -0.967  12.901  19.556  0.00  0.00    +0.000 A 
ATOM     15  C   UNL     1      -1.481  11.633  19.789  0.00  0.00    +0.000 A 
ATOM     16  C   UNL     1      -0.707  10.512  19.496  0.00  0.00    +0.000 A 
ATOM     17  C   UNL     1       0.588  10.645  18.961  0.00  0.00    +0.000 A 
ENDBRANCH   1  17
BRANCH   6  18
ATOM     18  C   UNL     1       4.796   5.378  17.429  0.00  0.00    +0.000 A 
ATOM     19  C   UNL     1       5.978   6.141  17.350  0.00  0.00    +0.000 A 
ATOM     20  C   UNL     1       7.000   5.824  16.446  0.00  0.00    +0.000 A 
ATOM     21  C   UNL     1       6.867   4.728  15.601  0.00  0.00    +0.000 A 
ATOM     22  C   UNL     1       5.719   3.946  15.667  0.00  0.00    +0.000 A 
ATOM     23  C   UNL     1       4.698   4.268  16.569  0.00  0.00    +0.000 A 
ENDBRANCH   6  18
TORSDOF 2
ENDMDL
