MODEL 1
REMARK VINA RESULT:      -6.7      0.000      0.000
REMARK  Name = 
REMARK  7 active torsions:
REMARK  status: ('A' for Active; 'I' for Inactive)
REMARK    1  A    between atoms: C_1  and  O_2
REMARK    2  A    between atoms: O_2  and  C_3
REMARK    3  A    between atoms: C_6  and  N_7
REMARK    4  A    between atoms: C_8  and  C_10
REMARK    5  A    between atoms: C_10  and  N_11
REMARK    6  A    between atoms: N_11  and  C_12
REMARK    7  A    between atoms: N_11  and  C_13
REMARK                            x       y       z     vdW  Elec       q    Type
REMARK                         _______ _______ _______ _____ _____    ______ ____
ROOT
ATOM      1  N   UNL     1       3.003   6.706  18.673  0.00  0.00    +0.000 N 
ATOM      2  C   UNL     1       2.630   5.529  18.050  0.00  0.00    +0.000 C 
ATOM      3  O   UNL     1       1.495   5.063  17.990  0.00  0.00    +0.000 OA
ATOM      4  H   UNL     1       4.011   6.831  18.738  0.00  0.00    +0.000 HD
ENDROOT
BRANCH   1   8
ATOM      5  C   UNL     1       0.482   9.413  20.721  0.00  0.00    +0.000 A 
ATOM      6  C   UNL     1       0.899   8.229  21.339  0.00  0.00    +0.000 A 
ATOM      7  C   UNL     1       1.732   7.319  20.688  0.00  0.00    +0.000 A 
ATOM      8  C   UNL     1       2.163   7.573  19.392  0.00  0.00    +0.000 A 
ATOM      9  C   UNL     1       1.760   8.750  18.763  0.00  0.00    +0.000 A 
ATOM     10  C   UNL     1       0.947   9.682  19.425  0.00  0.00    +0.000 A 
ATOM     11 CL   UNL     1       0.679  11.161  18.572  0.00  0.00    +0.000 Cl
BRANCH   5  13
ATOM     12  C   UNL     1      -0.491   9.764  22.863  0.00  0.00    +0.000 C 
ATOM     13  O   UNL     1      -0.291  10.205  21.527  0.00  0.00    +0.000 OA
ENDBRANCH   5  13
ENDBRANCH   1   8
BRANCH   2  14
ATOM     14  C   UNL     1       3.801   4.823  17.366  0.00  0.00    +0.000 C 
BRANCH  14  15
ATOM     15  N   UNL     1       5.037   4.752  18.215  0.00  0.00    +0.000 NA
ATOM     16  C   UNL     1       4.981   3.538  19.055  0.00  0.00    +0.000 C 
BRANCH  15  17
ATOM     17  C   UNL     1       6.244   4.731  17.325  0.00  0.00    +0.000 C 
ATOM     18  C   UNL     1       6.330   5.972  16.405  0.00  0.00    +0.000 C 
ATOM     19  C   UNL     1       6.531   7.263  17.194  0.00  0.00    +0.000 C 
ATOM     20  C   UNL     1       7.780   7.209  18.067  0.00  0.00    +0.000 C 
ATOM     21  C   UNL     1       7.919   5.921  18.876  0.00  0.00    +0.000 C 
ATOM     22  C   UNL     1       7.599   4.661  18.074  0.00  0.00    +0.000 C 
ENDBRANCH  15  17
ENDBRANCH  14  15
ENDBRANCH   2  14
TORSDOF 5
ENDMDL
MODEL 2
REMARK VINA RESULT:      -6.6      1.300      1.781
REMARK  Name = 
REMARK  7 active torsions:
REMARK  status: ('A' for Active; 'I' for Inactive)
REMARK    1  A    between atoms: C_1  and  O_2
REMARK    2  A    between atoms: O_2  and  C_3
REMARK    3  A    between atoms: C_6  and  N_7
REMARK    4  A    between atoms: C_8  and  C_10
REMARK    5  A    between atoms: C_10  and  N_11
REMARK    6  A    between atoms: N_11  and  C_12
REMARK    7  A    between atoms: N_11  and  C_13
REMARK                            x       y       z     vdW  Elec       q    Type
REMARK                         _______ _______ _______ _____ _____    ______ ____
ROOT
ATOM      1  N   UNL     1       2.982   7.036  18.039  0.00  0.00    +0.000 N 
ATOM      2  C   UNL     1       2.700   5.683  18.006  0.00  0.00    +0.000 C 
ATOM      3  O   UNL     1       1.660   5.145  18.379  0.00  0.00    +0.000 OA
ATOM      4  H   UNL     1       3.954   7.255  17.828  0.00  0.00    +0.000 HD
ENDROOT
BRANCH   1   8
ATOM      5  C   UNL     1       0.493  10.028  19.691  0.00  0.00    +0.000 A 
ATOM      6  C   UNL     1       0.736   9.991  18.313  0.00  0.00    +0.000 A 
ATOM      7  C   UNL     1       1.551   9.015  17.741  0.00  0.00    +0.000 A 
ATOM      8  C   UNL     1       2.151   8.051  18.542  0.00  0.00    +0.000 A 
ATOM      9  C   UNL     1       1.917   8.071  19.915  0.00  0.00    +0.000 A 
ATOM     10  C   UNL     1       1.073   9.033  20.492  0.00  0.00    +0.000 A 
ATOM     11 CL   UNL     1       0.753   8.817  22.176  0.00  0.00    +0.000 Cl
BRANCH   5  13
ATOM     12  C   UNL     1       0.147  12.350  20.072  0.00  0.00    +0.000 C 
ATOM     13  O   UNL     1      -0.367  11.025  20.066  0.00  0.00    +0.000 OA
ENDBRANCH   5  13
ENDBRANCH   1   8
BRANCH   2  14
ATOM     14  C   UNL     1       3.833   4.854  17.399  0.00  0.00    +0.000 C 
BRANCH  14  15
ATOM     15  N   UNL     1       5.054   4.782  18.271  0.00  0.00    +0.000 NA
ATOM     16  C   UNL     1       4.968   3.581  19.128  0.00  0.00    +0.000 C 
BRANCH  15  17
ATOM     17  C   UNL     1       6.275   4.731  17.401  0.00  0.00    +0.000 C 
ATOM     18  C   UNL     1       6.372   5.937  16.437  0.00  0.00    +0.000 C 
ATOM     19  C   UNL     1       6.557   7.258  17.180  0.00  0.00    +0.000 C 
ATOM     20  C   UNL     1       7.793   7.240  18.074  0.00  0.00    +0.000 C 
ATOM     21  C   UNL     1       7.922   5.983  18.933  0.00  0.00    +0.000 C 
ATOM     22  C   UNL     1       7.618   4.694  18.173  0.00  0.00    +0.000 C 
ENDBRANCH  15  17
ENDBRANCH  14  15
ENDBRANCH   2  14
TORSDOF 5
ENDMDL
MODEL 3
REMARK VINA RESULT:      -6.4      1.669      2.517
REMARK  Name = 
REMARK  7 active torsions:
REMARK  status: ('A' for Active; 'I' for Inactive)
REMARK    1  A    between atoms: C_1  and  O_2
REMARK    2  A    between atoms: O_2  and  C_3
REMARK    3  A    between atoms: C_6  and  N_7
REMARK    4  A    between atoms: C_8  and  C_10
REMARK    5  A    between atoms: C_10  and  N_11
REMARK    6  A    between atoms: N_11  and  C_12
REMARK    7  A    between atoms: N_11  and  C_13
REMARK                            x       y       z     vdW  Elec       q    Type
REMARK                         _______ _______ _______ _____ _____    ______ ____
ROOT
ATOM      1  N   UNL     1       2.921   6.297  19.920  0.00  0.00    +0.000 N 
ATOM      2  C   UNL     1       2.558   5.034  19.490  0.00  0.00    +0.000 C 
ATOM      3  O   UNL     1       1.506   4.728  18.933  0.00  0.00    +0.000 OA
ATOM      4  H   UNL     1       3.764   6.306  20.491  0.00  0.00    +0.000 HD
ENDROOT
BRANCH   1   8
ATOM      5  C   UNL     1       0.522   9.777  19.821  0.00  0.00    +0.000 A 
ATOM      6  C   UNL     1       1.272   9.403  18.700  0.00  0.00    +0.000 A 
ATOM      7  C   UNL     1       2.070   8.259  18.704  0.00  0.00    +0.000 A 
ATOM      8  C   UNL     1       2.142   7.463  19.841  0.00  0.00    +0.000 A 
ATOM      9  C   UNL     1       1.398   7.819  20.964  0.00  0.00    +0.000 A 
ATOM     10  C   UNL     1       0.570   8.952  20.954  0.00  0.00    +0.000 A 
ATOM     11 CL   UNL     1      -0.411   9.158  22.361  0.00  0.00    +0.000 Cl
BRANCH   5  13
ATOM     12  C   UNL     1      -1.469  10.726  18.930  0.00  0.00    +0.000 C 
ATOM     13  O   UNL     1      -0.237  10.898  19.618  0.00  0.00    +0.000 OA
ENDBRANCH   5  13
ENDBRANCH   1   8
BRANCH   2  14
ATOM     14  C   UNL     1       3.644   3.986  19.739  0.00  0.00    +0.000 C 
BRANCH  14  15
ATOM     15  N   UNL     1       4.440   3.647  18.512  0.00  0.00    +0.000 NA
ATOM     16  C   UNL     1       3.694   2.658  17.707  0.00  0.00    +0.000 C 
BRANCH  15  17
ATOM     17  C   UNL     1       4.687   4.899  17.724  0.00  0.00    +0.000 C 
ATOM     18  C   UNL     1       5.966   5.645  18.174  0.00  0.00    +0.000 C 
ATOM     19  C   UNL     1       7.232   4.836  17.903  0.00  0.00    +0.000 C 
ATOM     20  C   UNL     1       7.367   4.467  16.429  0.00  0.00    +0.000 C 
ATOM     21  C   UNL     1       6.089   3.909  15.806  0.00  0.00    +0.000 C 
ATOM     22  C   UNL     1       4.833   4.685  16.197  0.00  0.00    +0.000 C 
ENDBRANCH  15  17
ENDBRANCH  14  15
ENDBRANCH   2  14
TORSDOF 5
ENDMDL
MODEL 4
REMARK VINA RESULT:      -6.3      2.475      4.214
REMARK  Name = 
REMARK  7 active torsions:
REMARK  status: ('A' for Active; 'I' for Inactive)
REMARK    1  A    between atoms: C_1  and  O_2
REMARK    2  A    between atoms: O_2  and  C_3
REMARK    3  A    between atoms: C_6  and  N_7
REMARK    4  A    between atoms: C_8  and  C_10
REMARK    5  A    between atoms: C_10  and  N_11
REMARK    6  A    between atoms: N_11  and  C_12
REMARK    7  A    between atoms: N_11  and  C_13
REMARK                            x       y       z     vdW  Elec       q    Type
REMARK                         _______ _______ _______ _____ _____    ______ ____
ROOT
ATOM      1  N   UNL     1       2.435   7.248  20.039  0.00  0.00    +0.000 N 
ATOM      2  C   UNL     1       3.156   6.916  18.906  0.00  0.00    +0.000 C 
ATOM      3  O   UNL     1       3.194   7.552  17.855  0.00  0.00    +0.000 OA
ATOM      4  H   UNL     1       2.419   6.511  20.741  0.00  0.00    +0.000 HD
ENDROOT
BRANCH   1   8
ATOM      5  C   UNL     1      -0.166  10.526  20.642  0.00  0.00    +0.000 A 
ATOM      6  C   UNL     1       0.345  10.254  19.368  0.00  0.00    +0.000 A 
ATOM      7  C   UNL     1       1.203   9.178  19.140  0.00  0.00    +0.000 A 
ATOM      8  C   UNL     1       1.577   8.349  20.191  0.00  0.00    +0.000 A 
ATOM      9  C   UNL     1       1.073   8.604  21.465  0.00  0.00    +0.000 A 
ATOM     10  C   UNL     1       0.186   9.667  21.694  0.00  0.00    +0.000 A 
ATOM     11 CL   UNL     1      -0.476   9.743  23.287  0.00  0.00    +0.000 Cl
BRANCH   5  13
ATOM     12  C   UNL     1      -1.844  11.784  19.520  0.00  0.00    +0.000 C 
ATOM     13  O   UNL     1      -1.027  11.589  20.667  0.00  0.00    +0.000 OA
ENDBRANCH   5  13
ENDBRANCH   1   8
BRANCH   2  14
ATOM     14  C   UNL     1       3.983   5.642  19.079  0.00  0.00    +0.000 C 
BRANCH  14  15
ATOM     15  N   UNL     1       3.389   4.446  18.394  0.00  0.00    +0.000 NA
ATOM     16  C   UNL     1       4.195   4.121  17.199  0.00  0.00    +0.000 C 
BRANCH  15  17
ATOM     17  C   UNL     1       3.366   3.292  19.352  0.00  0.00    +0.000 C 
ATOM     18  C   UNL     1       2.681   3.643  20.694  0.00  0.00    +0.000 C 
ATOM     19  C   UNL     1       1.196   3.952  20.522  0.00  0.00    +0.000 C 
ATOM     20  C   UNL     1       0.445   2.794  19.873  0.00  0.00    +0.000 C 
ATOM     21  C   UNL     1       1.139   2.213  18.643  0.00  0.00    +0.000 C 
ATOM     22  C   UNL     1       2.644   2.027  18.824  0.00  0.00    +0.000 C 
ENDBRANCH  15  17
ENDBRANCH  14  15
ENDBRANCH   2  14
TORSDOF 5
ENDMDL
MODEL 5
REMARK VINA RESULT:      -6.2      1.014      1.058
REMARK  Name = 
REMARK  7 active torsions:
REMARK  status: ('A' for Active; 'I' for Inactive)
REMARK    1  A    between atoms: C_1  and  O_2
REMARK    2  A    between atoms: O_2  and  C_3
REMARK    3  A    between atoms: C_6  and  N_7
REMARK    4  A    between atoms: C_8  and  C_10
REMARK    5  A    between atoms: C_10  and  N_11
REMARK    6  A    between atoms: N_11  and  C_12
REMARK    7  A    between atoms: N_11  and  C_13
REMARK                            x       y       z     vdW  Elec       q    Type
REMARK                         _______ _______ _______ _____ _____    ______ ____
ROOT
ATOM      1  N   UNL     1       2.375   7.158  19.105  0.00  0.00    +0.000 N 
ATOM      2  C   UNL     1       2.351   5.797  19.345  0.00  0.00    +0.000 C 
ATOM      3  O   UNL     1       1.772   5.229  20.268  0.00  0.00    +0.000 OA
ATOM      4  H   UNL     1       3.037   7.432  18.380  0.00  0.00    +0.000 HD
ENDROOT
BRANCH   1   8
ATOM      5  C   UNL     1       0.560  10.247  21.349  0.00  0.00    +0.000 A 
ATOM      6  C   UNL     1       1.055   9.105  21.989  0.00  0.00    +0.000 A 
ATOM      7  C   UNL     1       1.660   8.072  21.274  0.00  0.00    +0.000 A 
ATOM      8  C   UNL     1       1.778   8.156  19.892  0.00  0.00    +0.000 A 
ATOM      9  C   UNL     1       1.294   9.289  19.240  0.00  0.00    +0.000 A 
ATOM     10  C   UNL     1       0.711  10.344  19.958  0.00  0.00    +0.000 A 
ATOM     11 CL   UNL     1       0.319  11.742  19.023  0.00  0.00    +0.000 Cl
BRANCH   5  13
ATOM     12  C   UNL     1      -1.041  10.759  23.032  0.00  0.00    +0.000 C 
ATOM     13  O   UNL     1       0.044  11.175  22.214  0.00  0.00    +0.000 OA
ENDBRANCH   5  13
ENDBRANCH   1   8
BRANCH   2  14
ATOM     14  C   UNL     1       3.115   4.993  18.292  0.00  0.00    +0.000 C 
BRANCH  14  15
ATOM     15  N   UNL     1       4.573   4.826  18.608  0.00  0.00    +0.000 NA
ATOM     16  C   UNL     1       4.758   3.600  19.412  0.00  0.00    +0.000 C 
BRANCH  15  17
ATOM     17  C   UNL     1       5.348   4.745  17.326  0.00  0.00    +0.000 C 
ATOM     18  C   UNL     1       5.216   6.026  16.467  0.00  0.00    +0.000 C 
ATOM     19  C   UNL     1       5.837   7.244  17.146  0.00  0.00    +0.000 C 
ATOM     20  C   UNL     1       7.309   7.022  17.478  0.00  0.00    +0.000 C 
ATOM     21  C   UNL     1       7.601   5.680  18.148  0.00  0.00    +0.000 C 
ATOM     22  C   UNL     1       6.868   4.506  17.502  0.00  0.00    +0.000 C 
ENDBRANCH  15  17
ENDBRANCH  14  15
ENDBRANCH   2  14
TORSDOF 5
ENDMDL
MODEL 6
REMARK VINA RESULT:      -6.1      2.371      4.137
REMARK  Name = 
REMARK  7 active torsions:
REMARK  status: ('A' for Active; 'I' for Inactive)
REMARK    1  A    between atoms: C_1  and  O_2
REMARK    2  A    between atoms: O_2  and  C_3
REMARK    3  A    between atoms: C_6  and  N_7
REMARK    4  A    between atoms: C_8  and  C_10
REMARK    5  A    between atoms: C_10  and  N_11
REMARK    6  A    between atoms: N_11  and  C_12
REMARK    7  A    between atoms: N_11  and  C_13
REMARK                            x       y       z     vdW  Elec       q    Type
REMARK                         _______ _______ _______ _____ _____    ______ ____
ROOT
ATOM      1  N   UNL     1       2.786   6.830  19.127  0.00  0.00    +0.000 N 
ATOM      2  C   UNL     1       3.883   6.541  18.337  0.00  0.00    +0.000 C 
ATOM      3  O   UNL     1       4.393   7.281  17.499  0.00  0.00    +0.000 OA
ATOM      4  H   UNL     1       2.433   6.026  19.643  0.00  0.00    +0.000 HD
ENDROOT
BRANCH   1   8
ATOM      5  C   UNL     1       0.450  10.353  19.175  0.00  0.00    +0.000 A 
ATOM      6  C   UNL     1       0.961   9.860  17.969  0.00  0.00    +0.000 A 
ATOM      7  C   UNL     1       1.733   8.700  17.924  0.00  0.00    +0.000 A 
ATOM      8  C   UNL     1       2.018   8.005  19.094  0.00  0.00    +0.000 A 
ATOM      9  C   UNL     1       1.513   8.481  20.302  0.00  0.00    +0.000 A 
ATOM     10  C   UNL     1       0.711   9.632  20.349  0.00  0.00    +0.000 A 
ATOM     11 CL   UNL     1       0.027   9.989  21.894  0.00  0.00    +0.000 Cl
BRANCH   5  13
ATOM     12  C   UNL     1       0.357  12.721  18.959  0.00  0.00    +0.000 C 
ATOM     13  O   UNL     1      -0.322  11.473  19.021  0.00  0.00    +0.000 OA
ENDBRANCH   5  13
ENDBRANCH   1   8
BRANCH   2  14
ATOM     14  C   UNL     1       4.478   5.162  18.626  0.00  0.00    +0.000 C 
BRANCH  14  15
ATOM     15  N   UNL     1       3.664   4.031  18.070  0.00  0.00    +0.000 NA
ATOM     16  C   UNL     1       4.306   3.531  16.836  0.00  0.00    +0.000 C 
BRANCH  15  17
ATOM     17  C   UNL     1       3.566   2.944  19.099  0.00  0.00    +0.000 C 
ATOM     18  C   UNL     1       3.105   3.468  20.480  0.00  0.00    +0.000 C 
ATOM     19  C   UNL     1       1.679   4.012  20.444  0.00  0.00    +0.000 C 
ATOM     20  C   UNL     1       0.682   2.966  19.956  0.00  0.00    +0.000 C 
ATOM     21  C   UNL     1       1.128   2.220  18.701  0.00  0.00    +0.000 C 
ATOM     22  C   UNL     1       2.594   1.794  18.734  0.00  0.00    +0.000 C 
ENDBRANCH  15  17
ENDBRANCH  14  15
ENDBRANCH   2  14
TORSDOF 5
ENDMDL
MODEL 7
REMARK VINA RESULT:      -6.0      1.435      2.083
REMARK  Name = 
REMARK  7 active torsions:
REMARK  status: ('A' for Active; 'I' for Inactive)
REMARK    1  A    between atoms: C_1  and  O_2
REMARK    2  A    between atoms: O_2  and  C_3
REMARK    3  A    between atoms: C_6  and  N_7
REMARK    4  A    between atoms: C_8  and  C_10
REMARK    5  A    between atoms: C_10  and  N_11
REMARK    6  A    between atoms: N_11  and  C_12
REMARK    7  A    between atoms: N_11  and  C_13
REMARK                            x       y       z     vdW  Elec       q    Type
REMARK                         _______ _______ _______ _____ _____    ______ ____
ROOT
ATOM      1  N   UNL     1       2.892   6.021  20.154  0.00  0.00    +0.000 N 
ATOM      2  C   UNL     1       2.519   4.761  19.725  0.00  0.00    +0.000 C 
ATOM      3  O   UNL     1       1.424   4.441  19.266  0.00  0.00    +0.000 OA
ATOM      4  H   UNL     1       3.787   6.037  20.639  0.00  0.00    +0.000 HD
ENDROOT
BRANCH   1   8
ATOM      5  C   UNL     1       0.512   9.515  20.126  0.00  0.00    +0.000 A 
ATOM      6  C   UNL     1       0.447   8.623  21.203  0.00  0.00    +0.000 A 
ATOM      7  C   UNL     1       1.221   7.464  21.239  0.00  0.00    +0.000 A 
ATOM      8  C   UNL     1       2.080   7.167  20.188  0.00  0.00    +0.000 A 
ATOM      9  C   UNL     1       2.160   8.046  19.110  0.00  0.00    +0.000 A 
ATOM     10  C   UNL     1       1.405   9.229  19.083  0.00  0.00    +0.000 A 
ATOM     11 CL   UNL     1       1.745  10.289  17.762  0.00  0.00    +0.000 Cl
BRANCH   5  13
ATOM     12  C   UNL     1       0.321  11.768  20.867  0.00  0.00    +0.000 C 
ATOM     13  O   UNL     1      -0.282  10.619  20.285  0.00  0.00    +0.000 OA
ENDBRANCH   5  13
ENDBRANCH   1   8
BRANCH   2  14
ATOM     14  C   UNL     1       3.649   3.736  19.833  0.00  0.00    +0.000 C 
BRANCH  14  15
ATOM     15  N   UNL     1       4.339   3.467  18.528  0.00  0.00    +0.000 NA
ATOM     16  C   UNL     1       3.519   2.534  17.728  0.00  0.00    +0.000 C 
BRANCH  15  17
ATOM     17  C   UNL     1       4.537   4.763  17.800  0.00  0.00    +0.000 C 
ATOM     18  C   UNL     1       5.770   5.550  18.306  0.00  0.00    +0.000 C 
ATOM     19  C   UNL     1       7.079   4.816  18.024  0.00  0.00    +0.000 C 
ATOM     20  C   UNL     1       7.258   4.521  16.538  0.00  0.00    +0.000 C 
ATOM     21  C   UNL     1       6.020   3.929  15.868  0.00  0.00    +0.000 C 
ATOM     22  C   UNL     1       4.720   4.624  16.268  0.00  0.00    +0.000 C 
ENDBRANCH  15  17
ENDBRANCH  14  15
ENDBRANCH   2  14
TORSDOF 5
ENDMDL
MODEL 8
REMARK VINA RESULT:      -6.0      1.815      2.171
REMARK  Name = 
REMARK  7 active torsions:
REMARK  status: ('A' for Active; 'I' for Inactive)
REMARK    1  A    between atoms: C_1  and  O_2
REMARK    2  A    between atoms: O_2  and  C_3
REMARK    3  A    between atoms: C_6  and  N_7
REMARK    4  A    between atoms: C_8  and  C_10
REMARK    5  A    between atoms: C_10  and  N_11
REMARK    6  A    between atoms: N_11  and  C_12
REMARK    7  A    between atoms: N_11  and  C_13
REMARK                            x       y       z     vdW  Elec       q    Type
REMARK                         _______ _______ _______ _____ _____    ______ ____
ROOT
ATOM      1  N   UNL     1       2.068   7.392  19.409  0.00  0.00    +0.000 N 
ATOM      2  C   UNL     1       2.747   7.294  18.209  0.00  0.00    +0.000 C 
ATOM      3  O   UNL     1       2.982   8.213  17.427  0.00  0.00    +0.000 OA
ATOM      4  H   UNL     1       1.849   6.489  19.828  0.00  0.00    +0.000 HD
ENDROOT
BRANCH   1   8
ATOM      5  C   UNL     1       0.292  10.807  21.158  0.00  0.00    +0.000 A 
ATOM      6  C   UNL     1       0.592  10.787  19.791  0.00  0.00    +0.000 A 
ATOM      7  C   UNL     1       1.176   9.674  19.188  0.00  0.00    +0.000 A 
ATOM      8  C   UNL     1       1.482   8.550  19.946  0.00  0.00    +0.000 A 
ATOM      9  C   UNL     1       1.186   8.552  21.307  0.00  0.00    +0.000 A 
ATOM     10  C   UNL     1       0.570   9.658  21.913  0.00  0.00    +0.000 A 
ATOM     11 CL   UNL     1       0.118   9.435  23.565  0.00  0.00    +0.000 Cl
BRANCH   5  13
ATOM     12  C   UNL     1      -1.669  12.154  21.156  0.00  0.00    +0.000 C 
ATOM     13  O   UNL     1      -0.320  11.962  21.564  0.00  0.00    +0.000 OA
ENDBRANCH   5  13
ENDBRANCH   1   8
BRANCH   2  14
ATOM     14  C   UNL     1       3.249   5.878  17.922  0.00  0.00    +0.000 C 
BRANCH  14  15
ATOM     15  N   UNL     1       4.542   5.551  18.610  0.00  0.00    +0.000 NA
ATOM     16  C   UNL     1       4.321   4.441  19.559  0.00  0.00    +0.000 C 
BRANCH  15  17
ATOM     17  C   UNL     1       5.566   5.176  17.579  0.00  0.00    +0.000 C 
ATOM     18  C   UNL     1       5.895   6.339  16.614  0.00  0.00    +0.000 C 
ATOM     19  C   UNL     1       6.568   7.509  17.328  0.00  0.00    +0.000 C 
ATOM     20  C   UNL     1       7.846   7.082  18.042  0.00  0.00    +0.000 C 
ATOM     21  C   UNL     1       7.701   5.808  18.870  0.00  0.00    +0.000 C 
ATOM     22  C   UNL     1       6.923   4.704  18.157  0.00  0.00    +0.000 C 
ENDBRANCH  15  17
ENDBRANCH  14  15
ENDBRANCH   2  14
TORSDOF 5
ENDMDL
MODEL 9
REMARK VINA RESULT:      -5.9      3.375      7.806
REMARK  Name = 
REMARK  7 active torsions:
REMARK  status: ('A' for Active; 'I' for Inactive)
REMARK    1  A    between atoms: C_1  and  O_2
REMARK    2  A    between atoms: O_2  and  C_3
REMARK    3  A    between atoms: C_6  and  N_7
REMARK    4  A    between atoms: C_8  and  C_10
REMARK    5  A    between atoms: C_10  and  N_11
REMARK    6  A    between atoms: N_11  and  C_12
REMARK    7  A    between atoms: N_11  and  C_13
REMARK                            x       y       z     vdW  Elec       q    Type
REMARK                         _______ _______ _______ _____ _____    ______ ____
ROOT
ATOM      1  N   UNL     1       2.248   7.530  18.869  0.00  0.00    +0.000 N 
ATOM      2  C   UNL     1       1.842   8.775  18.427  0.00  0.00    +0.000 C 
ATOM      3  O   UNL     1       2.059   9.263  17.320  0.00  0.00    +0.000 OA
ATOM      4  H   UNL     1       2.098   7.382  19.866  0.00  0.00    +0.000 HD
ENDROOT
BRANCH   1   8
ATOM      5  C   UNL     1       4.475   4.624  16.754  0.00  0.00    +0.000 A 
ATOM      6  C   UNL     1       4.947   5.937  16.862  0.00  0.00    +0.000 A 
ATOM      7  C   UNL     1       4.235   6.915  17.555  0.00  0.00    +0.000 A 
ATOM      8  C   UNL     1       3.021   6.600  18.154  0.00  0.00    +0.000 A 
ATOM      9  C   UNL     1       2.538   5.297  18.059  0.00  0.00    +0.000 A 
ATOM     10  C   UNL     1       3.266   4.302  17.388  0.00  0.00    +0.000 A 
ATOM     11 CL   UNL     1       2.614   2.707  17.508  0.00  0.00    +0.000 Cl
BRANCH   5  13
ATOM     12  C   UNL     1       6.538   4.363  15.598  0.00  0.00    +0.000 C 
ATOM     13  O   UNL     1       5.328   3.792  16.079  0.00  0.00    +0.000 OA
ENDBRANCH   5  13
ENDBRANCH   1   8
BRANCH   2  14
ATOM     14  C   UNL     1       1.020   9.537  19.468  0.00  0.00    +0.000 C 
BRANCH  14  15
ATOM     15  N   UNL     1       0.266  10.703  18.898  0.00  0.00    +0.000 NA
ATOM     16  C   UNL     1      -1.040  10.235  18.388  0.00  0.00    +0.000 C 
BRANCH  15  17
ATOM     17  C   UNL     1       0.081  11.739  19.967  0.00  0.00    +0.000 C 
ATOM     18  C   UNL     1       1.421  12.349  20.445  0.00  0.00    +0.000 C 
ATOM     19  C   UNL     1       2.120  13.140  19.343  0.00  0.00    +0.000 C 
ATOM     20  C   UNL     1       1.237  14.257  18.795  0.00  0.00    +0.000 C 
ATOM     21  C   UNL     1      -0.192  13.822  18.480  0.00  0.00    +0.000 C 
ATOM     22  C   UNL     1      -0.812  12.937  19.560  0.00  0.00    +0.000 C 
ENDBRANCH  15  17
ENDBRANCH  14  15
ENDBRANCH   2  14
TORSDOF 5
ENDMDL
