MODEL 1
REMARK VINA RESULT:      -6.5      0.000      0.000
REMARK  Name = 
REMARK  5 active torsions:
REMARK  status: ('A' for Active; 'I' for Inactive)
REMARK    1  A    between atoms: C_1  and  C_2
REMARK    2  A    between atoms: C_6  and  C_7
REMARK    3  A    between atoms: C_7  and  N_8
REMARK    4  A    between atoms: C_13  and  C_14
REMARK    5  A    between atoms: C_14  and  O_15
REMARK                            x       y       z     vdW  Elec       q    Type
REMARK                         _______ _______ _______ _____ _____    ______ ____
ROOT
ATOM      1  N   UNL     1       4.212   4.148  18.130  0.00  0.00    +0.000 NA
ATOM      2  C   UNL     1       3.430   5.393  18.036  0.00  0.00    +0.000 C 
ATOM      3  C   UNL     1       2.011   5.028  18.437  0.00  0.00    +0.000 C 
ATOM      4  F   UNL     1       1.327   4.599  17.343  0.00  0.00    +0.000 F 
ATOM      5  C   UNL     1       2.161   3.880  19.407  0.00  0.00    +0.000 C 
ATOM      6  C   UNL     1       3.541   3.275  19.128  0.00  0.00    +0.000 C 
ENDROOT
BRANCH   1   7
ATOM      7  C   UNL     1       5.616   4.378  18.506  0.00  0.00    +0.000 C 
BRANCH   7  13
ATOM      8  C   UNL     1       6.110   3.730  15.302  0.00  0.00    +0.000 C 
ATOM      9  C   UNL     1       6.591   4.878  16.106  0.00  0.00    +0.000 A 
ATOM     10  N   UNL     1       7.369   5.809  15.541  0.00  0.00    +0.000 NA
ATOM     11  O   UNL     1       7.661   6.717  16.539  0.00  0.00    +0.000 OA
ATOM     12  C   UNL     1       7.059   6.329  17.683  0.00  0.00    +0.000 A 
ATOM     13  C   UNL     1       6.356   5.163  17.484  0.00  0.00    +0.000 A 
ENDBRANCH   7  13
ENDBRANCH   1   7
BRANCH   6  14
ATOM     14  C   UNL     1       3.453   1.843  18.572  0.00  0.00    +0.000 C 
BRANCH  14  15
ATOM     15  O   UNL     1       2.362   1.709  17.666  0.00  0.00    +0.000 OA
ATOM     16  H   UNL     1       2.234   2.596  17.274  0.00  0.00    +0.000 HD
ENDBRANCH  14  15
ENDBRANCH   6  14
TORSDOF 4
ENDMDL
MODEL 2
REMARK VINA RESULT:      -6.4      1.997      2.557
REMARK  Name = 
REMARK  5 active torsions:
REMARK  status: ('A' for Active; 'I' for Inactive)
REMARK    1  A    between atoms: C_1  and  C_2
REMARK    2  A    between atoms: C_6  and  C_7
REMARK    3  A    between atoms: C_7  and  N_8
REMARK    4  A    between atoms: C_13  and  C_14
REMARK    5  A    between atoms: C_14  and  O_15
REMARK                            x       y       z     vdW  Elec       q    Type
REMARK                         _______ _______ _______ _____ _____    ______ ____
ROOT
ATOM      1  N   UNL     1       3.616   3.811  18.070  0.00  0.00    +0.000 NA
ATOM      2  C   UNL     1       3.287   2.425  18.446  0.00  0.00    +0.000 C 
ATOM      3  C   UNL     1       2.122   2.519  19.416  0.00  0.00    +0.000 C 
ATOM      4  F   UNL     1       2.597   2.675  20.681  0.00  0.00    +0.000 F 
ATOM      5  C   UNL     1       1.375   3.768  19.011  0.00  0.00    +0.000 C 
ATOM      6  C   UNL     1       2.381   4.621  18.229  0.00  0.00    +0.000 C 
ENDROOT
BRANCH   1   7
ATOM      7  C   UNL     1       4.136   3.926  16.698  0.00  0.00    +0.000 C 
BRANCH   7  13
ATOM      8  C   UNL     1       6.224   4.022  14.137  0.00  0.00    +0.000 C 
ATOM      9  C   UNL     1       6.491   4.295  15.567  0.00  0.00    +0.000 A 
ATOM     10  N   UNL     1       7.732   4.595  15.969  0.00  0.00    +0.000 NA
ATOM     11  O   UNL     1       7.658   4.770  17.336  0.00  0.00    +0.000 OA
ATOM     12  C   UNL     1       6.384   4.579  17.741  0.00  0.00    +0.000 A 
ATOM     13  C   UNL     1       5.581   4.274  16.666  0.00  0.00    +0.000 A 
ENDBRANCH   7  13
ENDBRANCH   1   7
BRANCH   6  14
ATOM     14  C   UNL     1       2.724   5.934  18.953  0.00  0.00    +0.000 C 
BRANCH  14  15
ATOM     15  O   UNL     1       3.633   5.708  20.026  0.00  0.00    +0.000 OA
ATOM     16  H   UNL     1       3.748   4.738  20.075  0.00  0.00    +0.000 HD
ENDBRANCH  14  15
ENDBRANCH   6  14
TORSDOF 4
ENDMDL
MODEL 3
REMARK VINA RESULT:      -6.4      0.863      1.577
REMARK  Name = 
REMARK  5 active torsions:
REMARK  status: ('A' for Active; 'I' for Inactive)
REMARK    1  A    between atoms: C_1  and  C_2
REMARK    2  A    between atoms: C_6  and  C_7
REMARK    3  A    between atoms: C_7  and  N_8
REMARK    4  A    between atoms: C_13  and  C_14
REMARK    5  A    between atoms: C_14  and  O_15
REMARK                            x       y       z     vdW  Elec       q    Type
REMARK                         _______ _______ _______ _____ _____    ______ ____
ROOT
ATOM      1  N   UNL     1       4.104   4.044  18.014  0.00  0.00    +0.000 NA
ATOM      2  C   UNL     1       3.398   5.303  17.714  0.00  0.00    +0.000 C 
ATOM      3  C   UNL     1       1.996   5.140  18.274  0.00  0.00    +0.000 C 
ATOM      4  F   UNL     1       1.200   4.553  17.341  0.00  0.00    +0.000 F 
ATOM      5  C   UNL     1       2.150   4.205  19.450  0.00  0.00    +0.000 C 
ATOM      6  C   UNL     1       3.462   3.448  19.213  0.00  0.00    +0.000 C 
ENDROOT
BRANCH   1   7
ATOM      7  C   UNL     1       5.546   4.234  18.240  0.00  0.00    +0.000 C 
BRANCH   7  13
ATOM      8  C   UNL     1       7.376   6.906  17.580  0.00  0.00    +0.000 C 
ATOM      9  C   UNL     1       7.046   5.763  16.699  0.00  0.00    +0.000 A 
ATOM     10  N   UNL     1       7.480   5.747  15.434  0.00  0.00    +0.000 NA
ATOM     11  O   UNL     1       6.996   4.580  14.879  0.00  0.00    +0.000 OA
ATOM     12  C   UNL     1       6.284   3.908  15.808  0.00  0.00    +0.000 A 
ATOM     13  C   UNL     1       6.273   4.601  16.997  0.00  0.00    +0.000 A 
ENDBRANCH   7  13
ENDBRANCH   1   7
BRANCH   6  14
ATOM     14  C   UNL     1       3.237   1.945  18.975  0.00  0.00    +0.000 C 
BRANCH  14  15
ATOM     15  O   UNL     1       2.653   1.708  17.698  0.00  0.00    +0.000 OA
ATOM     16  H   UNL     1       1.699   1.570  17.865  0.00  0.00    +0.000 HD
ENDBRANCH  14  15
ENDBRANCH   6  14
TORSDOF 4
ENDMDL
MODEL 4
REMARK VINA RESULT:      -6.4      1.507      1.577
REMARK  Name = 
REMARK  5 active torsions:
REMARK  status: ('A' for Active; 'I' for Inactive)
REMARK    1  A    between atoms: C_1  and  C_2
REMARK    2  A    between atoms: C_6  and  C_7
REMARK    3  A    between atoms: C_7  and  N_8
REMARK    4  A    between atoms: C_13  and  C_14
REMARK    5  A    between atoms: C_14  and  O_15
REMARK                            x       y       z     vdW  Elec       q    Type
REMARK                         _______ _______ _______ _____ _____    ______ ____
ROOT
ATOM      1  N   UNL     1       3.922   4.687  18.446  0.00  0.00    +0.000 NA
ATOM      2  C   UNL     1       2.700   5.483  18.237  0.00  0.00    +0.000 C 
ATOM      3  C   UNL     1       1.560   4.663  18.816  0.00  0.00    +0.000 C 
ATOM      4  F   UNL     1       1.085   3.813  17.867  0.00  0.00    +0.000 F 
ATOM      5  C   UNL     1       2.186   3.858  19.931  0.00  0.00    +0.000 C 
ATOM      6  C   UNL     1       3.686   3.809  19.622  0.00  0.00    +0.000 C 
ENDROOT
BRANCH   1   7
ATOM      7  C   UNL     1       5.120   5.515  18.653  0.00  0.00    +0.000 C 
BRANCH   7  13
ATOM      8  C   UNL     1       5.319   5.899  15.376  0.00  0.00    +0.000 C 
ATOM      9  C   UNL     1       6.306   5.303  16.306  0.00  0.00    +0.000 A 
ATOM     10  N   UNL     1       7.449   4.794  15.830  0.00  0.00    +0.000 NA
ATOM     11  O   UNL     1       8.132   4.305  16.925  0.00  0.00    +0.000 OA
ATOM     12  C   UNL     1       7.403   4.525  18.039  0.00  0.00    +0.000 A 
ATOM     13  C   UNL     1       6.224   5.160  17.723  0.00  0.00    +0.000 A 
ENDBRANCH   7  13
ENDBRANCH   1   7
BRANCH   6  14
ATOM     14  C   UNL     1       4.173   2.386  19.299  0.00  0.00    +0.000 C 
BRANCH  14  15
ATOM     15  O   UNL     1       5.227   1.992  20.172  0.00  0.00    +0.000 OA
ATOM     16  H   UNL     1       4.852   2.036  21.075  0.00  0.00    +0.000 HD
ENDBRANCH  14  15
ENDBRANCH   6  14
TORSDOF 4
ENDMDL
MODEL 5
REMARK VINA RESULT:      -6.3      1.531      2.101
REMARK  Name = 
REMARK  5 active torsions:
REMARK  status: ('A' for Active; 'I' for Inactive)
REMARK    1  A    between atoms: C_1  and  C_2
REMARK    2  A    between atoms: C_6  and  C_7
REMARK    3  A    between atoms: C_7  and  N_8
REMARK    4  A    between atoms: C_13  and  C_14
REMARK    5  A    between atoms: C_14  and  O_15
REMARK                            x       y       z     vdW  Elec       q    Type
REMARK                         _______ _______ _______ _____ _____    ______ ____
ROOT
ATOM      1  N   UNL     1       3.427   4.032  18.338  0.00  0.00    +0.000 NA
ATOM      2  C   UNL     1       2.029   4.388  18.036  0.00  0.00    +0.000 C 
ATOM      3  C   UNL     1       1.172   3.558  18.976  0.00  0.00    +0.000 C 
ATOM      4  F   UNL     1       0.914   2.351  18.408  0.00  0.00    +0.000 F 
ATOM      5  C   UNL     1       2.027   3.353  20.205  0.00  0.00    +0.000 C 
ATOM      6  C   UNL     1       3.474   3.571  19.750  0.00  0.00    +0.000 C 
ENDROOT
BRANCH   1   7
ATOM      7  C   UNL     1       4.363   5.148  18.128  0.00  0.00    +0.000 C 
BRANCH   7  13
ATOM      8  C   UNL     1       7.567   5.611  18.794  0.00  0.00    +0.000 C 
ATOM      9  C   UNL     1       6.945   4.961  17.618  0.00  0.00    +0.000 A 
ATOM     10  N   UNL     1       7.714   4.500  16.624  0.00  0.00    +0.000 NA
ATOM     11  O   UNL     1       6.849   3.980  15.684  0.00  0.00    +0.000 OA
ATOM     12  C   UNL     1       5.579   4.126  16.117  0.00  0.00    +0.000 A 
ATOM     13  C   UNL     1       5.561   4.744  17.346  0.00  0.00    +0.000 A 
ENDBRANCH   7  13
ENDBRANCH   1   7
BRANCH   6  14
ATOM     14  C   UNL     1       4.316   2.287  19.837  0.00  0.00    +0.000 C 
BRANCH  14  15
ATOM     15  O   UNL     1       4.168   1.493  18.664  0.00  0.00    +0.000 OA
ATOM     16  H   UNL     1       4.097   2.128  17.923  0.00  0.00    +0.000 HD
ENDBRANCH  14  15
ENDBRANCH   6  14
TORSDOF 4
ENDMDL
MODEL 6
REMARK VINA RESULT:      -6.2      1.474      1.581
REMARK  Name = 
REMARK  5 active torsions:
REMARK  status: ('A' for Active; 'I' for Inactive)
REMARK    1  A    between atoms: C_1  and  C_2
REMARK    2  A    between atoms: C_6  and  C_7
REMARK    3  A    between atoms: C_7  and  N_8
REMARK    4  A    between atoms: C_13  and  C_14
REMARK    5  A    between atoms: C_14  and  O_15
REMARK                            x       y       z     vdW  Elec       q    Type
REMARK                         _______ _______ _______ _____ _____    ______ ____
ROOT
ATOM      1  N   UNL     1       3.581   4.130  18.165  0.00  0.00    +0.000 NA
ATOM      2  C   UNL     1       2.198   4.307  17.685  0.00  0.00    +0.000 C 
ATOM      3  C   UNL     1       1.328   3.452  18.590  0.00  0.00    +0.000 C 
ATOM      4  F   UNL     1       1.263   2.188  18.095  0.00  0.00    +0.000 F 
ATOM      5  C   UNL     1       2.049   3.427  19.917  0.00  0.00    +0.000 C 
ATOM      6  C   UNL     1       3.509   3.774  19.606  0.00  0.00    +0.000 C 
ENDROOT
BRANCH   1   7
ATOM      7  C   UNL     1       4.414   5.327  17.970  0.00  0.00    +0.000 C 
BRANCH   7  13
ATOM      8  C   UNL     1       5.450   4.442  14.958  0.00  0.00    +0.000 C 
ATOM      9  C   UNL     1       6.233   4.590  16.206  0.00  0.00    +0.000 A 
ATOM     10  N   UNL     1       7.542   4.312  16.210  0.00  0.00    +0.000 NA
ATOM     11  O   UNL     1       7.972   4.523  17.504  0.00  0.00    +0.000 OA
ATOM     12  C   UNL     1       6.929   4.926  18.260  0.00  0.00    +0.000 A 
ATOM     13  C   UNL     1       5.784   4.993  17.499  0.00  0.00    +0.000 A 
ENDBRANCH   7  13
ENDBRANCH   1   7
BRANCH   6  14
ATOM     14  C   UNL     1       4.464   2.600  19.886  0.00  0.00    +0.000 C 
BRANCH  14  15
ATOM     15  O   UNL     1       4.379   1.612  18.864  0.00  0.00    +0.000 OA
ATOM     16  H   UNL     1       3.660   1.008  19.140  0.00  0.00    +0.000 HD
ENDBRANCH  14  15
ENDBRANCH   6  14
TORSDOF 4
ENDMDL
MODEL 7
REMARK VINA RESULT:      -6.2      1.579      1.791
REMARK  Name = 
REMARK  5 active torsions:
REMARK  status: ('A' for Active; 'I' for Inactive)
REMARK    1  A    between atoms: C_1  and  C_2
REMARK    2  A    between atoms: C_6  and  C_7
REMARK    3  A    between atoms: C_7  and  N_8
REMARK    4  A    between atoms: C_13  and  C_14
REMARK    5  A    between atoms: C_14  and  O_15
REMARK                            x       y       z     vdW  Elec       q    Type
REMARK                         _______ _______ _______ _____ _____    ______ ____
ROOT
ATOM      1  N   UNL     1       3.603   5.046  17.813  0.00  0.00    +0.000 NA
ATOM      2  C   UNL     1       2.138   4.884  17.833  0.00  0.00    +0.000 C 
ATOM      3  C   UNL     1       1.829   4.021  19.044  0.00  0.00    +0.000 C 
ATOM      4  F   UNL     1       1.899   2.708  18.696  0.00  0.00    +0.000 F 
ATOM      5  C   UNL     1       2.928   4.329  20.035  0.00  0.00    +0.000 C 
ATOM      6  C   UNL     1       4.087   4.898  19.210  0.00  0.00    +0.000 C 
ENDROOT
BRANCH   1   7
ATOM      7  C   UNL     1       4.031   6.338  17.252  0.00  0.00    +0.000 C 
BRANCH   7  13
ATOM      8  C   UNL     1       5.386   4.425  14.922  0.00  0.00    +0.000 C 
ATOM      9  C   UNL     1       6.024   5.465  15.760  0.00  0.00    +0.000 A 
ATOM     10  N   UNL     1       7.336   5.702  15.646  0.00  0.00    +0.000 NA
ATOM     11  O   UNL     1       7.624   6.695  16.560  0.00  0.00    +0.000 OA
ATOM     12  C   UNL     1       6.494   7.045  17.208  0.00  0.00    +0.000 A 
ATOM     13  C   UNL     1       5.429   6.303  16.750  0.00  0.00    +0.000 A 
ENDBRANCH   7  13
ENDBRANCH   1   7
BRANCH   6  14
ATOM     14  C   UNL     1       5.323   3.982  19.224  0.00  0.00    +0.000 C 
BRANCH  14  15
ATOM     15  O   UNL     1       4.975   2.653  19.598  0.00  0.00    +0.000 OA
ATOM     16  H   UNL     1       4.250   2.743  20.249  0.00  0.00    +0.000 HD
ENDBRANCH  14  15
ENDBRANCH   6  14
TORSDOF 4
ENDMDL
MODEL 8
REMARK VINA RESULT:      -6.1      1.889      2.328
REMARK  Name = 
REMARK  5 active torsions:
REMARK  status: ('A' for Active; 'I' for Inactive)
REMARK    1  A    between atoms: C_1  and  C_2
REMARK    2  A    between atoms: C_6  and  C_7
REMARK    3  A    between atoms: C_7  and  N_8
REMARK    4  A    between atoms: C_13  and  C_14
REMARK    5  A    between atoms: C_14  and  O_15
REMARK                            x       y       z     vdW  Elec       q    Type
REMARK                         _______ _______ _______ _____ _____    ______ ____
ROOT
ATOM      1  N   UNL     1       3.661   4.331  18.363  0.00  0.00    +0.000 NA
ATOM      2  C   UNL     1       3.574   3.100  17.557  0.00  0.00    +0.000 C 
ATOM      3  C   UNL     1       2.248   2.454  17.919  0.00  0.00    +0.000 C 
ATOM      4  F   UNL     1       2.417   1.649  19.002  0.00  0.00    +0.000 F 
ATOM      5  C   UNL     1       1.342   3.604  18.295  0.00  0.00    +0.000 C 
ATOM      6  C   UNL     1       2.272   4.765  18.664  0.00  0.00    +0.000 C 
ENDROOT
BRANCH   1   7
ATOM      7  C   UNL     1       4.404   5.408  17.691  0.00  0.00    +0.000 C 
BRANCH   7  13
ATOM      8  C   UNL     1       6.006   4.784  14.867  0.00  0.00    +0.000 C 
ATOM      9  C   UNL     1       6.523   4.767  16.255  0.00  0.00    +0.000 A 
ATOM     10  N   UNL     1       7.797   4.429  16.489  0.00  0.00    +0.000 NA
ATOM     11  O   UNL     1       7.961   4.488  17.858  0.00  0.00    +0.000 OA
ATOM     12  C   UNL     1       6.797   4.861  18.430  0.00  0.00    +0.000 A 
ATOM     13  C   UNL     1       5.832   5.059  17.468  0.00  0.00    +0.000 A 
ENDBRANCH   7  13
ENDBRANCH   1   7
BRANCH   6  14
ATOM     14  C   UNL     1       2.171   5.148  20.151  0.00  0.00    +0.000 C 
BRANCH  14  15
ATOM     15  O   UNL     1       1.417   4.185  20.881  0.00  0.00    +0.000 OA
ATOM     16  H   UNL     1       1.511   4.435  21.822  0.00  0.00    +0.000 HD
ENDBRANCH  14  15
ENDBRANCH   6  14
TORSDOF 4
ENDMDL
MODEL 9
REMARK VINA RESULT:      -6.1      1.755      2.074
REMARK  Name = 
REMARK  5 active torsions:
REMARK  status: ('A' for Active; 'I' for Inactive)
REMARK    1  A    between atoms: C_1  and  C_2
REMARK    2  A    between atoms: C_6  and  C_7
REMARK    3  A    between atoms: C_7  and  N_8
REMARK    4  A    between atoms: C_13  and  C_14
REMARK    5  A    between atoms: C_14  and  O_15
REMARK                            x       y       z     vdW  Elec       q    Type
REMARK                         _______ _______ _______ _____ _____    ______ ____
ROOT
ATOM      1  N   UNL     1       3.257   4.263  19.270  0.00  0.00    +0.000 NA
ATOM      2  C   UNL     1       2.641   4.802  20.496  0.00  0.00    +0.000 C 
ATOM      3  C   UNL     1       1.515   3.848  20.853  0.00  0.00    +0.000 C 
ATOM      4  F   UNL     1       0.381   4.221  20.203  0.00  0.00    +0.000 F 
ATOM      5  C   UNL     1       1.962   2.501  20.333  0.00  0.00    +0.000 C 
ATOM      6  C   UNL     1       3.011   2.797  19.255  0.00  0.00    +0.000 C 
ENDROOT
BRANCH   1   7
ATOM      7  C   UNL     1       4.699   4.545  19.179  0.00  0.00    +0.000 C 
BRANCH   7  13
ATOM      8  C   UNL     1       7.550   4.638  17.509  0.00  0.00    +0.000 C 
ATOM      9  C   UNL     1       6.287   5.363  17.238  0.00  0.00    +0.000 A 
ATOM     10  N   UNL     1       6.217   6.221  16.214  0.00  0.00    +0.000 NA
ATOM     11  O   UNL     1       4.939   6.741  16.239  0.00  0.00    +0.000 OA
ATOM     12  C   UNL     1       4.256   6.193  17.267  0.00  0.00    +0.000 A 
ATOM     13  C   UNL     1       5.052   5.302  17.950  0.00  0.00    +0.000 A 
ENDBRANCH   7  13
ENDBRANCH   1   7
BRANCH   6  14
ATOM     14  C   UNL     1       2.545   2.375  17.851  0.00  0.00    +0.000 C 
BRANCH  14  15
ATOM     15  O   UNL     1       1.890   3.448  17.182  0.00  0.00    +0.000 OA
ATOM     16  H   UNL     1       2.556   3.824  16.572  0.00  0.00    +0.000 HD
ENDBRANCH  14  15
ENDBRANCH   6  14
TORSDOF 4
ENDMDL
