MODEL 1
REMARK VINA RESULT:      -8.2      0.000      0.000
REMARK  Name = 
REMARK  11 active torsions:
REMARK  status: ('A' for Active; 'I' for Inactive)
REMARK    1  A    between atoms: C_1  and  N_2
REMARK    2  A    between atoms: N_2  and  C_3
REMARK    3  A    between atoms: C_3  and  C_4
REMARK    4  A    between atoms: C_11  and  C_12
REMARK    5  A    between atoms: C_12  and  N_13
REMARK    6  A    between atoms: N_16  and  C_17
REMARK    7  A    between atoms: N_28  and  C_29
REMARK    8  A    between atoms: C_29  and  C_30
REMARK    9  A    between atoms: C_30  and  C_31
REMARK   10  A    between atoms: C_31  and  C_32
REMARK   11  A    between atoms: C_31  and  C_33
REMARK                            x       y       z     vdW  Elec       q    Type
REMARK                         _______ _______ _______ _____ _____    ______ ____
ROOT
ATOM      1  C   UNL     1       5.445   5.299  16.208  0.00  0.00    +0.000 A 
ATOM      2  C   UNL     1       5.015   4.344  17.134  0.00  0.00    +0.000 A 
ATOM      3  C   UNL     1       4.036   4.650  18.083  0.00  0.00    +0.000 A 
ATOM      4  C   UNL     1       3.478   5.944  18.101  0.00  0.00    +0.000 A 
ATOM      5  C   UNL     1       3.847   6.954  17.211  0.00  0.00    +0.000 A 
ATOM      6  C   UNL     1       4.864   6.613  16.257  0.00  0.00    +0.000 A 
ATOM      7  N   UNL     1       3.117   8.130  17.541  0.00  0.00    +0.000 NA
ATOM      8  C   UNL     1       2.293   7.864  18.573  0.00  0.00    +0.000 A 
ATOM      9  N   UNL     1       2.583   6.554  18.965  0.00  0.00    +0.000 N 
ENDROOT
BRANCH   1  10
ATOM     10  C   UNL     1       6.551   4.882  15.223  0.00  0.00    +0.000 C 
BRANCH  10  12
ATOM     11  C   UNL     1       6.266   3.751  13.087  0.00  0.00    +0.000 C 
ATOM     12  N   UNL     1       6.312   3.598  14.537  0.00  0.00    +0.000 NA
ATOM     13  H   UNL     1       7.071   2.951  14.771  0.00  0.00    +0.000 HD
ENDBRANCH  10  12
ENDBRANCH   1  10
BRANCH   8  14
ATOM     14  C   UNL     1       1.447   8.912  19.562  0.00  0.00    +0.000 C 
BRANCH  14  15
ATOM     15  N   UNL     1       0.764  10.156  19.023  0.00  0.00    +0.000 N 
ATOM     16  C   UNL     1       1.226  11.263  19.777  0.00  0.00    +0.000 A 
ATOM     17  O   UNL     1       2.196  11.914  19.403  0.00  0.00    +0.000 OA
ATOM     18  N   UNL     1       0.285  11.669  20.723  0.00  0.00    +0.000 N 
ATOM     19  C   UNL     1      -0.476  12.503  19.962  0.00  0.00    +0.000 A 
ATOM     20  O   UNL     1      -0.544  13.723  20.016  0.00  0.00    +0.000 OA
ATOM     21  C   UNL     1      -1.282  11.715  19.005  0.00  0.00    +0.000 A 
ATOM     22  C   UNL     1      -2.601  12.163  18.854  0.00  0.00    +0.000 A 
ATOM     23  C   UNL     1      -3.541  11.312  18.319  0.00  0.00    +0.000 A 
ATOM     24  C   UNL     1      -3.086  10.047  17.887  0.00  0.00    +0.000 A 
ATOM     25  C   UNL     1      -1.729   9.593  18.023  0.00  0.00    +0.000 A 
ATOM     26  C   UNL     1      -0.748  10.420  18.634  0.00  0.00    +0.000 A 
BRANCH  18  27
ATOM     27  C   UNL     1      -0.520  10.601  21.439  0.00  0.00    +0.000 C 
ATOM     28  C   UNL     1       0.009   9.843  22.602  0.00  0.00    +0.000 C 
ATOM     29  C   UNL     1      -1.155  10.761  22.804  0.00  0.00    +0.000 C 
ENDBRANCH  18  27
ENDBRANCH  14  15
ENDBRANCH   8  14
BRANCH   9  30
ATOM     30  C   UNL     1       2.274   5.976  20.250  0.00  0.00    +0.000 C 
BRANCH  30  31
ATOM     31  C   UNL     1       0.930   5.293  20.226  0.00  0.00    +0.000 C 
BRANCH  31  32
ATOM     32  C   UNL     1       1.034   3.819  20.595  0.00  0.00    +0.000 C 
ATOM     33  C   UNL     1       1.041   2.906  19.362  0.00  0.00    +0.000 C 
ATOM     34  C   UNL     1       2.309   3.627  21.408  0.00  0.00    +0.000 C 
ENDBRANCH  31  32
ENDBRANCH  30  31
ENDBRANCH   9  30
TORSDOF 8
ENDMDL
MODEL 2
REMARK VINA RESULT:      -7.9      0.778      1.074
REMARK  Name = 
REMARK  11 active torsions:
REMARK  status: ('A' for Active; 'I' for Inactive)
REMARK    1  A    between atoms: C_1  and  N_2
REMARK    2  A    between atoms: N_2  and  C_3
REMARK    3  A    between atoms: C_3  and  C_4
REMARK    4  A    between atoms: C_11  and  C_12
REMARK    5  A    between atoms: C_12  and  N_13
REMARK    6  A    between atoms: N_16  and  C_17
REMARK    7  A    between atoms: N_28  and  C_29
REMARK    8  A    between atoms: C_29  and  C_30
REMARK    9  A    between atoms: C_30  and  C_31
REMARK   10  A    between atoms: C_31  and  C_32
REMARK   11  A    between atoms: C_31  and  C_33
REMARK                            x       y       z     vdW  Elec       q    Type
REMARK                         _______ _______ _______ _____ _____    ______ ____
ROOT
ATOM      1  C   UNL     1       5.166   4.858  16.427  0.00  0.00    +0.000 A 
ATOM      2  C   UNL     1       4.318   3.952  17.070  0.00  0.00    +0.000 A 
ATOM      3  C   UNL     1       3.244   4.396  17.847  0.00  0.00    +0.000 A 
ATOM      4  C   UNL     1       3.019   5.782  17.979  0.00  0.00    +0.000 A 
ATOM      5  C   UNL     1       3.815   6.752  17.368  0.00  0.00    +0.000 A 
ATOM      6  C   UNL     1       4.917   6.265  16.588  0.00  0.00    +0.000 A 
ATOM      7  N   UNL     1       3.328   8.034  17.748  0.00  0.00    +0.000 NA
ATOM      8  C   UNL     1       2.245   7.880  18.536  0.00  0.00    +0.000 A 
ATOM      9  N   UNL     1       2.118   6.504  18.743  0.00  0.00    +0.000 N 
ENDROOT
BRANCH   1  10
ATOM     10  C   UNL     1       6.342   4.278  15.622  0.00  0.00    +0.000 C 
BRANCH  10  12
ATOM     11  C   UNL     1       7.772   4.492  17.580  0.00  0.00    +0.000 C 
ATOM     12  N   UNL     1       7.678   4.643  16.132  0.00  0.00    +0.000 NA
ATOM     13  H   UNL     1       8.377   4.034  15.695  0.00  0.00    +0.000 HD
ENDBRANCH  10  12
ENDBRANCH   1  10
BRANCH   8  14
ATOM     14  C   UNL     1       1.463   8.994  19.505  0.00  0.00    +0.000 C 
BRANCH  14  15
ATOM     15  N   UNL     1       0.758  10.209  18.932  0.00  0.00    +0.000 N 
ATOM     16  C   UNL     1       1.200  11.345  19.655  0.00  0.00    +0.000 A 
ATOM     17  O   UNL     1       2.159  12.002  19.264  0.00  0.00    +0.000 OA
ATOM     18  N   UNL     1       0.251  11.760  20.589  0.00  0.00    +0.000 N 
ATOM     19  C   UNL     1      -0.525  12.559  19.805  0.00  0.00    +0.000 A 
ATOM     20  O   UNL     1      -0.614  13.778  19.825  0.00  0.00    +0.000 OA
ATOM     21  C   UNL     1      -1.315  11.730  18.870  0.00  0.00    +0.000 A 
ATOM     22  C   UNL     1      -2.642  12.149  18.706  0.00  0.00    +0.000 A 
ATOM     23  C   UNL     1      -3.566  11.268  18.194  0.00  0.00    +0.000 A 
ATOM     24  C   UNL     1      -3.087  10.000  17.798  0.00  0.00    +0.000 A 
ATOM     25  C   UNL     1      -1.722   9.574  17.946  0.00  0.00    +0.000 A 
ATOM     26  C   UNL     1      -0.757  10.435  18.535  0.00  0.00    +0.000 A 
BRANCH  18  27
ATOM     27  C   UNL     1      -0.535  10.697  21.334  0.00  0.00    +0.000 C 
ATOM     28  C   UNL     1       0.016   9.962  22.500  0.00  0.00    +0.000 C 
ATOM     29  C   UNL     1      -1.151  10.874  22.706  0.00  0.00    +0.000 C 
ENDBRANCH  18  27
ENDBRANCH  14  15
ENDBRANCH   8  14
BRANCH   9  30
ATOM     30  C   UNL     1       1.388   5.883  19.822  0.00  0.00    +0.000 C 
BRANCH  30  31
ATOM     31  C   UNL     1       2.319   5.144  20.749  0.00  0.00    +0.000 C 
BRANCH  31  32
ATOM     32  C   UNL     1       1.760   3.786  21.153  0.00  0.00    +0.000 C 
ATOM     33  C   UNL     1       0.691   3.279  20.176  0.00  0.00    +0.000 C 
ATOM     34  C   UNL     1       2.922   2.803  21.229  0.00  0.00    +0.000 C 
ENDBRANCH  31  32
ENDBRANCH  30  31
ENDBRANCH   9  30
TORSDOF 8
ENDMDL
MODEL 3
REMARK VINA RESULT:      -7.7      1.348      2.283
REMARK  Name = 
REMARK  11 active torsions:
REMARK  status: ('A' for Active; 'I' for Inactive)
REMARK    1  A    between atoms: C_1  and  N_2
REMARK    2  A    between atoms: N_2  and  C_3
REMARK    3  A    between atoms: C_3  and  C_4
REMARK    4  A    between atoms: C_11  and  C_12
REMARK    5  A    between atoms: C_12  and  N_13
REMARK    6  A    between atoms: N_16  and  C_17
REMARK    7  A    between atoms: N_28  and  C_29
REMARK    8  A    between atoms: C_29  and  C_30
REMARK    9  A    between atoms: C_30  and  C_31
REMARK   10  A    between atoms: C_31  and  C_32
REMARK   11  A    between atoms: C_31  and  C_33
REMARK                            x       y       z     vdW  Elec       q    Type
REMARK                         _______ _______ _______ _____ _____    ______ ____
ROOT
ATOM      1  C   UNL     1       5.311   5.363  15.939  0.00  0.00    +0.000 A 
ATOM      2  C   UNL     1       4.886   4.334  16.784  0.00  0.00    +0.000 A 
ATOM      3  C   UNL     1       4.005   4.586  17.840  0.00  0.00    +0.000 A 
ATOM      4  C   UNL     1       3.541   5.901  18.048  0.00  0.00    +0.000 A 
ATOM      5  C   UNL     1       3.912   6.983  17.249  0.00  0.00    +0.000 A 
ATOM      6  C   UNL     1       4.829   6.696  16.183  0.00  0.00    +0.000 A 
ATOM      7  N   UNL     1       3.294   8.155  17.769  0.00  0.00    +0.000 NA
ATOM      8  C   UNL     1       2.533   7.821  18.829  0.00  0.00    +0.000 A 
ATOM      9  N   UNL     1       2.759   6.459  19.046  0.00  0.00    +0.000 N 
ENDROOT
BRANCH   1  10
ATOM     10  C   UNL     1       6.308   4.998  14.826  0.00  0.00    +0.000 C 
BRANCH  10  12
ATOM     11  C   UNL     1       5.898   3.557  12.907  0.00  0.00    +0.000 C 
ATOM     12  N   UNL     1       6.199   3.610  14.333  0.00  0.00    +0.000 NA
ATOM     13  H   UNL     1       7.091   3.131  14.495  0.00  0.00    +0.000 HD
ENDBRANCH  10  12
ENDBRANCH   1  10
BRANCH   8  14
ATOM     14  C   UNL     1       1.839   8.796  19.995  0.00  0.00    +0.000 C 
BRANCH  14  15
ATOM     15  N   UNL     1       0.442   9.369  19.842  0.00  0.00    +0.000 N 
ATOM     16  C   UNL     1       0.356   9.957  18.556  0.00  0.00    +0.000 A 
ATOM     17  O   UNL     1      -0.053   9.311  17.597  0.00  0.00    +0.000 OA
ATOM     18  N   UNL     1       0.463  11.346  18.618  0.00  0.00    +0.000 N 
ATOM     19  C   UNL     1      -0.837  11.676  18.858  0.00  0.00    +0.000 A 
ATOM     20  O   UNL     1      -1.633  12.210  18.099  0.00  0.00    +0.000 OA
ATOM     21  C   UNL     1      -1.203  11.306  20.242  0.00  0.00    +0.000 A 
ATOM     22  C   UNL     1      -1.987  12.257  20.907  0.00  0.00    +0.000 A 
ATOM     23  C   UNL     1      -2.060  12.224  22.281  0.00  0.00    +0.000 A 
ATOM     24  C   UNL     1      -1.381  11.171  22.931  0.00  0.00    +0.000 A 
ATOM     25  C   UNL     1      -0.592  10.181  22.250  0.00  0.00    +0.000 A 
ATOM     26  C   UNL     1      -0.439  10.227  20.837  0.00  0.00    +0.000 A 
BRANCH  18  27
ATOM     27  C   UNL     1       1.433  11.947  19.618  0.00  0.00    +0.000 C 
ATOM     28  C   UNL     1       2.535  12.859  19.217  0.00  0.00    +0.000 C 
ATOM     29  C   UNL     1       1.429  13.393  20.070  0.00  0.00    +0.000 C 
ENDBRANCH  18  27
ENDBRANCH  14  15
ENDBRANCH   8  14
BRANCH   9  30
ATOM     30  C   UNL     1       2.508   5.754  20.280  0.00  0.00    +0.000 C 
BRANCH  30  31
ATOM     31  C   UNL     1       1.087   5.252  20.335  0.00  0.00    +0.000 C 
BRANCH  31  32
ATOM     32  C   UNL     1       1.023   3.748  20.561  0.00  0.00    +0.000 C 
ATOM     33  C   UNL     1       1.067   2.956  19.248  0.00  0.00    +0.000 C 
ATOM     34  C   UNL     1       2.191   3.358  21.459  0.00  0.00    +0.000 C 
ENDBRANCH  31  32
ENDBRANCH  30  31
ENDBRANCH   9  30
TORSDOF 8
ENDMDL
MODEL 4
REMARK VINA RESULT:      -7.5      1.458      2.674
REMARK  Name = 
REMARK  11 active torsions:
REMARK  status: ('A' for Active; 'I' for Inactive)
REMARK    1  A    between atoms: C_1  and  N_2
REMARK    2  A    between atoms: N_2  and  C_3
REMARK    3  A    between atoms: C_3  and  C_4
REMARK    4  A    between atoms: C_11  and  C_12
REMARK    5  A    between atoms: C_12  and  N_13
REMARK    6  A    between atoms: N_16  and  C_17
REMARK    7  A    between atoms: N_28  and  C_29
REMARK    8  A    between atoms: C_29  and  C_30
REMARK    9  A    between atoms: C_30  and  C_31
REMARK   10  A    between atoms: C_31  and  C_32
REMARK   11  A    between atoms: C_31  and  C_33
REMARK                            x       y       z     vdW  Elec       q    Type
REMARK                         _______ _______ _______ _____ _____    ______ ____
ROOT
ATOM      1  C   UNL     1       6.087   5.552  17.148  0.00  0.00    +0.000 A 
ATOM      2  C   UNL     1       5.663   4.696  18.168  0.00  0.00    +0.000 A 
ATOM      3  C   UNL     1       4.469   4.930  18.856  0.00  0.00    +0.000 A 
ATOM      4  C   UNL     1       3.686   6.050  18.510  0.00  0.00    +0.000 A 
ATOM      5  C   UNL     1       4.034   6.951  17.503  0.00  0.00    +0.000 A 
ATOM      6  C   UNL     1       5.272   6.692  16.824  0.00  0.00    +0.000 A 
ATOM      7  N   UNL     1       3.044   7.972  17.454  0.00  0.00    +0.000 NA
ATOM      8  C   UNL     1       2.089   7.705  18.367  0.00  0.00    +0.000 A 
ATOM      9  N   UNL     1       2.533   6.581  19.066  0.00  0.00    +0.000 N 
ENDROOT
BRANCH   1  10
ATOM     10  C   UNL     1       7.431   5.235  16.470  0.00  0.00    +0.000 C 
BRANCH  10  12
ATOM     11  C   UNL     1       6.527   4.254  14.433  0.00  0.00    +0.000 C 
ATOM     12  N   UNL     1       7.402   5.278  14.995  0.00  0.00    +0.000 NA
ATOM     13  H   UNL     1       7.060   6.197  14.697  0.00  0.00    +0.000 HD
ENDBRANCH  10  12
ENDBRANCH   1  10
BRANCH   8  14
ATOM     14  C   UNL     1       0.875   8.689  18.960  0.00  0.00    +0.000 C 
BRANCH  14  15
ATOM     15  N   UNL     1       1.170   9.939  19.767  0.00  0.00    +0.000 N 
ATOM     16  C   UNL     1       0.183  10.045  20.778  0.00  0.00    +0.000 A 
ATOM     17  O   UNL     1       0.372   9.561  21.889  0.00  0.00    +0.000 OA
ATOM     18  N   UNL     1      -0.786  10.992  20.453  0.00  0.00    +0.000 N 
ATOM     19  C   UNL     1      -0.185  12.121  20.922  0.00  0.00    +0.000 A 
ATOM     20  O   UNL     1      -0.489  12.788  21.900  0.00  0.00    +0.000 OA
ATOM     21  C   UNL     1       0.949  12.487  20.045  0.00  0.00    +0.000 A 
ATOM     22  C   UNL     1       1.059  13.859  19.785  0.00  0.00    +0.000 A 
ATOM     23  C   UNL     1       1.799  14.280  18.704  0.00  0.00    +0.000 A 
ATOM     24  C   UNL     1       2.465  13.282  17.959  0.00  0.00    +0.000 A 
ATOM     25  C   UNL     1       2.370  11.875  18.236  0.00  0.00    +0.000 A 
ATOM     26  C   UNL     1       1.559  11.402  19.303  0.00  0.00    +0.000 A 
BRANCH  18  27
ATOM     27  C   UNL     1      -1.229  11.100  19.006  0.00  0.00    +0.000 C 
ATOM     28  C   UNL     1      -2.253  10.203  18.412  0.00  0.00    +0.000 C 
ATOM     29  C   UNL     1      -2.556  11.662  18.543  0.00  0.00    +0.000 C 
ENDBRANCH  18  27
ENDBRANCH  14  15
ENDBRANCH   8  14
BRANCH   9  30
ATOM     30  C   UNL     1       2.080   6.173  20.374  0.00  0.00    +0.000 C 
BRANCH  30  31
ATOM     31  C   UNL     1       1.023   5.102  20.270  0.00  0.00    +0.000 C 
BRANCH  31  32
ATOM     32  C   UNL     1       1.629   3.705  20.251  0.00  0.00    +0.000 C 
ATOM     33  C   UNL     1       1.425   2.961  21.577  0.00  0.00    +0.000 C 
ATOM     34  C   UNL     1       0.992   2.933  19.102  0.00  0.00    +0.000 C 
ENDBRANCH  31  32
ENDBRANCH  30  31
ENDBRANCH   9  30
TORSDOF 8
ENDMDL
MODEL 5
REMARK VINA RESULT:      -7.4      1.470      2.490
REMARK  Name = 
REMARK  11 active torsions:
REMARK  status: ('A' for Active; 'I' for Inactive)
REMARK    1  A    between atoms: C_1  and  N_2
REMARK    2  A    between atoms: N_2  and  C_3
REMARK    3  A    between atoms: C_3  and  C_4
REMARK    4  A    between atoms: C_11  and  C_12
REMARK    5  A    between atoms: C_12  and  N_13
REMARK    6  A    between atoms: N_16  and  C_17
REMARK    7  A    between atoms: N_28  and  C_29
REMARK    8  A    between atoms: C_29  and  C_30
REMARK    9  A    between atoms: C_30  and  C_31
REMARK   10  A    between atoms: C_31  and  C_32
REMARK   11  A    between atoms: C_31  and  C_33
REMARK                            x       y       z     vdW  Elec       q    Type
REMARK                         _______ _______ _______ _____ _____    ______ ____
ROOT
ATOM      1  C   UNL     1       4.923   5.507  16.271  0.00  0.00    +0.000 A 
ATOM      2  C   UNL     1       4.397   4.484  17.064  0.00  0.00    +0.000 A 
ATOM      3  C   UNL     1       3.479   4.761  18.081  0.00  0.00    +0.000 A 
ATOM      4  C   UNL     1       3.081   6.095  18.303  0.00  0.00    +0.000 A 
ATOM      5  C   UNL     1       3.554   7.173  17.554  0.00  0.00    +0.000 A 
ATOM      6  C   UNL     1       4.506   6.859  16.527  0.00  0.00    +0.000 A 
ATOM      7  N   UNL     1       2.978   8.366  18.075  0.00  0.00    +0.000 NA
ATOM      8  C   UNL     1       2.146   8.050  19.086  0.00  0.00    +0.000 A 
ATOM      9  N   UNL     1       2.282   6.673  19.276  0.00  0.00    +0.000 N 
ENDROOT
BRANCH   1  10
ATOM     10  C   UNL     1       5.953   5.111  15.198  0.00  0.00    +0.000 C 
BRANCH  10  12
ATOM     11  C   UNL     1       7.627   4.603  16.891  0.00  0.00    +0.000 C 
ATOM     12  N   UNL     1       7.362   5.257  15.615  0.00  0.00    +0.000 NA
ATOM     13  H   UNL     1       7.963   4.834  14.901  0.00  0.00    +0.000 HD
ENDBRANCH  10  12
ENDBRANCH   1  10
BRANCH   8  14
ATOM     14  C   UNL     1       1.450   9.035  20.243  0.00  0.00    +0.000 C 
BRANCH  14  15
ATOM     15  N   UNL     1       0.076   9.653  20.057  0.00  0.00    +0.000 N 
ATOM     16  C   UNL     1      -0.005  10.133  18.726  0.00  0.00    +0.000 A 
ATOM     17  O   UNL     1      -0.455   9.424  17.832  0.00  0.00    +0.000 OA
ATOM     18  N   UNL     1       0.161  11.516  18.668  0.00  0.00    +0.000 N 
ATOM     19  C   UNL     1      -1.120  11.921  18.893  0.00  0.00    +0.000 A 
ATOM     20  O   UNL     1      -1.904  12.422  18.101  0.00  0.00    +0.000 OA
ATOM     21  C   UNL     1      -1.480  11.686  20.308  0.00  0.00    +0.000 A 
ATOM     22  C   UNL     1      -2.213  12.723  20.899  0.00  0.00    +0.000 A 
ATOM     23  C   UNL     1      -2.267  12.811  22.271  0.00  0.00    +0.000 A 
ATOM     24  C   UNL     1      -1.622  11.789  23.001  0.00  0.00    +0.000 A 
ATOM     25  C   UNL     1      -0.886  10.712  22.398  0.00  0.00    +0.000 A 
ATOM     26  C   UNL     1      -0.753  10.630  20.985  0.00  0.00    +0.000 A 
BRANCH  18  27
ATOM     27  C   UNL     1       1.170  12.158  19.601  0.00  0.00    +0.000 C 
ATOM     28  C   UNL     1       2.422  12.791  19.113  0.00  0.00    +0.000 C 
ATOM     29  C   UNL     1       1.381  13.649  19.759  0.00  0.00    +0.000 C 
ENDBRANCH  18  27
ENDBRANCH  14  15
ENDBRANCH   8  14
BRANCH   9  30
ATOM     30  C   UNL     1       1.928   5.953  20.475  0.00  0.00    +0.000 C 
BRANCH  30  31
ATOM     31  C   UNL     1       0.861   4.926  20.193  0.00  0.00    +0.000 C 
BRANCH  31  32
ATOM     32  C   UNL     1       1.180   3.583  20.835  0.00  0.00    +0.000 C 
ATOM     33  C   UNL     1       1.272   2.449  19.805  0.00  0.00    +0.000 C 
ATOM     34  C   UNL     1       2.496   3.724  21.591  0.00  0.00    +0.000 C 
ENDBRANCH  31  32
ENDBRANCH  30  31
ENDBRANCH   9  30
TORSDOF 8
ENDMDL
MODEL 6
REMARK VINA RESULT:      -7.2      1.468      2.609
REMARK  Name = 
REMARK  11 active torsions:
REMARK  status: ('A' for Active; 'I' for Inactive)
REMARK    1  A    between atoms: C_1  and  N_2
REMARK    2  A    between atoms: N_2  and  C_3
REMARK    3  A    between atoms: C_3  and  C_4
REMARK    4  A    between atoms: C_11  and  C_12
REMARK    5  A    between atoms: C_12  and  N_13
REMARK    6  A    between atoms: N_16  and  C_17
REMARK    7  A    between atoms: N_28  and  C_29
REMARK    8  A    between atoms: C_29  and  C_30
REMARK    9  A    between atoms: C_30  and  C_31
REMARK   10  A    between atoms: C_31  and  C_32
REMARK   11  A    between atoms: C_31  and  C_33
REMARK                            x       y       z     vdW  Elec       q    Type
REMARK                         _______ _______ _______ _____ _____    ______ ____
ROOT
ATOM      1  C   UNL     1       5.300   4.404  16.043  0.00  0.00    +0.000 A 
ATOM      2  C   UNL     1       4.532   3.710  16.983  0.00  0.00    +0.000 A 
ATOM      3  C   UNL     1       3.623   4.381  17.806  0.00  0.00    +0.000 A 
ATOM      4  C   UNL     1       3.483   5.778  17.680  0.00  0.00    +0.000 A 
ATOM      5  C   UNL     1       4.207   6.544  16.765  0.00  0.00    +0.000 A 
ATOM      6  C   UNL     1       5.142   5.830  15.944  0.00  0.00    +0.000 A 
ATOM      7  N   UNL     1       3.846   7.909  16.941  0.00  0.00    +0.000 NA
ATOM      8  C   UNL     1       2.904   7.998  17.900  0.00  0.00    +0.000 A 
ATOM      9  N   UNL     1       2.754   6.705  18.407  0.00  0.00    +0.000 N 
ENDROOT
BRANCH   1  10
ATOM     10  C   UNL     1       6.299   3.587  15.204  0.00  0.00    +0.000 C 
BRANCH  10  12
ATOM     11  C   UNL     1       5.880   3.529  12.807  0.00  0.00    +0.000 C 
ATOM     12  N   UNL     1       6.620   4.172  13.888  0.00  0.00    +0.000 NA
ATOM     13  H   UNL     1       6.377   5.168  13.900  0.00  0.00    +0.000 HD
ENDBRANCH  10  12
ENDBRANCH   1  10
BRANCH   8  14
ATOM     14  C   UNL     1       2.343   9.338  18.725  0.00  0.00    +0.000 C 
BRANCH  14  15
ATOM     15  N   UNL     1       0.929   9.418  19.270  0.00  0.00    +0.000 N 
ATOM     16  C   UNL     1       0.193  10.294  18.434  0.00  0.00    +0.000 A 
ATOM     17  O   UNL     1      -0.445   9.860  17.480  0.00  0.00    +0.000 OA
ATOM     18  N   UNL     1       0.037  11.551  19.017  0.00  0.00    +0.000 N 
ATOM     19  C   UNL     1      -1.077  11.330  19.769  0.00  0.00    +0.000 A 
ATOM     20  O   UNL     1      -2.207  11.759  19.588  0.00  0.00    +0.000 OA
ATOM     21  C   UNL     1      -0.743  10.465  20.921  0.00  0.00    +0.000 A 
ATOM     22  C   UNL     1      -1.345  10.849  22.127  0.00  0.00    +0.000 A 
ATOM     23  C   UNL     1      -0.823  10.388  23.314  0.00  0.00    +0.000 A 
ATOM     24  C   UNL     1       0.261   9.489  23.228  0.00  0.00    +0.000 A 
ATOM     25  C   UNL     1       0.869   9.077  21.992  0.00  0.00    +0.000 A 
ATOM     26  C   UNL     1       0.399   9.588  20.751  0.00  0.00    +0.000 A 
BRANCH  18  27
ATOM     27  C   UNL     1       1.198  12.123  19.810  0.00  0.00    +0.000 C 
ATOM     28  C   UNL     1       2.222  13.011  19.203  0.00  0.00    +0.000 C 
ATOM     29  C   UNL     1       1.317  13.564  20.257  0.00  0.00    +0.000 C 
ENDBRANCH  18  27
ENDBRANCH  14  15
ENDBRANCH   8  14
BRANCH   9  30
ATOM     30  C   UNL     1       2.187   6.368  19.690  0.00  0.00    +0.000 C 
BRANCH  30  31
ATOM     31  C   UNL     1       2.836   5.132  20.260  0.00  0.00    +0.000 C 
BRANCH  31  32
ATOM     32  C   UNL     1       1.829   4.234  20.966  0.00  0.00    +0.000 C 
ATOM     33  C   UNL     1       0.714   3.754  20.028  0.00  0.00    +0.000 C 
ATOM     34  C   UNL     1       2.585   3.046  21.548  0.00  0.00    +0.000 C 
ENDBRANCH  31  32
ENDBRANCH  30  31
ENDBRANCH   9  30
TORSDOF 8
ENDMDL
MODEL 7
REMARK VINA RESULT:      -7.1      3.164      6.414
REMARK  Name = 
REMARK  11 active torsions:
REMARK  status: ('A' for Active; 'I' for Inactive)
REMARK    1  A    between atoms: C_1  and  N_2
REMARK    2  A    between atoms: N_2  and  C_3
REMARK    3  A    between atoms: C_3  and  C_4
REMARK    4  A    between atoms: C_11  and  C_12
REMARK    5  A    between atoms: C_12  and  N_13
REMARK    6  A    between atoms: N_16  and  C_17
REMARK    7  A    between atoms: N_28  and  C_29
REMARK    8  A    between atoms: C_29  and  C_30
REMARK    9  A    between atoms: C_30  and  C_31
REMARK   10  A    between atoms: C_31  and  C_32
REMARK   11  A    between atoms: C_31  and  C_33
REMARK                            x       y       z     vdW  Elec       q    Type
REMARK                         _______ _______ _______ _____ _____    ______ ____
ROOT
ATOM      1  C   UNL     1       2.117   7.433  19.468  0.00  0.00    +0.000 A 
ATOM      2  C   UNL     1       1.983   8.021  18.207  0.00  0.00    +0.000 A 
ATOM      3  C   UNL     1       1.420   9.293  18.061  0.00  0.00    +0.000 A 
ATOM      4  C   UNL     1       0.984   9.987  19.208  0.00  0.00    +0.000 A 
ATOM      5  C   UNL     1       1.085   9.474  20.502  0.00  0.00    +0.000 A 
ATOM      6  C   UNL     1       1.654   8.162  20.619  0.00  0.00    +0.000 A 
ATOM      7  N   UNL     1       0.516  10.418  21.402  0.00  0.00    +0.000 NA
ATOM      8  C   UNL     1       0.106  11.498  20.710  0.00  0.00    +0.000 A 
ATOM      9  N   UNL     1       0.315  11.190  19.364  0.00  0.00    +0.000 N 
ENDROOT
BRANCH   1  10
ATOM     10  C   UNL     1       2.715   6.018  19.529  0.00  0.00    +0.000 C 
BRANCH  10  12
ATOM     11  C   UNL     1       1.673   4.210  20.784  0.00  0.00    +0.000 C 
ATOM     12  N   UNL     1       2.584   5.349  20.838  0.00  0.00    +0.000 NA
ATOM     13  H   UNL     1       3.506   5.014  21.133  0.00  0.00    +0.000 HD
ENDBRANCH  10  12
ENDBRANCH   1  10
BRANCH   8  14
ATOM     14  C   UNL     1      -0.890  12.754  21.182  0.00  0.00    +0.000 C 
BRANCH  14  15
ATOM     15  N   UNL     1      -1.315  12.949  22.626  0.00  0.00    +0.000 N 
ATOM     16  C   UNL     1      -2.223  11.912  22.952  0.00  0.00    +0.000 A 
ATOM     17  O   UNL     1      -1.825  10.865  23.452  0.00  0.00    +0.000 OA
ATOM     18  N   UNL     1      -3.543  12.363  22.944  0.00  0.00    +0.000 N 
ATOM     19  C   UNL     1      -3.638  12.848  24.214  0.00  0.00    +0.000 A 
ATOM     20  O   UNL     1      -4.265  12.382  25.154  0.00  0.00    +0.000 OA
ATOM     21  C   UNL     1      -2.857  14.098  24.335  0.00  0.00    +0.000 A 
ATOM     22  C   UNL     1      -3.487  15.104  25.079  0.00  0.00    +0.000 A 
ATOM     23  C   UNL     1      -3.065  16.406  24.939  0.00  0.00    +0.000 A 
ATOM     24  C   UNL     1      -1.960  16.632  24.090  0.00  0.00    +0.000 A 
ATOM     25  C   UNL     1      -1.299  15.599  23.340  0.00  0.00    +0.000 A 
ATOM     26  C   UNL     1      -1.753  14.253  23.408  0.00  0.00    +0.000 A 
BRANCH  18  27
ATOM     27  C   UNL     1      -3.952  13.366  21.882  0.00  0.00    +0.000 C 
ATOM     28  C   UNL     1      -4.453  12.958  20.545  0.00  0.00    +0.000 C 
ATOM     29  C   UNL     1      -5.380  13.670  21.479  0.00  0.00    +0.000 C 
ENDBRANCH  18  27
ENDBRANCH  14  15
ENDBRANCH   8  14
BRANCH   9  30
ATOM     30  C   UNL     1      -0.331  11.834  18.246  0.00  0.00    +0.000 C 
BRANCH  30  31
ATOM     31  C   UNL     1      -1.808  11.534  18.229  0.00  0.00    +0.000 C 
BRANCH  31  32
ATOM     32  C   UNL     1      -2.152  10.422  17.247  0.00  0.00    +0.000 C 
ATOM     33  C   UNL     1      -3.243   9.486  17.782  0.00  0.00    +0.000 C 
ATOM     34  C   UNL     1      -2.596  11.068  15.941  0.00  0.00    +0.000 C 
ENDBRANCH  31  32
ENDBRANCH  30  31
ENDBRANCH   9  30
TORSDOF 8
ENDMDL
MODEL 8
REMARK VINA RESULT:      -7.1      1.540      2.562
REMARK  Name = 
REMARK  11 active torsions:
REMARK  status: ('A' for Active; 'I' for Inactive)
REMARK    1  A    between atoms: C_1  and  N_2
REMARK    2  A    between atoms: N_2  and  C_3
REMARK    3  A    between atoms: C_3  and  C_4
REMARK    4  A    between atoms: C_11  and  C_12
REMARK    5  A    between atoms: C_12  and  N_13
REMARK    6  A    between atoms: N_16  and  C_17
REMARK    7  A    between atoms: N_28  and  C_29
REMARK    8  A    between atoms: C_29  and  C_30
REMARK    9  A    between atoms: C_30  and  C_31
REMARK   10  A    between atoms: C_31  and  C_32
REMARK   11  A    between atoms: C_31  and  C_33
REMARK                            x       y       z     vdW  Elec       q    Type
REMARK                         _______ _______ _______ _____ _____    ______ ____
ROOT
ATOM      1  C   UNL     1       5.353   4.958  15.716  0.00  0.00    +0.000 A 
ATOM      2  C   UNL     1       4.683   3.986  16.464  0.00  0.00    +0.000 A 
ATOM      3  C   UNL     1       3.761   4.346  17.452  0.00  0.00    +0.000 A 
ATOM      4  C   UNL     1       3.508   5.712  17.691  0.00  0.00    +0.000 A 
ATOM      5  C   UNL     1       4.130   6.744  16.987  0.00  0.00    +0.000 A 
ATOM      6  C   UNL     1       5.081   6.344  15.989  0.00  0.00    +0.000 A 
ATOM      7  N   UNL     1       3.672   7.984  17.513  0.00  0.00    +0.000 NA
ATOM      8  C   UNL     1       2.769   7.745  18.484  0.00  0.00    +0.000 A 
ATOM      9  N   UNL     1       2.741   6.358  18.646  0.00  0.00    +0.000 N 
ENDROOT
BRANCH   1  10
ATOM     10  C   UNL     1       6.374   4.470  14.674  0.00  0.00    +0.000 C 
BRANCH  10  12
ATOM     11  C   UNL     1       7.837   5.381  12.954  0.00  0.00    +0.000 C 
ATOM     12  N   UNL     1       7.442   5.439  14.357  0.00  0.00    +0.000 NA
ATOM     13  H   UNL     1       7.102   6.384  14.561  0.00  0.00    +0.000 HD
ENDBRANCH  10  12
ENDBRANCH   1  10
BRANCH   8  14
ATOM     14  C   UNL     1       2.142   8.780  19.637  0.00  0.00    +0.000 C 
BRANCH  14  15
ATOM     15  N   UNL     1       0.696   9.239  19.610  0.00  0.00    +0.000 N 
ATOM     16  C   UNL     1       0.432   9.758  18.318  0.00  0.00    +0.000 A 
ATOM     17  O   UNL     1      -0.020   9.038  17.434  0.00  0.00    +0.000 OA
ATOM     18  N   UNL     1       0.434  11.153  18.315  0.00  0.00    +0.000 N 
ATOM     19  C   UNL     1      -0.857  11.395  18.677  0.00  0.00    +0.000 A 
ATOM     20  O   UNL     1      -1.765  11.832  17.986  0.00  0.00    +0.000 OA
ATOM     21  C   UNL     1      -1.049  11.063  20.106  0.00  0.00    +0.000 A 
ATOM     22  C   UNL     1      -1.834  11.983  20.813  0.00  0.00    +0.000 A 
ATOM     23  C   UNL     1      -1.764  12.009  22.186  0.00  0.00    +0.000 A 
ATOM     24  C   UNL     1      -0.940  11.042  22.802  0.00  0.00    +0.000 A 
ATOM     25  C   UNL     1      -0.149  10.083  22.080  0.00  0.00    +0.000 A 
ATOM     26  C   UNL     1      -0.145  10.074  20.659  0.00  0.00    +0.000 A 
BRANCH  18  27
ATOM     27  C   UNL     1       1.450  11.871  19.183  0.00  0.00    +0.000 C 
ATOM     28  C   UNL     1       2.547  12.697  18.616  0.00  0.00    +0.000 C 
ATOM     29  C   UNL     1       1.482  13.365  19.426  0.00  0.00    +0.000 C 
ENDBRANCH  18  27
ENDBRANCH  14  15
ENDBRANCH   8  14
BRANCH   9  30
ATOM     30  C   UNL     1       2.259   5.660  19.813  0.00  0.00    +0.000 C 
BRANCH  30  31
ATOM     31  C   UNL     1       1.162   4.692  19.450  0.00  0.00    +0.000 C 
BRANCH  31  32
ATOM     32  C   UNL     1       1.531   3.256  19.799  0.00  0.00    +0.000 C 
ATOM     33  C   UNL     1       1.409   2.970  21.301  0.00  0.00    +0.000 C 
ATOM     34  C   UNL     1       0.619   2.330  19.003  0.00  0.00    +0.000 C 
ENDBRANCH  31  32
ENDBRANCH  30  31
ENDBRANCH   9  30
TORSDOF 8
ENDMDL
MODEL 9
REMARK VINA RESULT:      -6.6      1.654      2.895
REMARK  Name = 
REMARK  11 active torsions:
REMARK  status: ('A' for Active; 'I' for Inactive)
REMARK    1  A    between atoms: C_1  and  N_2
REMARK    2  A    between atoms: N_2  and  C_3
REMARK    3  A    between atoms: C_3  and  C_4
REMARK    4  A    between atoms: C_11  and  C_12
REMARK    5  A    between atoms: C_12  and  N_13
REMARK    6  A    between atoms: N_16  and  C_17
REMARK    7  A    between atoms: N_28  and  C_29
REMARK    8  A    between atoms: C_29  and  C_30
REMARK    9  A    between atoms: C_30  and  C_31
REMARK   10  A    between atoms: C_31  and  C_32
REMARK   11  A    between atoms: C_31  and  C_33
REMARK                            x       y       z     vdW  Elec       q    Type
REMARK                         _______ _______ _______ _____ _____    ______ ____
ROOT
ATOM      1  C   UNL     1       5.576   5.849  17.161  0.00  0.00    +0.000 A 
ATOM      2  C   UNL     1       5.164   4.784  17.967  0.00  0.00    +0.000 A 
ATOM      3  C   UNL     1       4.010   4.879  18.751  0.00  0.00    +0.000 A 
ATOM      4  C   UNL     1       3.255   6.069  18.721  0.00  0.00    +0.000 A 
ATOM      5  C   UNL     1       3.593   7.175  17.941  0.00  0.00    +0.000 A 
ATOM      6  C   UNL     1       4.790   7.054  17.159  0.00  0.00    +0.000 A 
ATOM      7  N   UNL     1       2.641   8.203  18.187  0.00  0.00    +0.000 NA
ATOM      8  C   UNL     1       1.717   7.751  19.056  0.00  0.00    +0.000 A 
ATOM      9  N   UNL     1       2.148   6.480  19.445  0.00  0.00    +0.000 N 
ENDROOT
BRANCH   1  10
ATOM     10  C   UNL     1       6.877   5.668  16.360  0.00  0.00    +0.000 C 
BRANCH  10  12
ATOM     11  C   UNL     1       7.891   7.319  17.835  0.00  0.00    +0.000 C 
ATOM     12  N   UNL     1       7.834   6.786  16.478  0.00  0.00    +0.000 NA
ATOM     13  H   UNL     1       8.768   6.451  16.221  0.00  0.00    +0.000 HD
ENDBRANCH  10  12
ENDBRANCH   1  10
BRANCH   8  14
ATOM     14  C   UNL     1       0.566   8.595  19.927  0.00  0.00    +0.000 C 
BRANCH  14  15
ATOM     15  N   UNL     1       0.761  10.045  20.329  0.00  0.00    +0.000 N 
ATOM     16  C   UNL     1      -0.412  10.469  21.001  0.00  0.00    +0.000 A 
ATOM     17  O   UNL     1      -0.500  10.382  22.222  0.00  0.00    +0.000 OA
ATOM     18  N   UNL     1      -1.224  11.246  20.177  0.00  0.00    +0.000 N 
ATOM     19  C   UNL     1      -0.666  12.473  20.377  0.00  0.00    +0.000 A 
ATOM     20  O   UNL     1      -1.130  13.422  20.991  0.00  0.00    +0.000 OA
ATOM     21  C   UNL     1       0.652  12.540  19.709  0.00  0.00    +0.000 A 
ATOM     22  C   UNL     1       0.904  13.750  19.049  0.00  0.00    +0.000 A 
ATOM     23  C   UNL     1       1.886  13.796  18.087  0.00  0.00    +0.000 A 
ATOM     24  C   UNL     1       2.631  12.616  17.876  0.00  0.00    +0.000 A 
ATOM     25  C   UNL     1       2.387  11.378  18.566  0.00  0.00    +0.000 A 
ATOM     26  C   UNL     1       1.336  11.276  19.516  0.00  0.00    +0.000 A 
BRANCH  18  27
ATOM     27  C   UNL     1      -1.336  10.865  18.713  0.00  0.00    +0.000 C 
ATOM     28  C   UNL     1      -2.480  10.088  18.172  0.00  0.00    +0.000 C 
ATOM     29  C   UNL     1      -2.286  11.500  17.720  0.00  0.00    +0.000 C 
ENDBRANCH  18  27
ENDBRANCH  14  15
ENDBRANCH   8  14
BRANCH   9  30
ATOM     30  C   UNL     1       1.736   5.783  20.639  0.00  0.00    +0.000 C 
BRANCH  30  31
ATOM     31  C   UNL     1       0.705   4.730  20.321  0.00  0.00    +0.000 C 
BRANCH  31  32
ATOM     32  C   UNL     1       1.139   3.349  20.794  0.00  0.00    +0.000 C 
ATOM     33  C   UNL     1       1.511   2.422  19.629  0.00  0.00    +0.000 C 
ATOM     34  C   UNL     1       2.325   3.525  21.735  0.00  0.00    +0.000 C 
ENDBRANCH  31  32
ENDBRANCH  30  31
ENDBRANCH   9  30
TORSDOF 8
ENDMDL
