MODEL 1
REMARK VINA RESULT:      -8.0      0.000      0.000
REMARK  Name = 
REMARK  8 active torsions:
REMARK  status: ('A' for Active; 'I' for Inactive)
REMARK    1  A    between atoms: C_1  and  C_2
REMARK    2  A    between atoms: C_4  and  C_5
REMARK    3  A    between atoms: N_10  and  C_11
REMARK    4  A    between atoms: C_12  and  C_13
REMARK    5  A    between atoms: C_18  and  C_19
REMARK    6  A    between atoms: C_18  and  C_20
REMARK    7  A    between atoms: C_22  and  C_23
REMARK    8  A    between atoms: C_23  and  C_24
REMARK                            x       y       z     vdW  Elec       q    Type
REMARK                         _______ _______ _______ _____ _____    ______ ____
ROOT
ATOM      1  C   UNL     1       2.599   6.736  19.771  0.00  0.00    +0.000 C 
ATOM      2  N   UNL     1       2.260   8.009  19.828  0.00  0.00    +0.000 NA
ATOM      3  N   UNL     1       1.229   8.104  20.725  0.00  0.00    +0.000 N 
ATOM      4  C   UNL     1       0.542   9.308  20.957  0.00  0.00    +0.000 C 
ATOM      5  O   UNL     1      -0.406   9.409  21.728  0.00  0.00    +0.000 OA
ATOM      6  N   UNL     1       1.002  10.371  20.200  0.00  0.00    +0.000 N 
ATOM      7  C   UNL     1       0.861   6.816  21.305  0.00  0.00    +0.000 C 
ATOM      8  C   UNL     1       1.789   5.794  20.647  0.00  0.00    +0.000 C 
ATOM      9  H   UNL     1       1.926  10.227  19.806  0.00  0.00    +0.000 HD
ENDROOT
BRANCH   6  10
ATOM     10  C   UNL     1       0.461  11.720  20.260  0.00  0.00    +0.000 C 
ATOM     11  C   UNL     1       1.512  12.854  19.999  0.00  0.00    +0.000 C 
ATOM     12  C   UNL     1       2.444  13.166  21.154  0.00  0.00    +0.000 C 
ATOM     13  C   UNL     1       2.239  12.619  18.655  0.00  0.00    +0.000 C 
ATOM     14  C   UNL     1       1.166  12.966  17.614  0.00  0.00    +0.000 C 
ATOM     15  C   UNL     1      -0.066  13.303  18.477  0.00  0.00    +0.000 C 
ATOM     16  C   UNL     1       0.611  14.045  19.631  0.00  0.00    +0.000 C 
ATOM     17  C   UNL     1      -0.650  12.038  19.185  0.00  0.00    +0.000 C 
ATOM     18  C   UNL     1      -0.976  10.908  18.194  0.00  0.00    +0.000 C 
ATOM     19  C   UNL     1      -1.982  12.401  19.884  0.00  0.00    +0.000 C 
ENDBRANCH   6  10
BRANCH   1  23
ATOM     20  C   UNL     1       4.978   6.549  15.341  0.00  0.00    +0.000 C 
ATOM     21  C   UNL     1       4.902   6.156  16.791  0.00  0.00    +0.000 A 
ATOM     22  C   UNL     1       3.867   6.671  17.597  0.00  0.00    +0.000 A 
ATOM     23  C   UNL     1       3.739   6.287  18.941  0.00  0.00    +0.000 A 
ATOM     24  C   UNL     1       4.688   5.426  19.499  0.00  0.00    +0.000 A 
ATOM     25  C   UNL     1       5.741   4.940  18.722  0.00  0.00    +0.000 A 
ATOM     26  C   UNL     1       5.840   5.289  17.371  0.00  0.00    +0.000 A 
ATOM     27 CL   UNL     1       7.153   4.636  16.460  0.00  0.00    +0.000 Cl
ENDBRANCH   1  23
BRANCH   8  28
ATOM     28  C   UNL     1       1.027   4.693  19.888  0.00  0.00    +0.000 C 
BRANCH  28  29
ATOM     29  C   UNL     1       1.909   3.635  19.246  0.00  0.00    +0.000 A 
ATOM     30  C   UNL     1       1.945   3.510  17.848  0.00  0.00    +0.000 A 
ATOM     31  C   UNL     1       2.750   2.546  17.234  0.00  0.00    +0.000 A 
ATOM     32  C   UNL     1       3.560   1.717  18.005  0.00  0.00    +0.000 A 
ATOM     33  C   UNL     1       3.540   1.830  19.390  0.00  0.00    +0.000 A 
ATOM     34  C   UNL     1       2.703   2.764  20.010  0.00  0.00    +0.000 A 
ENDBRANCH  28  29
ENDBRANCH   8  28
TORSDOF 4
ENDMDL
MODEL 2
REMARK VINA RESULT:      -7.9      6.639     10.925
REMARK  Name = 
REMARK  8 active torsions:
REMARK  status: ('A' for Active; 'I' for Inactive)
REMARK    1  A    between atoms: C_1  and  C_2
REMARK    2  A    between atoms: C_4  and  C_5
REMARK    3  A    between atoms: N_10  and  C_11
REMARK    4  A    between atoms: C_12  and  C_13
REMARK    5  A    between atoms: C_18  and  C_19
REMARK    6  A    between atoms: C_18  and  C_20
REMARK    7  A    between atoms: C_22  and  C_23
REMARK    8  A    between atoms: C_23  and  C_24
REMARK                            x       y       z     vdW  Elec       q    Type
REMARK                         _______ _______ _______ _____ _____    ______ ____
ROOT
ATOM      1  C   UNL     1       4.062  14.935  19.051  0.00  0.00    +0.000 C 
ATOM      2  N   UNL     1       5.311  14.541  19.200  0.00  0.00    +0.000 NA
ATOM      3  N   UNL     1       6.098  15.653  19.048  0.00  0.00    +0.000 N 
ATOM      4  C   UNL     1       7.502  15.585  19.037  0.00  0.00    +0.000 C 
ATOM      5  O   UNL     1       8.225  16.560  18.867  0.00  0.00    +0.000 OA
ATOM      6  N   UNL     1       8.003  14.304  19.190  0.00  0.00    +0.000 N 
ATOM      7  C   UNL     1       5.325  16.862  18.786  0.00  0.00    +0.000 C 
ATOM      8  C   UNL     1       3.864  16.413  18.753  0.00  0.00    +0.000 C 
ATOM      9  H   UNL     1       7.333  13.642  19.569  0.00  0.00    +0.000 HD
ENDROOT
BRANCH   6  10
ATOM     10  C   UNL     1       9.419  13.972  19.217  0.00  0.00    +0.000 C 
ATOM     11  C   UNL     1       9.983  13.645  20.644  0.00  0.00    +0.000 C 
ATOM     12  C   UNL     1      10.236  14.841  21.541  0.00  0.00    +0.000 C 
ATOM     13  C   UNL     1       9.149  12.527  21.312  0.00  0.00    +0.000 C 
ATOM     14  C   UNL     1       9.565  11.271  20.535  0.00  0.00    +0.000 C 
ATOM     15  C   UNL     1      10.542  11.819  19.476  0.00  0.00    +0.000 C 
ATOM     16  C   UNL     1      11.271  12.876  20.308  0.00  0.00    +0.000 C 
ATOM     17  C   UNL     1       9.814  12.684  18.396  0.00  0.00    +0.000 C 
ATOM     18  C   UNL     1       8.655  11.928  17.723  0.00  0.00    +0.000 C 
ATOM     19  C   UNL     1      10.806  13.051  17.268  0.00  0.00    +0.000 C 
ENDBRANCH   6  10
BRANCH   1  23
ATOM     20  C   UNL     1       0.160  13.222  21.726  0.00  0.00    +0.000 C 
ATOM     21  C   UNL     1       1.053  13.116  20.521  0.00  0.00    +0.000 A 
ATOM     22  C   UNL     1       2.057  14.084  20.313  0.00  0.00    +0.000 A 
ATOM     23  C   UNL     1       2.938  13.989  19.225  0.00  0.00    +0.000 A 
ATOM     24  C   UNL     1       2.777  12.950  18.304  0.00  0.00    +0.000 A 
ATOM     25  C   UNL     1       1.761  12.008  18.476  0.00  0.00    +0.000 A 
ATOM     26  C   UNL     1       0.913  12.080  19.586  0.00  0.00    +0.000 A 
ATOM     27 CL   UNL     1      -0.308  10.870  19.752  0.00  0.00    +0.000 Cl
ENDBRANCH   1  23
BRANCH   8  28
ATOM     28  C   UNL     1       3.171  16.720  17.414  0.00  0.00    +0.000 C 
BRANCH  28  29
ATOM     29  C   UNL     1       1.761  17.275  17.538  0.00  0.00    +0.000 A 
ATOM     30  C   UNL     1       0.988  16.971  18.669  0.00  0.00    +0.000 A 
ATOM     31  C   UNL     1      -0.310  17.473  18.808  0.00  0.00    +0.000 A 
ATOM     32  C   UNL     1      -0.841  18.315  17.835  0.00  0.00    +0.000 A 
ATOM     33  C   UNL     1      -0.087  18.630  16.710  0.00  0.00    +0.000 A 
ATOM     34  C   UNL     1       1.195  18.095  16.548  0.00  0.00    +0.000 A 
ENDBRANCH  28  29
ENDBRANCH   8  28
TORSDOF 4
ENDMDL
MODEL 3
REMARK VINA RESULT:      -7.9      0.457      1.185
REMARK  Name = 
REMARK  8 active torsions:
REMARK  status: ('A' for Active; 'I' for Inactive)
REMARK    1  A    between atoms: C_1  and  C_2
REMARK    2  A    between atoms: C_4  and  C_5
REMARK    3  A    between atoms: N_10  and  C_11
REMARK    4  A    between atoms: C_12  and  C_13
REMARK    5  A    between atoms: C_18  and  C_19
REMARK    6  A    between atoms: C_18  and  C_20
REMARK    7  A    between atoms: C_22  and  C_23
REMARK    8  A    between atoms: C_23  and  C_24
REMARK                            x       y       z     vdW  Elec       q    Type
REMARK                         _______ _______ _______ _____ _____    ______ ____
ROOT
ATOM      1  C   UNL     1       2.617   6.745  19.676  0.00  0.00    +0.000 C 
ATOM      2  N   UNL     1       2.214   7.999  19.733  0.00  0.00    +0.000 NA
ATOM      3  N   UNL     1       1.257   8.064  20.711  0.00  0.00    +0.000 N 
ATOM      4  C   UNL     1       0.526   9.236  20.974  0.00  0.00    +0.000 C 
ATOM      5  O   UNL     1      -0.358   9.307  21.820  0.00  0.00    +0.000 OA
ATOM      6  N   UNL     1       0.863  10.300  20.157  0.00  0.00    +0.000 N 
ATOM      7  C   UNL     1       1.010   6.774  21.348  0.00  0.00    +0.000 C 
ATOM      8  C   UNL     1       1.934   5.785  20.637  0.00  0.00    +0.000 C 
ATOM      9  H   UNL     1       1.758  10.195  19.689  0.00  0.00    +0.000 HD
ENDROOT
BRANCH   6  10
ATOM     10  C   UNL     1       0.255  11.620  20.233  0.00  0.00    +0.000 C 
ATOM     11  C   UNL     1       1.257  12.810  20.028  0.00  0.00    +0.000 C 
ATOM     12  C   UNL     1       2.141  13.137  21.216  0.00  0.00    +0.000 C 
ATOM     13  C   UNL     1       2.032  12.643  18.700  0.00  0.00    +0.000 C 
ATOM     14  C   UNL     1       0.972  12.963  17.637  0.00  0.00    +0.000 C 
ATOM     15  C   UNL     1      -0.298  13.219  18.472  0.00  0.00    +0.000 C 
ATOM     16  C   UNL     1       0.310  13.964  19.662  0.00  0.00    +0.000 C 
ATOM     17  C   UNL     1      -0.839  11.911  19.134  0.00  0.00    +0.000 C 
ATOM     18  C   UNL     1      -1.083  10.791  18.108  0.00  0.00    +0.000 C 
ATOM     19  C   UNL     1      -2.206  12.192  19.802  0.00  0.00    +0.000 C 
ENDBRANCH   6  10
BRANCH   1  23
ATOM     20  C   UNL     1       7.337   5.173  18.928  0.00  0.00    +0.000 C 
ATOM     21  C   UNL     1       6.008   5.599  18.369  0.00  0.00    +0.000 A 
ATOM     22  C   UNL     1       4.945   5.890  19.248  0.00  0.00    +0.000 A 
ATOM     23  C   UNL     1       3.707   6.335  18.762  0.00  0.00    +0.000 A 
ATOM     24  C   UNL     1       3.510   6.435  17.383  0.00  0.00    +0.000 A 
ATOM     25  C   UNL     1       4.541   6.111  16.500  0.00  0.00    +0.000 A 
ATOM     26  C   UNL     1       5.789   5.710  16.988  0.00  0.00    +0.000 A 
ATOM     27 CL   UNL     1       7.028   5.346  15.843  0.00  0.00    +0.000 Cl
ENDBRANCH   1  23
BRANCH   8  28
ATOM     28  C   UNL     1       1.174   4.626  19.970  0.00  0.00    +0.000 C 
BRANCH  28  29
ATOM     29  C   UNL     1       2.059   3.557  19.349  0.00  0.00    +0.000 A 
ATOM     30  C   UNL     1       1.858   3.173  18.014  0.00  0.00    +0.000 A 
ATOM     31  C   UNL     1       2.661   2.195  17.420  0.00  0.00    +0.000 A 
ATOM     32  C   UNL     1       3.700   1.610  18.139  0.00  0.00    +0.000 A 
ATOM     33  C   UNL     1       3.915   1.981  19.462  0.00  0.00    +0.000 A 
ATOM     34  C   UNL     1       3.086   2.929  20.073  0.00  0.00    +0.000 A 
ENDBRANCH  28  29
ENDBRANCH   8  28
TORSDOF 4
ENDMDL
MODEL 4
REMARK VINA RESULT:      -7.7      6.459     10.923
REMARK  Name = 
REMARK  8 active torsions:
REMARK  status: ('A' for Active; 'I' for Inactive)
REMARK    1  A    between atoms: C_1  and  C_2
REMARK    2  A    between atoms: C_4  and  C_5
REMARK    3  A    between atoms: N_10  and  C_11
REMARK    4  A    between atoms: C_12  and  C_13
REMARK    5  A    between atoms: C_18  and  C_19
REMARK    6  A    between atoms: C_18  and  C_20
REMARK    7  A    between atoms: C_22  and  C_23
REMARK    8  A    between atoms: C_23  and  C_24
REMARK                            x       y       z     vdW  Elec       q    Type
REMARK                         _______ _______ _______ _____ _____    ______ ____
ROOT
ATOM      1  C   UNL     1       4.182  15.041  19.254  0.00  0.00    +0.000 C 
ATOM      2  N   UNL     1       5.422  14.613  19.388  0.00  0.00    +0.000 NA
ATOM      3  N   UNL     1       6.239  15.620  18.946  0.00  0.00    +0.000 N 
ATOM      4  C   UNL     1       7.632  15.469  18.844  0.00  0.00    +0.000 C 
ATOM      5  O   UNL     1       8.379  16.343  18.418  0.00  0.00    +0.000 OA
ATOM      6  N   UNL     1       8.090  14.220  19.226  0.00  0.00    +0.000 N 
ATOM      7  C   UNL     1       5.497  16.793  18.494  0.00  0.00    +0.000 C 
ATOM      8  C   UNL     1       4.022  16.434  18.666  0.00  0.00    +0.000 C 
ATOM      9  H   UNL     1       7.428  13.692  19.785  0.00  0.00    +0.000 HD
ENDROOT
BRANCH   6  10
ATOM     10  C   UNL     1       9.488  13.818  19.215  0.00  0.00    +0.000 C 
ATOM     11  C   UNL     1      10.078  13.479  20.629  0.00  0.00    +0.000 C 
ATOM     12  C   UNL     1      10.417  14.670  21.503  0.00  0.00    +0.000 C 
ATOM     13  C   UNL     1       9.209  12.412  21.336  0.00  0.00    +0.000 C 
ATOM     14  C   UNL     1       9.539  11.127  20.563  0.00  0.00    +0.000 C 
ATOM     15  C   UNL     1      10.510  11.614  19.469  0.00  0.00    +0.000 C 
ATOM     16  C   UNL     1      11.315  12.642  20.266  0.00  0.00    +0.000 C 
ATOM     17  C   UNL     1       9.793  12.501  18.400  0.00  0.00    +0.000 C 
ATOM     18  C   UNL     1       8.579  11.798  17.771  0.00  0.00    +0.000 C 
ATOM     19  C   UNL     1      10.768  12.806  17.238  0.00  0.00    +0.000 C 
ENDBRANCH   6  10
BRANCH   1  23
ATOM     20  C   UNL     1       0.963  11.243  18.523  0.00  0.00    +0.000 C 
ATOM     21  C   UNL     1       1.441  12.396  19.363  0.00  0.00    +0.000 A 
ATOM     22  C   UNL     1       2.592  13.109  18.973  0.00  0.00    +0.000 A 
ATOM     23  C   UNL     1       3.038  14.219  19.708  0.00  0.00    +0.000 A 
ATOM     24  C   UNL     1       2.360  14.583  20.874  0.00  0.00    +0.000 A 
ATOM     25  C   UNL     1       1.242  13.861  21.293  0.00  0.00    +0.000 A 
ATOM     26  C   UNL     1       0.774  12.782  20.534  0.00  0.00    +0.000 A 
ATOM     27 CL   UNL     1      -0.628  11.945  21.097  0.00  0.00    +0.000 Cl
ENDBRANCH   1  23
BRANCH   8  28
ATOM     28  C   UNL     1       3.230  16.498  17.349  0.00  0.00    +0.000 C 
BRANCH  28  29
ATOM     29  C   UNL     1       1.833  17.085  17.472  0.00  0.00    +0.000 A 
ATOM     30  C   UNL     1       0.984  16.657  18.506  0.00  0.00    +0.000 A 
ATOM     31  C   UNL     1      -0.303  17.185  18.642  0.00  0.00    +0.000 A 
ATOM     32  C   UNL     1      -0.750  18.174  17.770  0.00  0.00    +0.000 A 
ATOM     33  C   UNL     1       0.079  18.612  16.743  0.00  0.00    +0.000 A 
ATOM     34  C   UNL     1       1.352  18.055  16.578  0.00  0.00    +0.000 A 
ENDBRANCH  28  29
ENDBRANCH   8  28
TORSDOF 4
ENDMDL
MODEL 5
REMARK VINA RESULT:      -6.9      4.086      6.782
REMARK  Name = 
REMARK  8 active torsions:
REMARK  status: ('A' for Active; 'I' for Inactive)
REMARK    1  A    between atoms: C_1  and  C_2
REMARK    2  A    between atoms: C_4  and  C_5
REMARK    3  A    between atoms: N_10  and  C_11
REMARK    4  A    between atoms: C_12  and  C_13
REMARK    5  A    between atoms: C_18  and  C_19
REMARK    6  A    between atoms: C_18  and  C_20
REMARK    7  A    between atoms: C_22  and  C_23
REMARK    8  A    between atoms: C_23  and  C_24
REMARK                            x       y       z     vdW  Elec       q    Type
REMARK                         _______ _______ _______ _____ _____    ______ ____
ROOT
ATOM      1  C   UNL     1       0.918  12.272  20.964  0.00  0.00    +0.000 C 
ATOM      2  N   UNL     1       0.045  12.918  21.712  0.00  0.00    +0.000 NA
ATOM      3  N   UNL     1      -0.755  11.970  22.294  0.00  0.00    +0.000 N 
ATOM      4  C   UNL     1      -1.872  12.307  23.079  0.00  0.00    +0.000 C 
ATOM      5  O   UNL     1      -2.622  11.477  23.580  0.00  0.00    +0.000 OA
ATOM      6  N   UNL     1      -2.080  13.670  23.201  0.00  0.00    +0.000 N 
ATOM      7  C   UNL     1      -0.391  10.610  21.913  0.00  0.00    +0.000 C 
ATOM      8  C   UNL     1       0.783  10.758  20.946  0.00  0.00    +0.000 C 
ATOM      9  H   UNL     1      -1.270  14.234  22.965  0.00  0.00    +0.000 HD
ENDROOT
BRANCH   6  10
ATOM     10  C   UNL     1      -3.164  14.271  23.963  0.00  0.00    +0.000 C 
ATOM     11  C   UNL     1      -2.809  15.651  24.620  0.00  0.00    +0.000 C 
ATOM     12  C   UNL     1      -1.953  15.584  25.870  0.00  0.00    +0.000 C 
ATOM     13  C   UNL     1      -2.281  16.638  23.553  0.00  0.00    +0.000 C 
ATOM     14  C   UNL     1      -3.544  17.004  22.762  0.00  0.00    +0.000 C 
ATOM     15  C   UNL     1      -4.637  16.143  23.426  0.00  0.00    +0.000 C 
ATOM     16  C   UNL     1      -4.202  16.243  24.889  0.00  0.00    +0.000 C 
ATOM     17  C   UNL     1      -4.452  14.621  23.122  0.00  0.00    +0.000 C 
ATOM     18  C   UNL     1      -4.376  14.329  21.614  0.00  0.00    +0.000 C 
ATOM     19  C   UNL     1      -5.671  13.832  23.656  0.00  0.00    +0.000 C 
ENDBRANCH   6  10
BRANCH   1  23
ATOM     20  C   UNL     1       4.908  15.338  20.983  0.00  0.00    +0.000 C 
ATOM     21  C   UNL     1       3.911  14.510  20.219  0.00  0.00    +0.000 A 
ATOM     22  C   UNL     1       2.960  13.743  20.922  0.00  0.00    +0.000 A 
ATOM     23  C   UNL     1       1.987  12.997  20.241  0.00  0.00    +0.000 A 
ATOM     24  C   UNL     1       1.999  12.971  18.844  0.00  0.00    +0.000 A 
ATOM     25  C   UNL     1       2.961  13.695  18.136  0.00  0.00    +0.000 A 
ATOM     26  C   UNL     1       3.903  14.473  18.817  0.00  0.00    +0.000 A 
ATOM     27 CL   UNL     1       5.049  15.360  17.880  0.00  0.00    +0.000 Cl
ENDBRANCH   1  23
BRANCH   8  28
ATOM     28  C   UNL     1       0.503  10.146  19.563  0.00  0.00    +0.000 C 
BRANCH  28  29
ATOM     29  C   UNL     1       1.387   8.963  19.198  0.00  0.00    +0.000 A 
ATOM     30  C   UNL     1       2.001   8.914  17.936  0.00  0.00    +0.000 A 
ATOM     31  C   UNL     1       2.820   7.839  17.578  0.00  0.00    +0.000 A 
ATOM     32  C   UNL     1       3.068   6.815  18.488  0.00  0.00    +0.000 A 
ATOM     33  C   UNL     1       2.471   6.850  19.744  0.00  0.00    +0.000 A 
ATOM     34  C   UNL     1       1.616   7.903  20.089  0.00  0.00    +0.000 A 
ENDBRANCH  28  29
ENDBRANCH   8  28
TORSDOF 4
ENDMDL
MODEL 6
REMARK VINA RESULT:      -6.8      4.362      7.442
REMARK  Name = 
REMARK  8 active torsions:
REMARK  status: ('A' for Active; 'I' for Inactive)
REMARK    1  A    between atoms: C_1  and  C_2
REMARK    2  A    between atoms: C_4  and  C_5
REMARK    3  A    between atoms: N_10  and  C_11
REMARK    4  A    between atoms: C_12  and  C_13
REMARK    5  A    between atoms: C_18  and  C_19
REMARK    6  A    between atoms: C_18  and  C_20
REMARK    7  A    between atoms: C_22  and  C_23
REMARK    8  A    between atoms: C_23  and  C_24
REMARK                            x       y       z     vdW  Elec       q    Type
REMARK                         _______ _______ _______ _____ _____    ______ ____
ROOT
ATOM      1  C   UNL     1       0.075  12.789  20.751  0.00  0.00    +0.000 C 
ATOM      2  N   UNL     1      -0.831  13.395  21.492  0.00  0.00    +0.000 NA
ATOM      3  N   UNL     1      -1.473  12.419  22.209  0.00  0.00    +0.000 N 
ATOM      4  C   UNL     1      -2.580  12.694  23.031  0.00  0.00    +0.000 C 
ATOM      5  O   UNL     1      -3.192  11.833  23.653  0.00  0.00    +0.000 OA
ATOM      6  N   UNL     1      -2.953  14.027  23.041  0.00  0.00    +0.000 N 
ATOM      7  C   UNL     1      -0.960  11.082  21.931  0.00  0.00    +0.000 C 
ATOM      8  C   UNL     1       0.133  11.276  20.880  0.00  0.00    +0.000 C 
ATOM      9  H   UNL     1      -2.235  14.659  22.703  0.00  0.00    +0.000 HD
ENDROOT
BRANCH   6  10
ATOM     10  C   UNL     1      -4.062  14.564  23.814  0.00  0.00    +0.000 C 
ATOM     11  C   UNL     1      -3.929  16.087  24.170  0.00  0.00    +0.000 C 
ATOM     12  C   UNL     1      -2.970  16.417  25.297  0.00  0.00    +0.000 C 
ATOM     13  C   UNL     1      -3.701  16.924  22.890  0.00  0.00    +0.000 C 
ATOM     14  C   UNL     1      -5.076  16.899  22.209  0.00  0.00    +0.000 C 
ATOM     15  C   UNL     1      -5.916  16.006  23.143  0.00  0.00    +0.000 C 
ATOM     16  C   UNL     1      -5.382  16.465  24.501  0.00  0.00    +0.000 C 
ATOM     17  C   UNL     1      -5.463  14.511  23.090  0.00  0.00    +0.000 C 
ATOM     18  C   UNL     1      -5.464  13.947  21.658  0.00  0.00    +0.000 C 
ATOM     19  C   UNL     1      -6.451  13.639  23.900  0.00  0.00    +0.000 C 
ENDBRANCH   6  10
BRANCH   1  23
ATOM     20  C   UNL     1       1.336  17.066  18.419  0.00  0.00    +0.000 C 
ATOM     21  C   UNL     1       1.625  15.623  18.728  0.00  0.00    +0.000 A 
ATOM     22  C   UNL     1       0.790  14.923  19.623  0.00  0.00    +0.000 A 
ATOM     23  C   UNL     1       1.003  13.564  19.897  0.00  0.00    +0.000 A 
ATOM     24  C   UNL     1       2.095  12.913  19.317  0.00  0.00    +0.000 A 
ATOM     25  C   UNL     1       2.953  13.604  18.461  0.00  0.00    +0.000 A 
ATOM     26  C   UNL     1       2.712  14.948  18.154  0.00  0.00    +0.000 A 
ATOM     27 CL   UNL     1       3.799  15.739  17.070  0.00  0.00    +0.000 Cl
ENDBRANCH   1  23
BRANCH   8  28
ATOM     28  C   UNL     1      -0.140  10.500  19.580  0.00  0.00    +0.000 C 
BRANCH  28  29
ATOM     29  C   UNL     1       0.870   9.409  19.263  0.00  0.00    +0.000 A 
ATOM     30  C   UNL     1       1.209   8.465  20.245  0.00  0.00    +0.000 A 
ATOM     31  C   UNL     1       2.133   7.451  19.977  0.00  0.00    +0.000 A 
ATOM     32  C   UNL     1       2.706   7.342  18.713  0.00  0.00    +0.000 A 
ATOM     33  C   UNL     1       2.379   8.267  17.727  0.00  0.00    +0.000 A 
ATOM     34  C   UNL     1       1.487   9.309  18.005  0.00  0.00    +0.000 A 
ENDBRANCH  28  29
ENDBRANCH   8  28
TORSDOF 4
ENDMDL
MODEL 7
REMARK VINA RESULT:      -6.8      0.745      1.268
REMARK  Name = 
REMARK  8 active torsions:
REMARK  status: ('A' for Active; 'I' for Inactive)
REMARK    1  A    between atoms: C_1  and  C_2
REMARK    2  A    between atoms: C_4  and  C_5
REMARK    3  A    between atoms: N_10  and  C_11
REMARK    4  A    between atoms: C_12  and  C_13
REMARK    5  A    between atoms: C_18  and  C_19
REMARK    6  A    between atoms: C_18  and  C_20
REMARK    7  A    between atoms: C_22  and  C_23
REMARK    8  A    between atoms: C_23  and  C_24
REMARK                            x       y       z     vdW  Elec       q    Type
REMARK                         _______ _______ _______ _____ _____    ______ ____
ROOT
ATOM      1  C   UNL     1       2.539   6.766  19.695  0.00  0.00    +0.000 C 
ATOM      2  N   UNL     1       2.154   8.026  19.662  0.00  0.00    +0.000 NA
ATOM      3  N   UNL     1       1.102   8.141  20.533  0.00  0.00    +0.000 N 
ATOM      4  C   UNL     1       0.368   9.332  20.674  0.00  0.00    +0.000 C 
ATOM      5  O   UNL     1      -0.598   9.448  21.420  0.00  0.00    +0.000 OA
ATOM      6  N   UNL     1       0.805  10.359  19.856  0.00  0.00    +0.000 N 
ATOM      7  C   UNL     1       0.770   6.881  21.190  0.00  0.00    +0.000 C 
ATOM      8  C   UNL     1       1.746   5.854  20.617  0.00  0.00    +0.000 C 
ATOM      9  H   UNL     1       1.741  10.224  19.488  0.00  0.00    +0.000 HD
ENDROOT
BRANCH   6  10
ATOM     10  C   UNL     1       0.215  11.688  19.818  0.00  0.00    +0.000 C 
ATOM     11  C   UNL     1       0.499  12.562  21.089  0.00  0.00    +0.000 C 
ATOM     12  C   UNL     1      -0.320  12.222  22.319  0.00  0.00    +0.000 C 
ATOM     13  C   UNL     1       2.020  12.649  21.356  0.00  0.00    +0.000 C 
ATOM     14  C   UNL     1       2.516  13.580  20.241  0.00  0.00    +0.000 C 
ATOM     15  C   UNL     1       1.238  13.872  19.431  0.00  0.00    +0.000 C 
ATOM     16  C   UNL     1       0.221  13.982  20.569  0.00  0.00    +0.000 C 
ATOM     17  C   UNL     1       0.737  12.613  18.651  0.00  0.00    +0.000 C 
ATOM     18  C   UNL     1       1.825  12.012  17.746  0.00  0.00    +0.000 C 
ATOM     19  C   UNL     1      -0.433  13.010  17.719  0.00  0.00    +0.000 C 
ENDBRANCH   6  10
BRANCH   1  23
ATOM     20  C   UNL     1       5.012   6.383  15.330  0.00  0.00    +0.000 C 
ATOM     21  C   UNL     1       4.920   6.080  16.800  0.00  0.00    +0.000 A 
ATOM     22  C   UNL     1       3.852   6.607  17.553  0.00  0.00    +0.000 A 
ATOM     23  C   UNL     1       3.711   6.306  18.916  0.00  0.00    +0.000 A 
ATOM     24  C   UNL     1       4.677   5.517  19.546  0.00  0.00    +0.000 A 
ATOM     25  C   UNL     1       5.762   5.021  18.820  0.00  0.00    +0.000 A 
ATOM     26  C   UNL     1       5.877   5.287  17.451  0.00  0.00    +0.000 A 
ATOM     27 CL   UNL     1       7.230   4.624  16.609  0.00  0.00    +0.000 Cl
ENDBRANCH   1  23
BRANCH   8  28
ATOM     28  C   UNL     1       1.040   4.678  19.919  0.00  0.00    +0.000 C 
BRANCH  28  29
ATOM     29  C   UNL     1       1.972   3.628  19.337  0.00  0.00    +0.000 A 
ATOM     30  C   UNL     1       1.997   3.408  17.951  0.00  0.00    +0.000 A 
ATOM     31  C   UNL     1       2.849   2.450  17.392  0.00  0.00    +0.000 A 
ATOM     32  C   UNL     1       3.714   1.723  18.205  0.00  0.00    +0.000 A 
ATOM     33  C   UNL     1       3.705   1.932  19.580  0.00  0.00    +0.000 A 
ATOM     34  C   UNL     1       2.824   2.859  20.147  0.00  0.00    +0.000 A 
ENDBRANCH  28  29
ENDBRANCH   8  28
TORSDOF 4
ENDMDL
MODEL 8
REMARK VINA RESULT:      -6.7      1.072      1.640
REMARK  Name = 
REMARK  8 active torsions:
REMARK  status: ('A' for Active; 'I' for Inactive)
REMARK    1  A    between atoms: C_1  and  C_2
REMARK    2  A    between atoms: C_4  and  C_5
REMARK    3  A    between atoms: N_10  and  C_11
REMARK    4  A    between atoms: C_12  and  C_13
REMARK    5  A    between atoms: C_18  and  C_19
REMARK    6  A    between atoms: C_18  and  C_20
REMARK    7  A    between atoms: C_22  and  C_23
REMARK    8  A    between atoms: C_23  and  C_24
REMARK                            x       y       z     vdW  Elec       q    Type
REMARK                         _______ _______ _______ _____ _____    ______ ____
ROOT
ATOM      1  C   UNL     1       2.256   7.207  19.569  0.00  0.00    +0.000 C 
ATOM      2  N   UNL     1       1.905   8.469  19.720  0.00  0.00    +0.000 NA
ATOM      3  N   UNL     1       1.203   8.547  20.894  0.00  0.00    +0.000 N 
ATOM      4  C   UNL     1       0.579   9.732  21.322  0.00  0.00    +0.000 C 
ATOM      5  O   UNL     1      -0.083   9.816  22.350  0.00  0.00    +0.000 OA
ATOM      6  N   UNL     1       0.740  10.795  20.450  0.00  0.00    +0.000 N 
ATOM      7  C   UNL     1       1.084   7.258  21.569  0.00  0.00    +0.000 C 
ATOM      8  C   UNL     1       1.796   6.256  20.661  0.00  0.00    +0.000 C 
ATOM      9  H   UNL     1       1.499  10.674  19.787  0.00  0.00    +0.000 HD
ENDROOT
BRANCH   6  10
ATOM     10  C   UNL     1       0.195  12.126  20.668  0.00  0.00    +0.000 C 
ATOM     11  C   UNL     1       1.067  13.290  20.078  0.00  0.00    +0.000 C 
ATOM     12  C   UNL     1       2.304  13.654  20.877  0.00  0.00    +0.000 C 
ATOM     13  C   UNL     1       1.341  13.052  18.575  0.00  0.00    +0.000 C 
ATOM     14  C   UNL     1      -0.018  13.343  17.924  0.00  0.00    +0.000 C 
ATOM     15  C   UNL     1      -0.927  13.656  19.129  0.00  0.00    +0.000 C 
ATOM     16  C   UNL     1       0.052  14.442  20.004  0.00  0.00    +0.000 C 
ATOM     17  C   UNL     1      -1.209  12.386  19.997  0.00  0.00    +0.000 C 
ATOM     18  C   UNL     1      -1.789  11.227  19.169  0.00  0.00    +0.000 C 
ATOM     19  C   UNL     1      -2.265  12.719  21.077  0.00  0.00    +0.000 C 
ENDBRANCH   6  10
BRANCH   1  23
ATOM     20  C   UNL     1       4.753   3.621  17.073  0.00  0.00    +0.000 C 
ATOM     21  C   UNL     1       4.342   5.062  17.209  0.00  0.00    +0.000 A 
ATOM     22  C   UNL     1       3.461   5.439  18.243  0.00  0.00    +0.000 A 
ATOM     23  C   UNL     1       3.095   6.781  18.426  0.00  0.00    +0.000 A 
ATOM     24  C   UNL     1       3.568   7.747  17.534  0.00  0.00    +0.000 A 
ATOM     25  C   UNL     1       4.410   7.381  16.482  0.00  0.00    +0.000 A 
ATOM     26  C   UNL     1       4.808   6.049  16.328  0.00  0.00    +0.000 A 
ATOM     27 CL   UNL     1       5.868   5.667  15.020  0.00  0.00    +0.000 Cl
ENDBRANCH   1  23
BRANCH   8  28
ATOM     28  C   UNL     1       0.877   5.116  20.187  0.00  0.00    +0.000 C 
BRANCH  28  29
ATOM     29  C   UNL     1       1.591   3.815  19.859  0.00  0.00    +0.000 A 
ATOM     30  C   UNL     1       2.716   3.430  20.605  0.00  0.00    +0.000 A 
ATOM     31  C   UNL     1       3.388   2.236  20.325  0.00  0.00    +0.000 A 
ATOM     32  C   UNL     1       2.925   1.391  19.320  0.00  0.00    +0.000 A 
ATOM     33  C   UNL     1       1.809   1.756  18.574  0.00  0.00    +0.000 A 
ATOM     34  C   UNL     1       1.160   2.970  18.824  0.00  0.00    +0.000 A 
ENDBRANCH  28  29
ENDBRANCH   8  28
TORSDOF 4
ENDMDL
MODEL 9
REMARK VINA RESULT:      -6.7      0.826      1.715
REMARK  Name = 
REMARK  8 active torsions:
REMARK  status: ('A' for Active; 'I' for Inactive)
REMARK    1  A    between atoms: C_1  and  C_2
REMARK    2  A    between atoms: C_4  and  C_5
REMARK    3  A    between atoms: N_10  and  C_11
REMARK    4  A    between atoms: C_12  and  C_13
REMARK    5  A    between atoms: C_18  and  C_19
REMARK    6  A    between atoms: C_18  and  C_20
REMARK    7  A    between atoms: C_22  and  C_23
REMARK    8  A    between atoms: C_23  and  C_24
REMARK                            x       y       z     vdW  Elec       q    Type
REMARK                         _______ _______ _______ _____ _____    ______ ____
ROOT
ATOM      1  C   UNL     1       2.555   6.753  19.648  0.00  0.00    +0.000 C 
ATOM      2  N   UNL     1       2.125   7.999  19.618  0.00  0.00    +0.000 NA
ATOM      3  N   UNL     1       1.147   8.103  20.573  0.00  0.00    +0.000 N 
ATOM      4  C   UNL     1       0.387   9.273  20.747  0.00  0.00    +0.000 C 
ATOM      5  O   UNL     1      -0.516   9.377  21.570  0.00  0.00    +0.000 OA
ATOM      6  N   UNL     1       0.718  10.292  19.872  0.00  0.00    +0.000 N 
ATOM      7  C   UNL     1       0.915   6.851  21.284  0.00  0.00    +0.000 C 
ATOM      8  C   UNL     1       1.874   5.841  20.654  0.00  0.00    +0.000 C 
ATOM      9  H   UNL     1       1.624  10.178  19.429  0.00  0.00    +0.000 HD
ENDROOT
BRANCH   6  10
ATOM     10  C   UNL     1       0.081  11.599  19.853  0.00  0.00    +0.000 C 
ATOM     11  C   UNL     1       0.358  12.476  21.125  0.00  0.00    +0.000 C 
ATOM     12  C   UNL     1      -0.426  12.100  22.366  0.00  0.00    +0.000 C 
ATOM     13  C   UNL     1       1.880  12.615  21.364  0.00  0.00    +0.000 C 
ATOM     14  C   UNL     1       2.322  13.568  20.246  0.00  0.00    +0.000 C 
ATOM     15  C   UNL     1       1.019  13.820  19.462  0.00  0.00    +0.000 C 
ATOM     16  C   UNL     1       0.021  13.888  20.619  0.00  0.00    +0.000 C 
ATOM     17  C   UNL     1       0.548  12.549  18.683  0.00  0.00    +0.000 C 
ATOM     18  C   UNL     1       1.640  11.991  17.754  0.00  0.00    +0.000 C 
ATOM     19  C   UNL     1      -0.652  12.910  17.775  0.00  0.00    +0.000 C 
ENDBRANCH   6  10
BRANCH   1  23
ATOM     20  C   UNL     1       7.318   5.228  19.092  0.00  0.00    +0.000 C 
ATOM     21  C   UNL     1       5.994   5.597  18.482  0.00  0.00    +0.000 A 
ATOM     22  C   UNL     1       4.907   5.918  19.320  0.00  0.00    +0.000 A 
ATOM     23  C   UNL     1       3.672   6.312  18.783  0.00  0.00    +0.000 A 
ATOM     24  C   UNL     1       3.504   6.329  17.396  0.00  0.00    +0.000 A 
ATOM     25  C   UNL     1       4.561   5.974  16.555  0.00  0.00    +0.000 A 
ATOM     26  C   UNL     1       5.804   5.625  17.092  0.00  0.00    +0.000 A 
ATOM     27 CL   UNL     1       7.075   5.219  15.996  0.00  0.00    +0.000 Cl
ENDBRANCH   1  23
BRANCH   8  28
ATOM     28  C   UNL     1       1.153   4.625  20.047  0.00  0.00    +0.000 C 
BRANCH  28  29
ATOM     29  C   UNL     1       2.072   3.565  19.460  0.00  0.00    +0.000 A 
ATOM     30  C   UNL     1       1.869   3.115  18.146  0.00  0.00    +0.000 A 
ATOM     31  C   UNL     1       2.702   2.144  17.584  0.00  0.00    +0.000 A 
ATOM     32  C   UNL     1       3.773   1.634  18.313  0.00  0.00    +0.000 A 
ATOM     33  C   UNL     1       3.991   2.071  19.615  0.00  0.00    +0.000 A 
ATOM     34  C   UNL     1       3.133   3.012  20.195  0.00  0.00    +0.000 A 
ENDBRANCH  28  29
ENDBRANCH   8  28
TORSDOF 4
ENDMDL
