MODEL 1
REMARK VINA RESULT:      -7.3      0.000      0.000
REMARK  Name = 
REMARK  7 active torsions:
REMARK  status: ('A' for Active; 'I' for Inactive)
REMARK    1  A    between atoms: C_1  and  O_2
REMARK    2  A    between atoms: O_2  and  C_3
REMARK    3  A    between atoms: C_3  and  C_5
REMARK    4  A    between atoms: C_6  and  C_7
REMARK    5  A    between atoms: C_8  and  C_9
REMARK    6  A    between atoms: N_12  and  C_13
REMARK    7  A    between atoms: C_13  and  C_14
REMARK                            x       y       z     vdW  Elec       q    Type
REMARK                         _______ _______ _______ _____ _____    ______ ____
ROOT
ATOM      1  C   UNL     1       6.591   5.805  18.165  0.00  0.00    +0.000 A 
ATOM      2  C   UNL     1       6.183   6.749  17.236  0.00  0.00    +0.000 A 
ATOM      3  C   UNL     1       5.025   6.536  16.303  0.00  0.00    +0.000 C 
ATOM      4  N   UNL     1       6.814   7.943  17.089  0.00  0.00    +0.000 NA
ATOM      5  C   UNL     1       7.868   8.218  17.868  0.00  0.00    +0.000 A 
ATOM      6  N   UNL     1       8.533   9.391  17.595  0.00  0.00    +0.000 N 
ATOM      7  N   UNL     1       8.320   7.391  18.804  0.00  0.00    +0.000 NA
ATOM      8  C   UNL     1       7.681   6.210  18.918  0.00  0.00    +0.000 A 
ATOM      9 CL   UNL     1       8.391   5.204  20.127  0.00  0.00    +0.000 Cl
ATOM     10  H   UNL     1       7.978   9.966  16.976  0.00  0.00    +0.000 HD
ENDROOT
BRANCH   1  12
ATOM     11  C   UNL     1       4.994   4.288  19.276  0.00  0.00    +0.000 C 
ATOM     12  C   UNL     1       5.930   4.506  18.342  0.00  0.00    +0.000 C 
BRANCH  11  13
ATOM     13  C   UNL     1       4.382   2.946  19.399  0.00  0.00    +0.000 C 
ATOM     14  O   UNL     1       4.908   1.983  19.930  0.00  0.00    +0.000 OA
BRANCH  13  16
ATOM     15  C   UNL     1       2.964   2.050  17.775  0.00  0.00    +0.000 C 
ATOM     16  O   UNL     1       3.148   2.987  18.838  0.00  0.00    +0.000 OA
ENDBRANCH  13  16
ENDBRANCH  11  13
ENDBRANCH   1  12
BRANCH   6  17
ATOM     17  C   UNL     1       9.170  10.084  18.696  0.00  0.00    +0.000 C 
BRANCH  17  18
ATOM     18  C   UNL     1       9.732  11.395  18.192  0.00  0.00    +0.000 A 
ATOM     19  C   UNL     1       8.913  12.510  17.967  0.00  0.00    +0.000 A 
ATOM     20  C   UNL     1       9.464  13.707  17.501  0.00  0.00    +0.000 A 
ATOM     21  C   UNL     1      10.834  13.804  17.261  0.00  0.00    +0.000 A 
ATOM     22  C   UNL     1      11.659  12.708  17.495  0.00  0.00    +0.000 A 
ATOM     23  C   UNL     1      11.114  11.513  17.961  0.00  0.00    +0.000 A 
ENDBRANCH  17  18
ENDBRANCH   6  17
TORSDOF 5
ENDMDL
MODEL 2
REMARK VINA RESULT:      -6.7      3.806      8.860
REMARK  Name = 
REMARK  7 active torsions:
REMARK  status: ('A' for Active; 'I' for Inactive)
REMARK    1  A    between atoms: C_1  and  O_2
REMARK    2  A    between atoms: O_2  and  C_3
REMARK    3  A    between atoms: C_3  and  C_5
REMARK    4  A    between atoms: C_6  and  C_7
REMARK    5  A    between atoms: C_8  and  C_9
REMARK    6  A    between atoms: N_12  and  C_13
REMARK    7  A    between atoms: C_13  and  C_14
REMARK                            x       y       z     vdW  Elec       q    Type
REMARK                         _______ _______ _______ _____ _____    ______ ____
ROOT
ATOM      1  C   UNL     1       6.690   6.553  17.554  0.00  0.00    +0.000 A 
ATOM      2  C   UNL     1       7.081   5.561  18.440  0.00  0.00    +0.000 A 
ATOM      3  C   UNL     1       8.271   5.692  19.347  0.00  0.00    +0.000 C 
ATOM      4  N   UNL     1       6.419   4.379  18.544  0.00  0.00    +0.000 NA
ATOM      5  C   UNL     1       5.351   4.165  17.766  0.00  0.00    +0.000 A 
ATOM      6  N   UNL     1       4.793   2.909  17.835  0.00  0.00    +0.000 N 
ATOM      7  N   UNL     1       4.883   5.062  16.904  0.00  0.00    +0.000 NA
ATOM      8  C   UNL     1       5.568   6.218  16.815  0.00  0.00    +0.000 A 
ATOM      9 CL   UNL     1       4.896   7.277  15.629  0.00  0.00    +0.000 Cl
ATOM     10  H   UNL     1       5.160   2.413  18.637  0.00  0.00    +0.000 HD
ENDROOT
BRANCH   1  12
ATOM     11  C   UNL     1       7.929   8.485  18.460  0.00  0.00    +0.000 C 
ATOM     12  C   UNL     1       7.390   7.837  17.418  0.00  0.00    +0.000 C 
BRANCH  11  13
ATOM     13  C   UNL     1       8.609   9.782  18.242  0.00  0.00    +0.000 C 
ATOM     14  O   UNL     1       8.273  10.619  17.423  0.00  0.00    +0.000 OA
BRANCH  13  16
ATOM     15  C   UNL     1       9.881  11.197  19.594  0.00  0.00    +0.000 C 
ATOM     16  O   UNL     1       9.642   9.872  19.115  0.00  0.00    +0.000 OA
ENDBRANCH  13  16
ENDBRANCH  11  13
ENDBRANCH   1  12
BRANCH   6  17
ATOM     17  C   UNL     1       3.366   2.786  17.618  0.00  0.00    +0.000 C 
BRANCH  17  18
ATOM     18  C   UNL     1       2.652   2.943  18.942  0.00  0.00    +0.000 A 
ATOM     19  C   UNL     1       3.220   2.494  20.142  0.00  0.00    +0.000 A 
ATOM     20  C   UNL     1       2.534   2.654  21.350  0.00  0.00    +0.000 A 
ATOM     21  C   UNL     1       1.282   3.266  21.372  0.00  0.00    +0.000 A 
ATOM     22  C   UNL     1       0.714   3.728  20.188  0.00  0.00    +0.000 A 
ATOM     23  C   UNL     1       1.396   3.572  18.982  0.00  0.00    +0.000 A 
ENDBRANCH  17  18
ENDBRANCH   6  17
TORSDOF 5
ENDMDL
MODEL 3
REMARK VINA RESULT:      -6.7      2.078      2.656
REMARK  Name = 
REMARK  7 active torsions:
REMARK  status: ('A' for Active; 'I' for Inactive)
REMARK    1  A    between atoms: C_1  and  O_2
REMARK    2  A    between atoms: O_2  and  C_3
REMARK    3  A    between atoms: C_3  and  C_5
REMARK    4  A    between atoms: C_6  and  C_7
REMARK    5  A    between atoms: C_8  and  C_9
REMARK    6  A    between atoms: N_12  and  C_13
REMARK    7  A    between atoms: C_13  and  C_14
REMARK                            x       y       z     vdW  Elec       q    Type
REMARK                         _______ _______ _______ _____ _____    ______ ____
ROOT
ATOM      1  C   UNL     1       5.312   5.753  16.987  0.00  0.00    +0.000 A 
ATOM      2  C   UNL     1       6.638   5.500  16.671  0.00  0.00    +0.000 A 
ATOM      3  C   UNL     1       7.111   4.196  16.095  0.00  0.00    +0.000 C 
ATOM      4  N   UNL     1       7.619   6.417  16.873  0.00  0.00    +0.000 NA
ATOM      5  C   UNL     1       7.296   7.607  17.396  0.00  0.00    +0.000 A 
ATOM      6  N   UNL     1       8.346   8.449  17.682  0.00  0.00    +0.000 N 
ATOM      7  N   UNL     1       6.052   7.953  17.709  0.00  0.00    +0.000 NA
ATOM      8  C   UNL     1       5.103   7.018  17.508  0.00  0.00    +0.000 A 
ATOM      9 CL   UNL     1       3.542   7.566  17.999  0.00  0.00    +0.000 Cl
ATOM     10  H   UNL     1       9.191   8.106  17.245  0.00  0.00    +0.000 HD
ENDROOT
BRANCH   1  12
ATOM     11  C   UNL     1       3.746   4.015  17.771  0.00  0.00    +0.000 C 
ATOM     12  C   UNL     1       4.233   4.778  16.783  0.00  0.00    +0.000 C 
BRANCH  11  13
ATOM     13  C   UNL     1       2.665   3.046  17.483  0.00  0.00    +0.000 C 
ATOM     14  O   UNL     1       2.835   1.884  17.158  0.00  0.00    +0.000 OA
BRANCH  13  16
ATOM     15  C   UNL     1       0.989   3.625  19.002  0.00  0.00    +0.000 C 
ATOM     16  O   UNL     1       1.475   3.672  17.659  0.00  0.00    +0.000 OA
ENDBRANCH  13  16
ENDBRANCH  11  13
ENDBRANCH   1  12
BRANCH   6  17
ATOM     17  C   UNL     1       8.120   9.876  17.584  0.00  0.00    +0.000 C 
BRANCH  17  18
ATOM     18  C   UNL     1       9.201  10.599  18.356  0.00  0.00    +0.000 A 
ATOM     19  C   UNL     1      10.236  11.287  17.707  0.00  0.00    +0.000 A 
ATOM     20  C   UNL     1      11.220  11.945  18.451  0.00  0.00    +0.000 A 
ATOM     21  C   UNL     1      11.177  11.929  19.844  0.00  0.00    +0.000 A 
ATOM     22  C   UNL     1      10.146  11.261  20.499  0.00  0.00    +0.000 A 
ATOM     23  C   UNL     1       9.162  10.604  19.762  0.00  0.00    +0.000 A 
ENDBRANCH  17  18
ENDBRANCH   6  17
TORSDOF 5
ENDMDL
MODEL 4
REMARK VINA RESULT:      -6.6      7.939     10.834
REMARK  Name = 
REMARK  7 active torsions:
REMARK  status: ('A' for Active; 'I' for Inactive)
REMARK    1  A    between atoms: C_1  and  O_2
REMARK    2  A    between atoms: O_2  and  C_3
REMARK    3  A    between atoms: C_3  and  C_5
REMARK    4  A    between atoms: C_6  and  C_7
REMARK    5  A    between atoms: C_8  and  C_9
REMARK    6  A    between atoms: N_12  and  C_13
REMARK    7  A    between atoms: C_13  and  C_14
REMARK                            x       y       z     vdW  Elec       q    Type
REMARK                         _______ _______ _______ _____ _____    ______ ____
ROOT
ATOM      1  C   UNL     1      -0.135  10.342  20.883  0.00  0.00    +0.000 A 
ATOM      2  C   UNL     1       0.184   9.457  21.900  0.00  0.00    +0.000 A 
ATOM      3  C   UNL     1      -0.341   9.591  23.301  0.00  0.00    +0.000 C 
ATOM      4  N   UNL     1       1.015   8.399  21.707  0.00  0.00    +0.000 NA
ATOM      5  C   UNL     1       1.544   8.204  20.492  0.00  0.00    +0.000 A 
ATOM      6  N   UNL     1       2.464   7.186  20.388  0.00  0.00    +0.000 N 
ATOM      7  N   UNL     1       1.280   8.982  19.448  0.00  0.00    +0.000 NA
ATOM      8  C   UNL     1       0.463  10.029  19.674  0.00  0.00    +0.000 A 
ATOM      9 CL   UNL     1       0.239  10.991  18.258  0.00  0.00    +0.000 Cl
ATOM     10  H   UNL     1       2.430   6.605  21.215  0.00  0.00    +0.000 HD
ENDROOT
BRANCH   1  12
ATOM     11  C   UNL     1      -0.572  12.732  21.316  0.00  0.00    +0.000 C 
ATOM     12  C   UNL     1      -1.025  11.495  21.065  0.00  0.00    +0.000 C 
BRANCH  11  13
ATOM     13  C   UNL     1      -1.535  13.841  21.500  0.00  0.00    +0.000 C 
ATOM     14  O   UNL     1      -2.593  13.954  20.905  0.00  0.00    +0.000 OA
BRANCH  13  16
ATOM     15  C   UNL     1      -1.247  14.232  23.783  0.00  0.00    +0.000 C 
ATOM     16  O   UNL     1      -1.042  14.681  22.442  0.00  0.00    +0.000 OA
ENDBRANCH  13  16
ENDBRANCH  11  13
ENDBRANCH   1  12
BRANCH   6  17
ATOM     17  C   UNL     1       2.558   6.481  19.127  0.00  0.00    +0.000 C 
BRANCH  17  18
ATOM     18  C   UNL     1       1.993   5.089  19.299  0.00  0.00    +0.000 A 
ATOM     19  C   UNL     1       1.713   4.266  18.199  0.00  0.00    +0.000 A 
ATOM     20  C   UNL     1       1.191   2.983  18.392  0.00  0.00    +0.000 A 
ATOM     21  C   UNL     1       0.951   2.509  19.681  0.00  0.00    +0.000 A 
ATOM     22  C   UNL     1       1.239   3.312  20.781  0.00  0.00    +0.000 A 
ATOM     23  C   UNL     1       1.760   4.590  20.593  0.00  0.00    +0.000 A 
ENDBRANCH  17  18
ENDBRANCH   6  17
TORSDOF 5
ENDMDL
MODEL 5
REMARK VINA RESULT:      -6.6      0.833      1.292
REMARK  Name = 
REMARK  7 active torsions:
REMARK  status: ('A' for Active; 'I' for Inactive)
REMARK    1  A    between atoms: C_1  and  O_2
REMARK    2  A    between atoms: O_2  and  C_3
REMARK    3  A    between atoms: C_3  and  C_5
REMARK    4  A    between atoms: C_6  and  C_7
REMARK    5  A    between atoms: C_8  and  C_9
REMARK    6  A    between atoms: N_12  and  C_13
REMARK    7  A    between atoms: C_13  and  C_14
REMARK                            x       y       z     vdW  Elec       q    Type
REMARK                         _______ _______ _______ _____ _____    ______ ____
ROOT
ATOM      1  C   UNL     1       6.464   5.865  17.881  0.00  0.00    +0.000 A 
ATOM      2  C   UNL     1       6.172   6.898  17.004  0.00  0.00    +0.000 A 
ATOM      3  C   UNL     1       5.086   6.816  15.970  0.00  0.00    +0.000 C 
ATOM      4  N   UNL     1       6.864   8.067  17.005  0.00  0.00    +0.000 NA
ATOM      5  C   UNL     1       7.861   8.229  17.884  0.00  0.00    +0.000 A 
ATOM      6  N   UNL     1       8.596   9.386  17.761  0.00  0.00    +0.000 N 
ATOM      7  N   UNL     1       8.200   7.309  18.781  0.00  0.00    +0.000 NA
ATOM      8  C   UNL     1       7.505   6.156  18.746  0.00  0.00    +0.000 A 
ATOM      9 CL   UNL     1       8.071   5.025  19.920  0.00  0.00    +0.000 Cl
ATOM     10  H   UNL     1       8.117  10.034  17.149  0.00  0.00    +0.000 HD
ENDROOT
BRANCH   1  12
ATOM     11  C   UNL     1       4.546   4.440  18.497  0.00  0.00    +0.000 C 
ATOM     12  C   UNL     1       5.736   4.590  17.898  0.00  0.00    +0.000 C 
BRANCH  11  13
ATOM     13  C   UNL     1       3.880   3.118  18.481  0.00  0.00    +0.000 C 
ATOM     14  O   UNL     1       4.160   2.203  17.726  0.00  0.00    +0.000 OA
BRANCH  13  16
ATOM     15  C   UNL     1       2.008   2.022  19.344  0.00  0.00    +0.000 C 
ATOM     16  O   UNL     1       2.932   3.107  19.450  0.00  0.00    +0.000 OA
ENDBRANCH  13  16
ENDBRANCH  11  13
ENDBRANCH   1  12
BRANCH   6  17
ATOM     17  C   UNL     1       9.169   9.958  18.961  0.00  0.00    +0.000 C 
BRANCH  17  18
ATOM     18  C   UNL     1       9.966  11.188  18.586  0.00  0.00    +0.000 A 
ATOM     19  C   UNL     1      11.284  11.374  19.026  0.00  0.00    +0.000 A 
ATOM     20  C   UNL     1      11.994  12.522  18.662  0.00  0.00    +0.000 A 
ATOM     21  C   UNL     1      11.399  13.490  17.854  0.00  0.00    +0.000 A 
ATOM     22  C   UNL     1      10.095  13.309  17.400  0.00  0.00    +0.000 A 
ATOM     23  C   UNL     1       9.385  12.165  17.759  0.00  0.00    +0.000 A 
ENDBRANCH  17  18
ENDBRANCH   6  17
TORSDOF 5
ENDMDL
MODEL 6
REMARK VINA RESULT:      -6.6      7.902     10.812
REMARK  Name = 
REMARK  7 active torsions:
REMARK  status: ('A' for Active; 'I' for Inactive)
REMARK    1  A    between atoms: C_1  and  O_2
REMARK    2  A    between atoms: O_2  and  C_3
REMARK    3  A    between atoms: C_3  and  C_5
REMARK    4  A    between atoms: C_6  and  C_7
REMARK    5  A    between atoms: C_8  and  C_9
REMARK    6  A    between atoms: N_12  and  C_13
REMARK    7  A    between atoms: C_13  and  C_14
REMARK                            x       y       z     vdW  Elec       q    Type
REMARK                         _______ _______ _______ _____ _____    ______ ____
ROOT
ATOM      1  C   UNL     1      -0.216  10.354  20.803  0.00  0.00    +0.000 A 
ATOM      2  C   UNL     1       0.117   9.507  21.848  0.00  0.00    +0.000 A 
ATOM      3  C   UNL     1      -0.435   9.659  23.237  0.00  0.00    +0.000 C 
ATOM      4  N   UNL     1       0.988   8.475  21.697  0.00  0.00    +0.000 NA
ATOM      5  C   UNL     1       1.543   8.268  20.496  0.00  0.00    +0.000 A 
ATOM      6  N   UNL     1       2.500   7.281  20.433  0.00  0.00    +0.000 N 
ATOM      7  N   UNL     1       1.269   9.008  19.427  0.00  0.00    +0.000 NA
ATOM      8  C   UNL     1       0.412  10.030  19.612  0.00  0.00    +0.000 A 
ATOM      9 CL   UNL     1       0.176  10.946  18.168  0.00  0.00    +0.000 Cl
ATOM     10  H   UNL     1       2.474   6.721  21.274  0.00  0.00    +0.000 HD
ENDROOT
BRANCH   1  12
ATOM     11  C   UNL     1      -0.751  12.723  21.238  0.00  0.00    +0.000 C 
ATOM     12  C   UNL     1      -1.150  11.478  20.940  0.00  0.00    +0.000 C 
BRANCH  11  13
ATOM     13  C   UNL     1      -1.755  13.802  21.372  0.00  0.00    +0.000 C 
ATOM     14  O   UNL     1      -2.781  13.887  20.719  0.00  0.00    +0.000 OA
BRANCH  13  16
ATOM     15  C   UNL     1      -1.294  14.062  23.645  0.00  0.00    +0.000 C 
ATOM     16  O   UNL     1      -1.342  14.651  22.344  0.00  0.00    +0.000 OA
ENDBRANCH  13  16
ENDBRANCH  11  13
ENDBRANCH   1  12
BRANCH   6  17
ATOM     17  C   UNL     1       2.640   6.547  19.192  0.00  0.00    +0.000 C 
BRANCH  17  18
ATOM     18  C   UNL     1       2.056   5.163  19.372  0.00  0.00    +0.000 A 
ATOM     19  C   UNL     1       1.733   4.660  20.640  0.00  0.00    +0.000 A 
ATOM     20  C   UNL     1       1.194   3.376  20.773  0.00  0.00    +0.000 A 
ATOM     21  C   UNL     1       0.968   2.588  19.645  0.00  0.00    +0.000 A 
ATOM     22  C   UNL     1       1.272   3.084  18.380  0.00  0.00    +0.000 A 
ATOM     23  C   UNL     1       1.807   4.363  18.243  0.00  0.00    +0.000 A 
ENDBRANCH  17  18
ENDBRANCH   6  17
TORSDOF 5
ENDMDL
MODEL 7
REMARK VINA RESULT:      -6.6      7.317     10.099
REMARK  Name = 
REMARK  7 active torsions:
REMARK  status: ('A' for Active; 'I' for Inactive)
REMARK    1  A    between atoms: C_1  and  O_2
REMARK    2  A    between atoms: O_2  and  C_3
REMARK    3  A    between atoms: C_3  and  C_5
REMARK    4  A    between atoms: C_6  and  C_7
REMARK    5  A    between atoms: C_8  and  C_9
REMARK    6  A    between atoms: N_12  and  C_13
REMARK    7  A    between atoms: C_13  and  C_14
REMARK                            x       y       z     vdW  Elec       q    Type
REMARK                         _______ _______ _______ _____ _____    ______ ____
ROOT
ATOM      1  C   UNL     1       0.449   9.622  19.991  0.00  0.00    +0.000 A 
ATOM      2  C   UNL     1       0.431   8.724  21.047  0.00  0.00    +0.000 A 
ATOM      3  C   UNL     1      -0.473   8.873  22.237  0.00  0.00    +0.000 C 
ATOM      4  N   UNL     1       1.249   7.640  21.091  0.00  0.00    +0.000 NA
ATOM      5  C   UNL     1       2.101   7.430  20.080  0.00  0.00    +0.000 A 
ATOM      6  N   UNL     1       2.979   6.382  20.235  0.00  0.00    +0.000 N 
ATOM      7  N   UNL     1       2.176   8.218  19.012  0.00  0.00    +0.000 NA
ATOM      8  C   UNL     1       1.362   9.292  19.004  0.00  0.00    +0.000 A 
ATOM      9 CL   UNL     1       1.589  10.263  17.596  0.00  0.00    +0.000 Cl
ATOM     10  H   UNL     1       2.688   5.801  21.010  0.00  0.00    +0.000 HD
ENDROOT
BRANCH   1  12
ATOM     11  C   UNL     1      -1.522  10.851  19.161  0.00  0.00    +0.000 C 
ATOM     12  C   UNL     1      -0.419  10.804  19.921  0.00  0.00    +0.000 C 
BRANCH  11  13
ATOM     13  C   UNL     1      -2.340  12.085  19.134  0.00  0.00    +0.000 C 
ATOM     14  O   UNL     1      -2.228  13.015  19.913  0.00  0.00    +0.000 OA
BRANCH  13  16
ATOM     15  C   UNL     1      -3.698  10.676  17.860  0.00  0.00    +0.000 C 
ATOM     16  O   UNL     1      -3.208  11.998  18.096  0.00  0.00    +0.000 OA
ENDBRANCH  13  16
ENDBRANCH  11  13
ENDBRANCH   1  12
BRANCH   6  17
ATOM     17  C   UNL     1       3.413   5.677  19.047  0.00  0.00    +0.000 C 
BRANCH  17  18
ATOM     18  C   UNL     1       2.631   4.388  18.928  0.00  0.00    +0.000 A 
ATOM     19  C   UNL     1       2.933   3.431  17.948  0.00  0.00    +0.000 A 
ATOM     20  C   UNL     1       2.190   2.249  17.864  0.00  0.00    +0.000 A 
ATOM     21  C   UNL     1       1.147   2.010  18.757  0.00  0.00    +0.000 A 
ATOM     22  C   UNL     1       0.847   2.947  19.743  0.00  0.00    +0.000 A 
ATOM     23  C   UNL     1       1.586   4.125  19.831  0.00  0.00    +0.000 A 
ENDBRANCH  17  18
ENDBRANCH   6  17
TORSDOF 5
ENDMDL
MODEL 8
REMARK VINA RESULT:      -6.5      7.920     10.569
REMARK  Name = 
REMARK  7 active torsions:
REMARK  status: ('A' for Active; 'I' for Inactive)
REMARK    1  A    between atoms: C_1  and  O_2
REMARK    2  A    between atoms: O_2  and  C_3
REMARK    3  A    between atoms: C_3  and  C_5
REMARK    4  A    between atoms: C_6  and  C_7
REMARK    5  A    between atoms: C_8  and  C_9
REMARK    6  A    between atoms: N_12  and  C_13
REMARK    7  A    between atoms: C_13  and  C_14
REMARK                            x       y       z     vdW  Elec       q    Type
REMARK                         _______ _______ _______ _____ _____    ______ ____
ROOT
ATOM      1  C   UNL     1       0.290  10.882  21.046  0.00  0.00    +0.000 A 
ATOM      2  C   UNL     1       0.556  11.032  19.695  0.00  0.00    +0.000 A 
ATOM      3  C   UNL     1       0.234  12.282  18.927  0.00  0.00    +0.000 C 
ATOM      4  N   UNL     1       1.120  10.044  18.952  0.00  0.00    +0.000 NA
ATOM      5  C   UNL     1       1.431   8.884  19.546  0.00  0.00    +0.000 A 
ATOM      6  N   UNL     1       1.893   7.885  18.721  0.00  0.00    +0.000 N 
ATOM      7  N   UNL     1       1.239   8.653  20.841  0.00  0.00    +0.000 NA
ATOM      8  C   UNL     1       0.667   9.647  21.547  0.00  0.00    +0.000 A 
ATOM      9 CL   UNL     1       0.422   9.208  23.198  0.00  0.00    +0.000 Cl
ATOM     10  H   UNL     1       2.127   8.268  17.814  0.00  0.00    +0.000 HD
ENDROOT
BRANCH   1  12
ATOM     11  C   UNL     1      -1.549  11.816  22.400  0.00  0.00    +0.000 C 
ATOM     12  C   UNL     1      -0.323  11.931  21.871  0.00  0.00    +0.000 C 
BRANCH  11  13
ATOM     13  C   UNL     1      -2.102  12.924  23.211  0.00  0.00    +0.000 C 
ATOM     14  O   UNL     1      -1.543  13.987  23.417  0.00  0.00    +0.000 OA
BRANCH  13  16
ATOM     15  C   UNL     1      -4.036  13.595  24.333  0.00  0.00    +0.000 C 
ATOM     16  O   UNL     1      -3.327  12.553  23.659  0.00  0.00    +0.000 OA
ENDBRANCH  13  16
ENDBRANCH  11  13
ENDBRANCH   1  12
BRANCH   6  17
ATOM     17  C   UNL     1       2.841   6.936  19.267  0.00  0.00    +0.000 C 
BRANCH  17  18
ATOM     18  C   UNL     1       2.191   5.572  19.328  0.00  0.00    +0.000 A 
ATOM     19  C   UNL     1       1.710   5.038  20.532  0.00  0.00    +0.000 A 
ATOM     20  C   UNL     1       1.114   3.774  20.554  0.00  0.00    +0.000 A 
ATOM     21  C   UNL     1       0.987   3.035  19.378  0.00  0.00    +0.000 A 
ATOM     22  C   UNL     1       1.448   3.561  18.175  0.00  0.00    +0.000 A 
ATOM     23  C   UNL     1       2.041   4.822  18.148  0.00  0.00    +0.000 A 
ENDBRANCH  17  18
ENDBRANCH   6  17
TORSDOF 5
ENDMDL
MODEL 9
REMARK VINA RESULT:      -6.5      7.936     10.609
REMARK  Name = 
REMARK  7 active torsions:
REMARK  status: ('A' for Active; 'I' for Inactive)
REMARK    1  A    between atoms: C_1  and  O_2
REMARK    2  A    between atoms: O_2  and  C_3
REMARK    3  A    between atoms: C_3  and  C_5
REMARK    4  A    between atoms: C_6  and  C_7
REMARK    5  A    between atoms: C_8  and  C_9
REMARK    6  A    between atoms: N_12  and  C_13
REMARK    7  A    between atoms: C_13  and  C_14
REMARK                            x       y       z     vdW  Elec       q    Type
REMARK                         _______ _______ _______ _____ _____    ______ ____
ROOT
ATOM      1  C   UNL     1       0.263  10.935  20.985  0.00  0.00    +0.000 A 
ATOM      2  C   UNL     1       0.607  11.080  19.650  0.00  0.00    +0.000 A 
ATOM      3  C   UNL     1       0.349  12.335  18.867  0.00  0.00    +0.000 C 
ATOM      4  N   UNL     1       1.194  10.082  18.939  0.00  0.00    +0.000 NA
ATOM      5  C   UNL     1       1.452   8.918  19.549  0.00  0.00    +0.000 A 
ATOM      6  N   UNL     1       1.942   7.911  18.750  0.00  0.00    +0.000 N 
ATOM      7  N   UNL     1       1.184   8.690  20.830  0.00  0.00    +0.000 NA
ATOM      8  C   UNL     1       0.590   9.694  21.505  0.00  0.00    +0.000 A 
ATOM      9 CL   UNL     1       0.247   9.260  23.139  0.00  0.00    +0.000 Cl
ATOM     10  H   UNL     1       2.233   8.289  17.858  0.00  0.00    +0.000 HD
ENDROOT
BRANCH   1  12
ATOM     11  C   UNL     1      -1.689  12.007  22.046  0.00  0.00    +0.000 C 
ATOM     12  C   UNL     1      -0.377  11.994  21.774  0.00  0.00    +0.000 C 
BRANCH  11  13
ATOM     13  C   UNL     1      -2.262  13.117  22.840  0.00  0.00    +0.000 C 
ATOM     14  O   UNL     1      -1.985  14.295  22.695  0.00  0.00    +0.000 OA
BRANCH  13  16
ATOM     15  C   UNL     1      -4.112  13.535  24.201  0.00  0.00    +0.000 C 
ATOM     16  O   UNL     1      -3.144  12.596  23.727  0.00  0.00    +0.000 OA
ENDBRANCH  13  16
ENDBRANCH  11  13
ENDBRANCH   1  12
BRANCH   6  17
ATOM     17  C   UNL     1       2.842   6.946  19.347  0.00  0.00    +0.000 C 
BRANCH  17  18
ATOM     18  C   UNL     1       2.185   5.584  19.327  0.00  0.00    +0.000 A 
ATOM     19  C   UNL     1       2.066   4.841  18.143  0.00  0.00    +0.000 A 
ATOM     20  C   UNL     1       1.454   3.584  18.158  0.00  0.00    +0.000 A 
ATOM     21  C   UNL     1       0.960   3.056  19.350  0.00  0.00    +0.000 A 
ATOM     22  C   UNL     1       1.085   3.779  20.534  0.00  0.00    +0.000 A 
ATOM     23  C   UNL     1       1.697   5.031  20.523  0.00  0.00    +0.000 A 
ENDBRANCH  17  18
ENDBRANCH   6  17
TORSDOF 5
ENDMDL
