MODEL 1
REMARK VINA RESULT:      -7.1      0.000      0.000
REMARK  Name = 
REMARK  17 active torsions:
REMARK  status: ('A' for Active; 'I' for Inactive)
REMARK    1  A    between atoms: C_1  and  C_2
REMARK    2  A    between atoms: C_2  and  N_3
REMARK    3  A    between atoms: N_3  and  C_4
REMARK    4  A    between atoms: N_3  and  C_6
REMARK    5  A    between atoms: C_4  and  C_5
REMARK    6  A    between atoms: C_9  and  C_10
REMARK    7  A    between atoms: C_11  and  C_12
REMARK    8  A    between atoms: N_15  and  C_16
REMARK    9  A    between atoms: C_16  and  C_17
REMARK   10  A    between atoms: C_17  and  C_18
REMARK   11  A    between atoms: C_18  and  N_19
REMARK   12  A    between atoms: N_19  and  C_20
REMARK   13  A    between atoms: N_19  and  C_22
REMARK   14  A    between atoms: N_19  and  C_24
REMARK   15  A    between atoms: C_20  and  C_21
REMARK   16  A    between atoms: C_22  and  C_23
REMARK   17  A    between atoms: C_24  and  C_25
REMARK                            x       y       z     vdW  Elec       q    Type
REMARK                         _______ _______ _______ _____ _____    ______ ____
ROOT
ATOM      1  C   UNL     1       7.698   7.769  17.891  0.00  0.00    +0.000 A 
ATOM      2  C   UNL     1       6.607   7.427  17.098  0.00  0.00    +0.000 A 
ATOM      3  C   UNL     1       6.022   6.184  17.249  0.00  0.00    +0.000 A 
ATOM      4  N   UNL     1       6.493   5.289  18.157  0.00  0.00    +0.000 N 
ATOM      5  C   UNL     1       7.605   5.590  18.872  0.00  0.00    +0.000 A 
ATOM      6  C   UNL     1       8.220   6.824  18.761  0.00  0.00    +0.000 A 
ENDROOT
BRANCH   1   8
ATOM      7  C   UNL     1       8.949   9.654  18.839  0.00  0.00    +0.000 C 
ATOM      8  C   UNL     1       8.342   9.071  17.799  0.00  0.00    +0.000 C 
BRANCH   7  12
ATOM      9  C   UNL     1      10.567  13.629  18.747  0.00  0.00    +0.000 A 
ATOM     10  C   UNL     1       9.767  13.165  19.800  0.00  0.00    +0.000 A 
ATOM     11  C   UNL     1       9.257  11.867  19.821  0.00  0.00    +0.000 A 
ATOM     12  C   UNL     1       9.520  10.997  18.766  0.00  0.00    +0.000 A 
ATOM     13  C   UNL     1      10.323  11.433  17.709  0.00  0.00    +0.000 A 
ATOM     14  C   UNL     1      10.829  12.736  17.699  0.00  0.00    +0.000 A 
BRANCH   9  15
ATOM     15  N   UNL     1      11.110  14.919  18.734  0.00  0.00    +0.000 N 
BRANCH  15  17
ATOM     16  C   UNL     1      11.520  16.139  20.860  0.00  0.00    +0.000 C 
ATOM     17  C   UNL     1      10.570  15.885  19.701  0.00  0.00    +0.000 C 
ENDBRANCH  15  17
BRANCH  15  18
ATOM     18  C   UNL     1      11.611  15.416  17.436  0.00  0.00    +0.000 C 
ATOM     19  C   UNL     1      10.759  16.539  16.852  0.00  0.00    +0.000 C 
ENDBRANCH  15  18
ENDBRANCH   9  15
ENDBRANCH   7  12
ENDBRANCH   1   8
BRANCH   4  20
ATOM     20  C   UNL     1       5.679   4.063  18.370  0.00  0.00    +0.000 C 
BRANCH  20  21
ATOM     21  C   UNL     1       4.495   3.902  17.433  0.00  0.00    +0.000 C 
BRANCH  21  22
ATOM     22  C   UNL     1       3.191   3.340  18.023  0.00  0.00    +0.000 C 
BRANCH  22  23
ATOM     23  N   UNL     1       2.289   4.289  18.864  0.00  0.00    +0.000 N 
BRANCH  23  24
ATOM     24  C   UNL     1       0.893   3.621  19.085  0.00  0.00    +0.000 C 
ATOM     25  C   UNL     1       0.818   2.153  18.698  0.00  0.00    +0.000 C 
ENDBRANCH  23  24
BRANCH  23  26
ATOM     26  C   UNL     1       2.887   4.700  20.242  0.00  0.00    +0.000 C 
ATOM     27  C   UNL     1       2.226   4.044  21.444  0.00  0.00    +0.000 C 
ENDBRANCH  23  26
BRANCH  23  28
ATOM     28  C   UNL     1       2.130   5.641  18.058  0.00  0.00    +0.000 C 
ATOM     29  C   UNL     1       2.656   6.879  18.768  0.00  0.00    +0.000 C 
ENDBRANCH  23  28
ENDBRANCH  22  23
ENDBRANCH  21  22
ENDBRANCH  20  21
ENDBRANCH   4  20
TORSDOF 12
ENDMDL
MODEL 2
REMARK VINA RESULT:      -6.9      1.200      1.629
REMARK  Name = 
REMARK  17 active torsions:
REMARK  status: ('A' for Active; 'I' for Inactive)
REMARK    1  A    between atoms: C_1  and  C_2
REMARK    2  A    between atoms: C_2  and  N_3
REMARK    3  A    between atoms: N_3  and  C_4
REMARK    4  A    between atoms: N_3  and  C_6
REMARK    5  A    between atoms: C_4  and  C_5
REMARK    6  A    between atoms: C_9  and  C_10
REMARK    7  A    between atoms: C_11  and  C_12
REMARK    8  A    between atoms: N_15  and  C_16
REMARK    9  A    between atoms: C_16  and  C_17
REMARK   10  A    between atoms: C_17  and  C_18
REMARK   11  A    between atoms: C_18  and  N_19
REMARK   12  A    between atoms: N_19  and  C_20
REMARK   13  A    between atoms: N_19  and  C_22
REMARK   14  A    between atoms: N_19  and  C_24
REMARK   15  A    between atoms: C_20  and  C_21
REMARK   16  A    between atoms: C_22  and  C_23
REMARK   17  A    between atoms: C_24  and  C_25
REMARK                            x       y       z     vdW  Elec       q    Type
REMARK                         _______ _______ _______ _____ _____    ______ ____
ROOT
ATOM      1  C   UNL     1       7.063   7.469  17.647  0.00  0.00    +0.000 A 
ATOM      2  C   UNL     1       5.856   7.228  16.997  0.00  0.00    +0.000 A 
ATOM      3  C   UNL     1       5.299   5.964  17.048  0.00  0.00    +0.000 A 
ATOM      4  N   UNL     1       5.907   4.952  17.722  0.00  0.00    +0.000 N 
ATOM      5  C   UNL     1       7.122   5.165  18.286  0.00  0.00    +0.000 A 
ATOM      6  C   UNL     1       7.716   6.414  18.267  0.00  0.00    +0.000 A 
ENDROOT
BRANCH   1   8
ATOM      7  C   UNL     1       8.560   9.165  18.593  0.00  0.00    +0.000 C 
ATOM      8  C   UNL     1       7.689   8.782  17.652  0.00  0.00    +0.000 C 
BRANCH   7  12
ATOM      9  C   UNL     1      10.285  13.087  18.853  0.00  0.00    +0.000 A 
ATOM     10  C   UNL     1      10.620  12.057  19.742  0.00  0.00    +0.000 A 
ATOM     11  C   UNL     1      10.058  10.784  19.639  0.00  0.00    +0.000 A 
ATOM     12  C   UNL     1       9.121  10.514  18.644  0.00  0.00    +0.000 A 
ATOM     13  C   UNL     1       8.778  11.523  17.740  0.00  0.00    +0.000 A 
ATOM     14  C   UNL     1       9.348  12.794  17.853  0.00  0.00    +0.000 A 
BRANCH   9  15
ATOM     15  N   UNL     1      10.868  14.359  18.929  0.00  0.00    +0.000 N 
BRANCH  15  17
ATOM     16  C   UNL     1       9.949  16.353  17.765  0.00  0.00    +0.000 C 
ATOM     17  C   UNL     1       9.958  15.509  19.028  0.00  0.00    +0.000 C 
ENDBRANCH  15  17
BRANCH  15  18
ATOM     18  C   UNL     1      12.168  14.536  18.252  0.00  0.00    +0.000 C 
ATOM     19  C   UNL     1      12.329  13.656  17.016  0.00  0.00    +0.000 C 
ENDBRANCH  15  18
ENDBRANCH   9  15
ENDBRANCH   7  12
ENDBRANCH   1   8
BRANCH   4  20
ATOM     20  C   UNL     1       5.133   3.691  17.873  0.00  0.00    +0.000 C 
BRANCH  20  21
ATOM     21  C   UNL     1       4.673   3.380  19.285  0.00  0.00    +0.000 C 
BRANCH  21  22
ATOM     22  C   UNL     1       3.329   2.652  19.453  0.00  0.00    +0.000 C 
BRANCH  22  23
ATOM     23  N   UNL     1       2.053   3.503  19.719  0.00  0.00    +0.000 N 
BRANCH  23  24
ATOM     24  C   UNL     1       1.174   3.542  18.429  0.00  0.00    +0.000 C 
ATOM     25  C   UNL     1       1.711   4.425  17.314  0.00  0.00    +0.000 C 
ENDBRANCH  23  24
BRANCH  23  26
ATOM     26  C   UNL     1       1.188   3.015  20.919  0.00  0.00    +0.000 C 
ATOM     27  C   UNL     1       1.979   2.642  22.163  0.00  0.00    +0.000 C 
ENDBRANCH  23  26
BRANCH  23  28
ATOM     28  C   UNL     1       2.522   4.963  20.109  0.00  0.00    +0.000 C 
ATOM     29  C   UNL     1       1.459   5.824  20.775  0.00  0.00    +0.000 C 
ENDBRANCH  23  28
ENDBRANCH  22  23
ENDBRANCH  21  22
ENDBRANCH  20  21
ENDBRANCH   4  20
TORSDOF 12
ENDMDL
MODEL 3
REMARK VINA RESULT:      -6.9      1.291      1.717
REMARK  Name = 
REMARK  17 active torsions:
REMARK  status: ('A' for Active; 'I' for Inactive)
REMARK    1  A    between atoms: C_1  and  C_2
REMARK    2  A    between atoms: C_2  and  N_3
REMARK    3  A    between atoms: N_3  and  C_4
REMARK    4  A    between atoms: N_3  and  C_6
REMARK    5  A    between atoms: C_4  and  C_5
REMARK    6  A    between atoms: C_9  and  C_10
REMARK    7  A    between atoms: C_11  and  C_12
REMARK    8  A    between atoms: N_15  and  C_16
REMARK    9  A    between atoms: C_16  and  C_17
REMARK   10  A    between atoms: C_17  and  C_18
REMARK   11  A    between atoms: C_18  and  N_19
REMARK   12  A    between atoms: N_19  and  C_20
REMARK   13  A    between atoms: N_19  and  C_22
REMARK   14  A    between atoms: N_19  and  C_24
REMARK   15  A    between atoms: C_20  and  C_21
REMARK   16  A    between atoms: C_22  and  C_23
REMARK   17  A    between atoms: C_24  and  C_25
REMARK                            x       y       z     vdW  Elec       q    Type
REMARK                         _______ _______ _______ _____ _____    ______ ____
ROOT
ATOM      1  C   UNL     1       7.803   7.194  18.024  0.00  0.00    +0.000 A 
ATOM      2  C   UNL     1       7.310   7.174  16.723  0.00  0.00    +0.000 A 
ATOM      3  C   UNL     1       6.666   6.042  16.258  0.00  0.00    +0.000 A 
ATOM      4  N   UNL     1       6.505   4.949  17.049  0.00  0.00    +0.000 N 
ATOM      5  C   UNL     1       7.055   4.938  18.289  0.00  0.00    +0.000 A 
ATOM      6  C   UNL     1       7.703   6.049  18.800  0.00  0.00    +0.000 A 
ENDROOT
BRANCH   1   8
ATOM      7  C   UNL     1       8.297   9.595  18.089  0.00  0.00    +0.000 C 
ATOM      8  C   UNL     1       8.468   8.363  18.580  0.00  0.00    +0.000 C 
BRANCH   7  12
ATOM      9  C   UNL     1      10.492  12.921  19.687  0.00  0.00    +0.000 A 
ATOM     10  C   UNL     1      10.414  11.685  20.342  0.00  0.00    +0.000 A 
ATOM     11  C   UNL     1       9.705  10.610  19.806  0.00  0.00    +0.000 A 
ATOM     12  C   UNL     1       9.032  10.753  18.595  0.00  0.00    +0.000 A 
ATOM     13  C   UNL     1       9.102  11.973  17.918  0.00  0.00    +0.000 A 
ATOM     14  C   UNL     1       9.815  13.044  18.465  0.00  0.00    +0.000 A 
BRANCH   9  15
ATOM     15  N   UNL     1      11.228  13.995  20.202  0.00  0.00    +0.000 N 
BRANCH  15  17
ATOM     16  C   UNL     1       9.185  14.382  21.563  0.00  0.00    +0.000 C 
ATOM     17  C   UNL     1      10.520  14.930  21.088  0.00  0.00    +0.000 C 
ENDBRANCH  15  17
BRANCH  15  18
ATOM     18  C   UNL     1      12.333  14.506  19.366  0.00  0.00    +0.000 C 
ATOM     19  C   UNL     1      12.090  15.918  18.842  0.00  0.00    +0.000 C 
ENDBRANCH  15  18
ENDBRANCH   9  15
ENDBRANCH   7  12
ENDBRANCH   1   8
BRANCH   4  20
ATOM     20  C   UNL     1       5.636   3.864  16.520  0.00  0.00    +0.000 C 
BRANCH  20  21
ATOM     21  C   UNL     1       4.146   4.151  16.559  0.00  0.00    +0.000 C 
BRANCH  21  22
ATOM     22  C   UNL     1       3.567   4.735  17.858  0.00  0.00    +0.000 C 
BRANCH  22  23
ATOM     23  N   UNL     1       2.977   3.755  18.913  0.00  0.00    +0.000 N 
BRANCH  23  24
ATOM     24  C   UNL     1       1.678   3.098  18.346  0.00  0.00    +0.000 C 
ATOM     25  C   UNL     1       0.579   2.866  19.370  0.00  0.00    +0.000 C 
ENDBRANCH  23  24
BRANCH  23  26
ATOM     26  C   UNL     1       3.958   2.640  19.381  0.00  0.00    +0.000 C 
ATOM     27  C   UNL     1       3.770   1.297  18.691  0.00  0.00    +0.000 C 
ENDBRANCH  23  26
BRANCH  23  28
ATOM     28  C   UNL     1       2.646   4.592  20.214  0.00  0.00    +0.000 C 
ATOM     29  C   UNL     1       2.431   6.081  19.985  0.00  0.00    +0.000 C 
ENDBRANCH  23  28
ENDBRANCH  22  23
ENDBRANCH  21  22
ENDBRANCH  20  21
ENDBRANCH   4  20
TORSDOF 12
ENDMDL
MODEL 4
REMARK VINA RESULT:      -6.8      1.017      1.729
REMARK  Name = 
REMARK  17 active torsions:
REMARK  status: ('A' for Active; 'I' for Inactive)
REMARK    1  A    between atoms: C_1  and  C_2
REMARK    2  A    between atoms: C_2  and  N_3
REMARK    3  A    between atoms: N_3  and  C_4
REMARK    4  A    between atoms: N_3  and  C_6
REMARK    5  A    between atoms: C_4  and  C_5
REMARK    6  A    between atoms: C_9  and  C_10
REMARK    7  A    between atoms: C_11  and  C_12
REMARK    8  A    between atoms: N_15  and  C_16
REMARK    9  A    between atoms: C_16  and  C_17
REMARK   10  A    between atoms: C_17  and  C_18
REMARK   11  A    between atoms: C_18  and  N_19
REMARK   12  A    between atoms: N_19  and  C_20
REMARK   13  A    between atoms: N_19  and  C_22
REMARK   14  A    between atoms: N_19  and  C_24
REMARK   15  A    between atoms: C_20  and  C_21
REMARK   16  A    between atoms: C_22  and  C_23
REMARK   17  A    between atoms: C_24  and  C_25
REMARK                            x       y       z     vdW  Elec       q    Type
REMARK                         _______ _______ _______ _____ _____    ______ ____
ROOT
ATOM      1  C   UNL     1       7.769   7.915  17.811  0.00  0.00    +0.000 A 
ATOM      2  C   UNL     1       6.750   7.620  16.910  0.00  0.00    +0.000 A 
ATOM      3  C   UNL     1       6.120   6.392  16.978  0.00  0.00    +0.000 A 
ATOM      4  N   UNL     1       6.476   5.467  17.908  0.00  0.00    +0.000 N 
ATOM      5  C   UNL     1       7.522   5.723  18.733  0.00  0.00    +0.000 A 
ATOM      6  C   UNL     1       8.179   6.940  18.708  0.00  0.00    +0.000 A 
ENDROOT
BRANCH   1   8
ATOM      7  C   UNL     1       9.018   9.721  18.904  0.00  0.00    +0.000 C 
ATOM      8  C   UNL     1       8.455   9.199  17.808  0.00  0.00    +0.000 C 
BRANCH   7  12
ATOM      9  C   UNL     1      10.739  13.653  18.835  0.00  0.00    +0.000 A 
ATOM     10  C   UNL     1       9.773  13.238  17.909  0.00  0.00    +0.000 A 
ATOM     11  C   UNL     1       9.215  11.959  17.950  0.00  0.00    +0.000 A 
ATOM     12  C   UNL     1       9.630  11.048  18.918  0.00  0.00    +0.000 A 
ATOM     13  C   UNL     1      10.586  11.442  19.858  0.00  0.00    +0.000 A 
ATOM     14  C   UNL     1      11.138  12.725  19.807  0.00  0.00    +0.000 A 
BRANCH   9  15
ATOM     15  N   UNL     1      11.281  14.944  18.821  0.00  0.00    +0.000 N 
BRANCH  15  17
ATOM     16  C   UNL     1       9.646  15.814  20.479  0.00  0.00    +0.000 C 
ATOM     17  C   UNL     1      11.096  15.762  20.028  0.00  0.00    +0.000 C 
ENDBRANCH  15  17
BRANCH  15  18
ATOM     18  C   UNL     1      11.360  15.618  17.509  0.00  0.00    +0.000 C 
ATOM     19  C   UNL     1      11.298  17.139  17.608  0.00  0.00    +0.000 C 
ENDBRANCH  15  18
ENDBRANCH   9  15
ENDBRANCH   7  12
ENDBRANCH   1   8
BRANCH   4  20
ATOM     20  C   UNL     1       5.612   4.262  18.016  0.00  0.00    +0.000 C 
BRANCH  20  21
ATOM     21  C   UNL     1       5.014   4.015  19.390  0.00  0.00    +0.000 C 
BRANCH  21  22
ATOM     22  C   UNL     1       3.748   4.800  19.767  0.00  0.00    +0.000 C 
BRANCH  22  23
ATOM     23  N   UNL     1       2.392   4.038  19.823  0.00  0.00    +0.000 N 
BRANCH  23  24
ATOM     24  C   UNL     1       2.568   2.720  20.644  0.00  0.00    +0.000 C 
ATOM     25  C   UNL     1       1.802   2.676  21.956  0.00  0.00    +0.000 C 
ENDBRANCH  23  24
BRANCH  23  26
ATOM     26  C   UNL     1       1.210   4.861  20.416  0.00  0.00    +0.000 C 
ATOM     27  C   UNL     1       1.559   6.291  20.797  0.00  0.00    +0.000 C 
ENDBRANCH  23  26
BRANCH  23  28
ATOM     28  C   UNL     1       1.965   3.706  18.336  0.00  0.00    +0.000 C 
ATOM     29  C   UNL     1       1.542   2.265  18.094  0.00  0.00    +0.000 C 
ENDBRANCH  23  28
ENDBRANCH  22  23
ENDBRANCH  21  22
ENDBRANCH  20  21
ENDBRANCH   4  20
TORSDOF 12
ENDMDL
MODEL 5
REMARK VINA RESULT:      -6.8      1.783     11.009
REMARK  Name = 
REMARK  17 active torsions:
REMARK  status: ('A' for Active; 'I' for Inactive)
REMARK    1  A    between atoms: C_1  and  C_2
REMARK    2  A    between atoms: C_2  and  N_3
REMARK    3  A    between atoms: N_3  and  C_4
REMARK    4  A    between atoms: N_3  and  C_6
REMARK    5  A    between atoms: C_4  and  C_5
REMARK    6  A    between atoms: C_9  and  C_10
REMARK    7  A    between atoms: C_11  and  C_12
REMARK    8  A    between atoms: N_15  and  C_16
REMARK    9  A    between atoms: C_16  and  C_17
REMARK   10  A    between atoms: C_17  and  C_18
REMARK   11  A    between atoms: C_18  and  N_19
REMARK   12  A    between atoms: N_19  and  C_20
REMARK   13  A    between atoms: N_19  and  C_22
REMARK   14  A    between atoms: N_19  and  C_24
REMARK   15  A    between atoms: C_20  and  C_21
REMARK   16  A    between atoms: C_22  and  C_23
REMARK   17  A    between atoms: C_24  and  C_25
REMARK                            x       y       z     vdW  Elec       q    Type
REMARK                         _______ _______ _______ _____ _____    ______ ____
ROOT
ATOM      1  C   UNL     1       9.411  10.729  18.664  0.00  0.00    +0.000 A 
ATOM      2  C   UNL     1       9.837  10.829  19.984  0.00  0.00    +0.000 A 
ATOM      3  C   UNL     1      10.652  11.881  20.356  0.00  0.00    +0.000 A 
ATOM      4  N   UNL     1      11.045  12.820  19.456  0.00  0.00    +0.000 N 
ATOM      5  C   UNL     1      10.697  12.679  18.152  0.00  0.00    +0.000 A 
ATOM      6  C   UNL     1       9.877  11.646  17.734  0.00  0.00    +0.000 A 
ENDROOT
BRANCH   1   8
ATOM      7  C   UNL     1       8.577   8.423  18.722  0.00  0.00    +0.000 C 
ATOM      8  C   UNL     1       8.531   9.660  18.214  0.00  0.00    +0.000 C 
BRANCH   7  12
ATOM      9  C   UNL     1       6.088   5.306  17.136  0.00  0.00    +0.000 A 
ATOM     10  C   UNL     1       5.972   6.642  16.730  0.00  0.00    +0.000 A 
ATOM     11  C   UNL     1       6.796   7.643  17.248  0.00  0.00    +0.000 A 
ATOM     12  C   UNL     1       7.752   7.331  18.210  0.00  0.00    +0.000 A 
ATOM     13  C   UNL     1       7.892   6.004  18.625  0.00  0.00    +0.000 A 
ATOM     14  C   UNL     1       7.063   5.009  18.099  0.00  0.00    +0.000 A 
BRANCH   9  15
ATOM     15  N   UNL     1       5.289   4.289  16.599  0.00  0.00    +0.000 N 
BRANCH  15  17
ATOM     16  C   UNL     1       3.005   4.404  17.574  0.00  0.00    +0.000 C 
ATOM     17  C   UNL     1       4.322   3.649  17.501  0.00  0.00    +0.000 C 
ENDBRANCH  15  17
BRANCH  15  18
ATOM     18  C   UNL     1       5.874   3.493  15.501  0.00  0.00    +0.000 C 
ATOM     19  C   UNL     1       6.178   4.318  14.254  0.00  0.00    +0.000 C 
ENDBRANCH  15  18
ENDBRANCH   9  15
ENDBRANCH   7  12
ENDBRANCH   1   8
BRANCH   4  20
ATOM     20  C   UNL     1      11.761  14.006  19.997  0.00  0.00    +0.000 C 
BRANCH  20  21
ATOM     21  C   UNL     1      10.868  15.112  20.532  0.00  0.00    +0.000 C 
BRANCH  21  22
ATOM     22  C   UNL     1      10.770  16.408  19.712  0.00  0.00    +0.000 C 
BRANCH  22  23
ATOM     23  N   UNL     1       9.521  16.621  18.808  0.00  0.00    +0.000 N 
BRANCH  23  24
ATOM     24  C   UNL     1       8.929  18.044  19.064  0.00  0.00    +0.000 C 
ATOM     25  C   UNL     1       7.885  18.115  20.167  0.00  0.00    +0.000 C 
ENDBRANCH  23  24
BRANCH  23  26
ATOM     26  C   UNL     1       9.784  16.437  17.285  0.00  0.00    +0.000 C 
ATOM     27  C   UNL     1      11.240  16.193  16.915  0.00  0.00    +0.000 C 
ENDBRANCH  23  26
BRANCH  23  28
ATOM     28  C   UNL     1       8.460  15.509  19.185  0.00  0.00    +0.000 C 
ATOM     29  C   UNL     1       7.719  14.900  18.005  0.00  0.00    +0.000 C 
ENDBRANCH  23  28
ENDBRANCH  22  23
ENDBRANCH  21  22
ENDBRANCH  20  21
ENDBRANCH   4  20
TORSDOF 12
ENDMDL
MODEL 6
REMARK VINA RESULT:      -6.8      0.788      2.278
REMARK  Name = 
REMARK  17 active torsions:
REMARK  status: ('A' for Active; 'I' for Inactive)
REMARK    1  A    between atoms: C_1  and  C_2
REMARK    2  A    between atoms: C_2  and  N_3
REMARK    3  A    between atoms: N_3  and  C_4
REMARK    4  A    between atoms: N_3  and  C_6
REMARK    5  A    between atoms: C_4  and  C_5
REMARK    6  A    between atoms: C_9  and  C_10
REMARK    7  A    between atoms: C_11  and  C_12
REMARK    8  A    between atoms: N_15  and  C_16
REMARK    9  A    between atoms: C_16  and  C_17
REMARK   10  A    between atoms: C_17  and  C_18
REMARK   11  A    between atoms: C_18  and  N_19
REMARK   12  A    between atoms: N_19  and  C_20
REMARK   13  A    between atoms: N_19  and  C_22
REMARK   14  A    between atoms: N_19  and  C_24
REMARK   15  A    between atoms: C_20  and  C_21
REMARK   16  A    between atoms: C_22  and  C_23
REMARK   17  A    between atoms: C_24  and  C_25
REMARK                            x       y       z     vdW  Elec       q    Type
REMARK                         _______ _______ _______ _____ _____    ______ ____
ROOT
ATOM      1  C   UNL     1       7.778   7.882  17.865  0.00  0.00    +0.000 A 
ATOM      2  C   UNL     1       8.113   6.903  18.796  0.00  0.00    +0.000 A 
ATOM      3  C   UNL     1       7.460   5.686  18.764  0.00  0.00    +0.000 A 
ATOM      4  N   UNL     1       6.498   5.426  17.840  0.00  0.00    +0.000 N 
ATOM      5  C   UNL     1       6.115   6.406  16.985  0.00  0.00    +0.000 A 
ATOM      6  C   UNL     1       6.744   7.638  16.974  0.00  0.00    +0.000 A 
ENDROOT
BRANCH   1   8
ATOM      7  C   UNL     1       8.890   9.791  18.930  0.00  0.00    +0.000 C 
ATOM      8  C   UNL     1       8.446   9.175  17.829  0.00  0.00    +0.000 C 
BRANCH   7  12
ATOM      9  C   UNL     1      10.727  13.671  18.933  0.00  0.00    +0.000 A 
ATOM     10  C   UNL     1      11.215  12.606  19.701  0.00  0.00    +0.000 A 
ATOM     11  C   UNL     1      10.613  11.348  19.682  0.00  0.00    +0.000 A 
ATOM     12  C   UNL     1       9.482  11.127  18.900  0.00  0.00    +0.000 A 
ATOM     13  C   UNL     1       8.982  12.171  18.118  0.00  0.00    +0.000 A 
ATOM     14  C   UNL     1       9.593  13.428  18.145  0.00  0.00    +0.000 A 
BRANCH   9  15
ATOM     15  N   UNL     1      11.343  14.929  18.921  0.00  0.00    +0.000 N 
BRANCH  15  17
ATOM     16  C   UNL     1      11.902  16.652  17.219  0.00  0.00    +0.000 C 
ATOM     17  C   UNL     1      12.175  15.257  17.755  0.00  0.00    +0.000 C 
ENDBRANCH  15  17
BRANCH  15  18
ATOM     18  C   UNL     1      11.694  15.510  20.232  0.00  0.00    +0.000 C 
ATOM     19  C   UNL     1      10.493  16.076  20.982  0.00  0.00    +0.000 C 
ENDBRANCH  15  18
ENDBRANCH   9  15
ENDBRANCH   7  12
ENDBRANCH   1   8
BRANCH   4  20
ATOM     20  C   UNL     1       5.996   4.027  17.774  0.00  0.00    +0.000 C 
BRANCH  20  21
ATOM     21  C   UNL     1       4.486   3.884  17.709  0.00  0.00    +0.000 C 
BRANCH  21  22
ATOM     22  C   UNL     1       3.704   3.988  19.028  0.00  0.00    +0.000 C 
BRANCH  22  23
ATOM     23  N   UNL     1       2.287   4.633  19.000  0.00  0.00    +0.000 N 
BRANCH  23  24
ATOM     24  C   UNL     1       1.832   4.953  20.460  0.00  0.00    +0.000 C 
ATOM     25  C   UNL     1       2.244   3.922  21.499  0.00  0.00    +0.000 C 
ENDBRANCH  23  24
BRANCH  23  26
ATOM     26  C   UNL     1       2.179   5.922  18.132  0.00  0.00    +0.000 C 
ATOM     27  C   UNL     1       2.969   7.111  18.657  0.00  0.00    +0.000 C 
ENDBRANCH  23  26
BRANCH  23  28
ATOM     28  C   UNL     1       1.299   3.595  18.331  0.00  0.00    +0.000 C 
ATOM     29  C   UNL     1       1.557   2.138  18.688  0.00  0.00    +0.000 C 
ENDBRANCH  23  28
ENDBRANCH  22  23
ENDBRANCH  21  22
ENDBRANCH  20  21
ENDBRANCH   4  20
TORSDOF 12
ENDMDL
MODEL 7
REMARK VINA RESULT:      -6.8      1.282      2.405
REMARK  Name = 
REMARK  17 active torsions:
REMARK  status: ('A' for Active; 'I' for Inactive)
REMARK    1  A    between atoms: C_1  and  C_2
REMARK    2  A    between atoms: C_2  and  N_3
REMARK    3  A    between atoms: N_3  and  C_4
REMARK    4  A    between atoms: N_3  and  C_6
REMARK    5  A    between atoms: C_4  and  C_5
REMARK    6  A    between atoms: C_9  and  C_10
REMARK    7  A    between atoms: C_11  and  C_12
REMARK    8  A    between atoms: N_15  and  C_16
REMARK    9  A    between atoms: C_16  and  C_17
REMARK   10  A    between atoms: C_17  and  C_18
REMARK   11  A    between atoms: C_18  and  N_19
REMARK   12  A    between atoms: N_19  and  C_20
REMARK   13  A    between atoms: N_19  and  C_22
REMARK   14  A    between atoms: N_19  and  C_24
REMARK   15  A    between atoms: C_20  and  C_21
REMARK   16  A    between atoms: C_22  and  C_23
REMARK   17  A    between atoms: C_24  and  C_25
REMARK                            x       y       z     vdW  Elec       q    Type
REMARK                         _______ _______ _______ _____ _____    ______ ____
ROOT
ATOM      1  C   UNL     1       6.956   7.329  17.357  0.00  0.00    +0.000 A 
ATOM      2  C   UNL     1       7.667   6.138  17.453  0.00  0.00    +0.000 A 
ATOM      3  C   UNL     1       7.026   4.941  17.194  0.00  0.00    +0.000 A 
ATOM      4  N   UNL     1       5.712   4.907  16.845  0.00  0.00    +0.000 N 
ATOM      5  C   UNL     1       4.998   6.060  16.831  0.00  0.00    +0.000 A 
ATOM      6  C   UNL     1       5.598   7.282  17.077  0.00  0.00    +0.000 A 
ENDROOT
BRANCH   1   8
ATOM      7  C   UNL     1       8.472   8.830  18.568  0.00  0.00    +0.000 C 
ATOM      8  C   UNL     1       7.579   8.623  17.593  0.00  0.00    +0.000 C 
BRANCH   7  12
ATOM      9  C   UNL     1      10.067  12.749  19.293  0.00  0.00    +0.000 A 
ATOM     10  C   UNL     1       9.370  12.424  18.122  0.00  0.00    +0.000 A 
ATOM     11  C   UNL     1       8.849  11.148  17.905  0.00  0.00    +0.000 A 
ATOM     12  C   UNL     1       9.032  10.148  18.856  0.00  0.00    +0.000 A 
ATOM     13  C   UNL     1       9.715  10.450  20.037  0.00  0.00    +0.000 A 
ATOM     14  C   UNL     1      10.233  11.732  20.244  0.00  0.00    +0.000 A 
BRANCH   9  15
ATOM     15  N   UNL     1      10.565  14.035  19.534  0.00  0.00    +0.000 N 
BRANCH  15  17
ATOM     16  C   UNL     1       9.954  15.009  21.737  0.00  0.00    +0.000 C 
ATOM     17  C   UNL     1       9.685  14.974  20.243  0.00  0.00    +0.000 C 
ENDBRANCH  15  17
BRANCH  15  18
ATOM     18  C   UNL     1      11.533  14.567  18.554  0.00  0.00    +0.000 C 
ATOM     19  C   UNL     1      12.333  15.754  19.080  0.00  0.00    +0.000 C 
ENDBRANCH  15  18
ENDBRANCH   9  15
ENDBRANCH   7  12
ENDBRANCH   1   8
BRANCH   4  20
ATOM     20  C   UNL     1       5.172   3.593  16.405  0.00  0.00    +0.000 C 
BRANCH  20  21
ATOM     21  C   UNL     1       4.262   2.901  17.404  0.00  0.00    +0.000 C 
BRANCH  21  22
ATOM     22  C   UNL     1       4.184   3.488  18.822  0.00  0.00    +0.000 C 
BRANCH  22  23
ATOM     23  N   UNL     1       2.779   3.769  19.432  0.00  0.00    +0.000 N 
BRANCH  23  24
ATOM     24  C   UNL     1       2.795   5.149  20.163  0.00  0.00    +0.000 C 
ATOM     25  C   UNL     1       2.339   6.327  19.316  0.00  0.00    +0.000 C 
ENDBRANCH  23  24
BRANCH  23  26
ATOM     26  C   UNL     1       1.610   3.742  18.403  0.00  0.00    +0.000 C 
ATOM     27  C   UNL     1       0.546   2.690  18.676  0.00  0.00    +0.000 C 
ENDBRANCH  23  26
BRANCH  23  28
ATOM     28  C   UNL     1       2.459   2.608  20.457  0.00  0.00    +0.000 C 
ATOM     29  C   UNL     1       2.162   3.066  21.877  0.00  0.00    +0.000 C 
ENDBRANCH  23  28
ENDBRANCH  22  23
ENDBRANCH  21  22
ENDBRANCH  20  21
ENDBRANCH   4  20
TORSDOF 12
ENDMDL
MODEL 8
REMARK VINA RESULT:      -6.7      0.890      2.147
REMARK  Name = 
REMARK  17 active torsions:
REMARK  status: ('A' for Active; 'I' for Inactive)
REMARK    1  A    between atoms: C_1  and  C_2
REMARK    2  A    between atoms: C_2  and  N_3
REMARK    3  A    between atoms: N_3  and  C_4
REMARK    4  A    between atoms: N_3  and  C_6
REMARK    5  A    between atoms: C_4  and  C_5
REMARK    6  A    between atoms: C_9  and  C_10
REMARK    7  A    between atoms: C_11  and  C_12
REMARK    8  A    between atoms: N_15  and  C_16
REMARK    9  A    between atoms: C_16  and  C_17
REMARK   10  A    between atoms: C_17  and  C_18
REMARK   11  A    between atoms: C_18  and  N_19
REMARK   12  A    between atoms: N_19  and  C_20
REMARK   13  A    between atoms: N_19  and  C_22
REMARK   14  A    between atoms: N_19  and  C_24
REMARK   15  A    between atoms: C_20  and  C_21
REMARK   16  A    between atoms: C_22  and  C_23
REMARK   17  A    between atoms: C_24  and  C_25
REMARK                            x       y       z     vdW  Elec       q    Type
REMARK                         _______ _______ _______ _____ _____    ______ ____
ROOT
ATOM      1  C   UNL     1       7.603   7.859  17.874  0.00  0.00    +0.000 A 
ATOM      2  C   UNL     1       8.037   6.835  18.710  0.00  0.00    +0.000 A 
ATOM      3  C   UNL     1       7.364   5.628  18.709  0.00  0.00    +0.000 A 
ATOM      4  N   UNL     1       6.287   5.422  17.905  0.00  0.00    +0.000 N 
ATOM      5  C   UNL     1       5.815   6.445  17.151  0.00  0.00    +0.000 A 
ATOM      6  C   UNL     1       6.459   7.669  17.114  0.00  0.00    +0.000 A 
ENDROOT
BRANCH   1   8
ATOM      7  C   UNL     1       8.982   9.646  18.834  0.00  0.00    +0.000 C 
ATOM      8  C   UNL     1       8.282   9.145  17.810  0.00  0.00    +0.000 C 
BRANCH   7  12
ATOM      9  C   UNL     1      10.729  13.567  18.856  0.00  0.00    +0.000 A 
ATOM     10  C   UNL     1      10.062  13.034  19.967  0.00  0.00    +0.000 A 
ATOM     11  C   UNL     1       9.507  11.753  19.948  0.00  0.00    +0.000 A 
ATOM     12  C   UNL     1       9.591  10.974  18.797  0.00  0.00    +0.000 A 
ATOM     13  C   UNL     1      10.259  11.481  17.679  0.00  0.00    +0.000 A 
ATOM     14  C   UNL     1      10.811  12.765  17.709  0.00  0.00    +0.000 A 
BRANCH   9  15
ATOM     15  N   UNL     1      11.316  14.838  18.877  0.00  0.00    +0.000 N 
BRANCH  15  17
ATOM     16  C   UNL     1      10.500  16.278  20.731  0.00  0.00    +0.000 C 
ATOM     17  C   UNL     1      11.627  15.412  20.193  0.00  0.00    +0.000 C 
ENDBRANCH  15  17
BRANCH  15  18
ATOM     18  C   UNL     1      10.970  15.749  17.767  0.00  0.00    +0.000 C 
ATOM     19  C   UNL     1       9.469  15.985  17.627  0.00  0.00    +0.000 C 
ENDBRANCH  15  18
ENDBRANCH   9  15
ENDBRANCH   7  12
ENDBRANCH   1   8
BRANCH   4  20
ATOM     20  C   UNL     1       5.757   4.033  17.842  0.00  0.00    +0.000 C 
BRANCH  20  21
ATOM     21  C   UNL     1       4.887   3.619  19.016  0.00  0.00    +0.000 C 
BRANCH  21  22
ATOM     22  C   UNL     1       3.814   4.612  19.492  0.00  0.00    +0.000 C 
BRANCH  22  23
ATOM     23  N   UNL     1       2.423   4.055  19.910  0.00  0.00    +0.000 N 
BRANCH  23  24
ATOM     24  C   UNL     1       1.604   5.179  20.623  0.00  0.00    +0.000 C 
ATOM     25  C   UNL     1       2.039   6.597  20.289  0.00  0.00    +0.000 C 
ENDBRANCH  23  24
BRANCH  23  26
ATOM     26  C   UNL     1       1.581   3.468  18.739  0.00  0.00    +0.000 C 
ATOM     27  C   UNL     1       1.566   4.318  17.478  0.00  0.00    +0.000 C 
ENDBRANCH  23  26
BRANCH  23  28
ATOM     28  C   UNL     1       2.666   2.843  20.897  0.00  0.00    +0.000 C 
ATOM     29  C   UNL     1       1.566   2.617  21.924  0.00  0.00    +0.000 C 
ENDBRANCH  23  28
ENDBRANCH  22  23
ENDBRANCH  21  22
ENDBRANCH  20  21
ENDBRANCH   4  20
TORSDOF 12
ENDMDL
MODEL 9
REMARK VINA RESULT:      -6.6      1.214      2.527
REMARK  Name = 
REMARK  17 active torsions:
REMARK  status: ('A' for Active; 'I' for Inactive)
REMARK    1  A    between atoms: C_1  and  C_2
REMARK    2  A    between atoms: C_2  and  N_3
REMARK    3  A    between atoms: N_3  and  C_4
REMARK    4  A    between atoms: N_3  and  C_6
REMARK    5  A    between atoms: C_4  and  C_5
REMARK    6  A    between atoms: C_9  and  C_10
REMARK    7  A    between atoms: C_11  and  C_12
REMARK    8  A    between atoms: N_15  and  C_16
REMARK    9  A    between atoms: C_16  and  C_17
REMARK   10  A    between atoms: C_17  and  C_18
REMARK   11  A    between atoms: C_18  and  N_19
REMARK   12  A    between atoms: N_19  and  C_20
REMARK   13  A    between atoms: N_19  and  C_22
REMARK   14  A    between atoms: N_19  and  C_24
REMARK   15  A    between atoms: C_20  and  C_21
REMARK   16  A    between atoms: C_22  and  C_23
REMARK   17  A    between atoms: C_24  and  C_25
REMARK                            x       y       z     vdW  Elec       q    Type
REMARK                         _______ _______ _______ _____ _____    ______ ____
ROOT
ATOM      1  C   UNL     1       7.045   7.254  17.381  0.00  0.00    +0.000 A 
ATOM      2  C   UNL     1       6.029   7.033  16.456  0.00  0.00    +0.000 A 
ATOM      3  C   UNL     1       5.601   5.741  16.215  0.00  0.00    +0.000 A 
ATOM      4  N   UNL     1       6.153   4.683  16.865  0.00  0.00    +0.000 N 
ATOM      5  C   UNL     1       7.197   4.890  17.705  0.00  0.00    +0.000 A 
ATOM      6  C   UNL     1       7.656   6.165  17.983  0.00  0.00    +0.000 A 
ENDROOT
BRANCH   1   8
ATOM      7  C   UNL     1       8.614   8.814  18.439  0.00  0.00    +0.000 C 
ATOM      8  C   UNL     1       7.523   8.592  17.698  0.00  0.00    +0.000 C 
BRANCH   7  12
ATOM      9  C   UNL     1       9.879  12.791  19.444  0.00  0.00    +0.000 A 
ATOM     10  C   UNL     1       9.702  12.369  18.120  0.00  0.00    +0.000 A 
ATOM     11  C   UNL     1       9.280  11.076  17.809  0.00  0.00    +0.000 A 
ATOM     12  C   UNL     1       9.043  10.156  18.827  0.00  0.00    +0.000 A 
ATOM     13  C   UNL     1       9.204  10.556  20.156  0.00  0.00    +0.000 A 
ATOM     14  C   UNL     1       9.626  11.854  20.456  0.00  0.00    +0.000 A 
BRANCH   9  15
ATOM     15  N   UNL     1      10.270  14.096  19.767  0.00  0.00    +0.000 N 
BRANCH  15  17
ATOM     16  C   UNL     1      12.320  15.163  18.851  0.00  0.00    +0.000 C 
ATOM     17  C   UNL     1      10.830  14.916  18.683  0.00  0.00    +0.000 C 
ENDBRANCH  15  17
BRANCH  15  18
ATOM     18  C   UNL     1      10.737  14.328  21.148  0.00  0.00    +0.000 C 
ATOM     19  C   UNL     1       9.955  15.418  21.874  0.00  0.00    +0.000 C 
ENDBRANCH  15  18
ENDBRANCH   9  15
ENDBRANCH   7  12
ENDBRANCH   1   8
BRANCH   4  20
ATOM     20  C   UNL     1       5.494   3.363  16.673  0.00  0.00    +0.000 C 
BRANCH  20  21
ATOM     21  C   UNL     1       4.422   3.022  17.693  0.00  0.00    +0.000 C 
BRANCH  21  22
ATOM     22  C   UNL     1       3.984   4.130  18.664  0.00  0.00    +0.000 C 
BRANCH  22  23
ATOM     23  N   UNL     1       2.608   3.988  19.378  0.00  0.00    +0.000 N 
BRANCH  23  24
ATOM     24  C   UNL     1       2.277   5.313  20.138  0.00  0.00    +0.000 C 
ATOM     25  C   UNL     1       2.594   6.587  19.372  0.00  0.00    +0.000 C 
ENDBRANCH  23  24
BRANCH  23  26
ATOM     26  C   UNL     1       1.423   3.625  18.435  0.00  0.00    +0.000 C 
ATOM     27  C   UNL     1       0.817   2.251  18.676  0.00  0.00    +0.000 C 
ENDBRANCH  23  26
BRANCH  23  28
ATOM     28  C   UNL     1       2.716   2.783  20.396  0.00  0.00    +0.000 C 
ATOM     29  C   UNL     1       2.158   3.060  21.784  0.00  0.00    +0.000 C 
ENDBRANCH  23  28
ENDBRANCH  22  23
ENDBRANCH  21  22
ENDBRANCH  20  21
ENDBRANCH   4  20
TORSDOF 12
ENDMDL
