MODEL 1
REMARK VINA RESULT:      -7.4      0.000      0.000
REMARK  Name = 
REMARK  7 active torsions:
REMARK  status: ('A' for Active; 'I' for Inactive)
REMARK    1  A    between atoms: C_1  and  O_2
REMARK    2  A    between atoms: O_2  and  C_3
REMARK    3  A    between atoms: C_7  and  C_8
REMARK    4  A    between atoms: C_9  and  C_10
REMARK    5  A    between atoms: C_15  and  N_16
REMARK    6  A    between atoms: C_19  and  O_20
REMARK    7  A    between atoms: C_23  and  O_24
REMARK                            x       y       z     vdW  Elec       q    Type
REMARK                         _______ _______ _______ _____ _____    ______ ____
ROOT
ATOM      1  C   UNL     1       1.816   7.214  20.087  0.00  0.00    +0.000 C 
ATOM      2  O   UNL     1       1.580   6.686  21.172  0.00  0.00    +0.000 OA
ATOM      3  N   UNL     1       1.370   8.514  19.805  0.00  0.00    +0.000 N 
ATOM      4  C   UNL     1       0.579   9.228  20.802  0.00  0.00    +0.000 C 
ATOM      5  C   UNL     1      -0.486  10.111  20.149  0.00  0.00    +0.000 C 
ATOM      6  C   UNL     1       0.038  11.025  19.002  0.00  0.00    +0.000 C 
ATOM      7  C   UNL     1       0.919  10.156  18.049  0.00  0.00    +0.000 C 
ATOM      8  C   UNL     1       1.998   9.390  18.814  0.00  0.00    +0.000 C 
ENDROOT
BRANCH   1  15
ATOM      9  C   UNL     1       5.559   5.544  15.762  0.00  0.00    +0.000 A 
ATOM     10  C   UNL     1       4.990   4.272  15.883  0.00  0.00    +0.000 A 
ATOM     11  C   UNL     1       3.956   4.032  16.792  0.00  0.00    +0.000 A 
ATOM     12  C   UNL     1       3.501   5.086  17.596  0.00  0.00    +0.000 A 
ATOM     13  C   UNL     1       2.481   5.228  18.576  0.00  0.00    +0.000 A 
ATOM     14  C   UNL     1       1.528   4.173  19.006  0.00  0.00    +0.000 C 
ATOM     15  C   UNL     1       2.582   6.522  19.060  0.00  0.00    +0.000 A 
ATOM     16  O   UNL     1       3.564   7.200  18.372  0.00  0.00    +0.000 OA
ATOM     17  C   UNL     1       4.122   6.324  17.490  0.00  0.00    +0.000 A 
ATOM     18  C   UNL     1       5.165   6.594  16.603  0.00  0.00    +0.000 A 
BRANCH   9  20
ATOM     19  C   UNL     1       6.978   4.713  14.082  0.00  0.00    +0.000 C 
ATOM     20  O   UNL     1       6.540   5.838  14.846  0.00  0.00    +0.000 OA
ENDBRANCH   9  20
ENDBRANCH   1  15
BRANCH   6  21
ATOM     21  N   UNL     1       0.660  12.310  19.496  0.00  0.00    +0.000 NA
ATOM     22  C   UNL     1      -0.354  13.088  20.253  0.00  0.00    +0.000 C 
ATOM     23  C   UNL     1       0.074  14.507  20.636  0.00  0.00    +0.000 C 
ATOM     24  C   UNL     1       0.560  15.300  19.436  0.00  0.00    +0.000 C 
ATOM     25  C   UNL     1       1.644  14.518  18.721  0.00  0.00    +0.000 C 
ATOM     26  C   UNL     1       1.183  13.105  18.361  0.00  0.00    +0.000 C 
BRANCH  24  27
ATOM     27  O   UNL     1      -0.515  15.615  18.555  0.00  0.00    +0.000 OA
ATOM     28  H   UNL     1      -1.312  15.135  18.836  0.00  0.00    +0.000 HD
ENDBRANCH  24  27
ENDBRANCH   6  21
BRANCH   7  29
ATOM     29  O   UNL     1       0.073   9.246  17.323  0.00  0.00    +0.000 OA
ATOM     30  H   UNL     1      -0.483   8.783  17.978  0.00  0.00    +0.000 HD
ENDBRANCH   7  29
TORSDOF 5
ENDMDL
MODEL 2
REMARK VINA RESULT:      -7.1      2.485      4.365
REMARK  Name = 
REMARK  7 active torsions:
REMARK  status: ('A' for Active; 'I' for Inactive)
REMARK    1  A    between atoms: C_1  and  O_2
REMARK    2  A    between atoms: O_2  and  C_3
REMARK    3  A    between atoms: C_7  and  C_8
REMARK    4  A    between atoms: C_9  and  C_10
REMARK    5  A    between atoms: C_15  and  N_16
REMARK    6  A    between atoms: C_19  and  O_20
REMARK    7  A    between atoms: C_23  and  O_24
REMARK                            x       y       z     vdW  Elec       q    Type
REMARK                         _______ _______ _______ _____ _____    ______ ____
ROOT
ATOM      1  C   UNL     1      -0.261  11.214  19.519  0.00  0.00    +0.000 C 
ATOM      2  O   UNL     1      -1.487  11.178  19.612  0.00  0.00    +0.000 OA
ATOM      3  N   UNL     1       0.424  12.436  19.469  0.00  0.00    +0.000 N 
ATOM      4  C   UNL     1      -0.338  13.681  19.486  0.00  0.00    +0.000 C 
ATOM      5  C   UNL     1       0.320  14.755  18.618  0.00  0.00    +0.000 C 
ATOM      6  C   UNL     1       1.843  14.956  18.870  0.00  0.00    +0.000 C 
ATOM      7  C   UNL     1       2.525  13.551  18.894  0.00  0.00    +0.000 C 
ATOM      8  C   UNL     1       1.826  12.598  19.863  0.00  0.00    +0.000 C 
ENDROOT
BRANCH   1  15
ATOM      9  C   UNL     1       3.253   6.609  18.119  0.00  0.00    +0.000 A 
ATOM     10  C   UNL     1       3.037   6.162  19.427  0.00  0.00    +0.000 A 
ATOM     11  C   UNL     1       2.208   6.871  20.300  0.00  0.00    +0.000 A 
ATOM     12  C   UNL     1       1.602   8.051  19.851  0.00  0.00    +0.000 A 
ATOM     13  C   UNL     1       0.699   8.991  20.420  0.00  0.00    +0.000 A 
ATOM     14  C   UNL     1       0.096   8.916  21.775  0.00  0.00    +0.000 C 
ATOM     15  C   UNL     1       0.529   9.991  19.476  0.00  0.00    +0.000 A 
ATOM     16  O   UNL     1       1.225   9.670  18.331  0.00  0.00    +0.000 OA
ATOM     17  C   UNL     1       1.878   8.498  18.564  0.00  0.00    +0.000 A 
ATOM     18  C   UNL     1       2.711   7.822  17.672  0.00  0.00    +0.000 A 
BRANCH   9  20
ATOM     19  C   UNL     1       4.980   6.721  16.527  0.00  0.00    +0.000 C 
ATOM     20  O   UNL     1       4.017   5.916  17.210  0.00  0.00    +0.000 OA
ENDBRANCH   9  20
ENDBRANCH   1  15
BRANCH   6  21
ATOM     21  N   UNL     1       2.141  15.861  20.042  0.00  0.00    +0.000 NA
ATOM     22  C   UNL     1       1.985  17.278  19.623  0.00  0.00    +0.000 C 
ATOM     23  C   UNL     1       2.457  18.312  20.649  0.00  0.00    +0.000 C 
ATOM     24  C   UNL     1       3.881  18.051  21.108  0.00  0.00    +0.000 C 
ATOM     25  C   UNL     1       3.998  16.621  21.598  0.00  0.00    +0.000 C 
ATOM     26  C   UNL     1       3.511  15.619  20.550  0.00  0.00    +0.000 C 
BRANCH  24  27
ATOM     27  O   UNL     1       4.817  18.318  20.067  0.00  0.00    +0.000 OA
ATOM     28  H   UNL     1       5.381  19.065  20.326  0.00  0.00    +0.000 HD
ENDBRANCH  24  27
ENDBRANCH   6  21
BRANCH   7  29
ATOM     29  O   UNL     1       2.527  13.005  17.563  0.00  0.00    +0.000 OA
ATOM     30  H   UNL     1       3.044  12.177  17.590  0.00  0.00    +0.000 HD
ENDBRANCH   7  29
TORSDOF 5
ENDMDL
MODEL 3
REMARK VINA RESULT:      -7.0      2.553      4.454
REMARK  Name = 
REMARK  7 active torsions:
REMARK  status: ('A' for Active; 'I' for Inactive)
REMARK    1  A    between atoms: C_1  and  O_2
REMARK    2  A    between atoms: O_2  and  C_3
REMARK    3  A    between atoms: C_7  and  C_8
REMARK    4  A    between atoms: C_9  and  C_10
REMARK    5  A    between atoms: C_15  and  N_16
REMARK    6  A    between atoms: C_19  and  O_20
REMARK    7  A    between atoms: C_23  and  O_24
REMARK                            x       y       z     vdW  Elec       q    Type
REMARK                         _______ _______ _______ _____ _____    ______ ____
ROOT
ATOM      1  C   UNL     1       1.912   9.064  18.458  0.00  0.00    +0.000 C 
ATOM      2  O   UNL     1       2.130   9.604  17.375  0.00  0.00    +0.000 OA
ATOM      3  N   UNL     1       1.192   9.726  19.463  0.00  0.00    +0.000 N 
ATOM      4  C   UNL     1       0.736  11.093  19.229  0.00  0.00    +0.000 C 
ATOM      5  C   UNL     1       0.783  11.929  20.509  0.00  0.00    +0.000 C 
ATOM      6  C   UNL     1       0.125  11.259  21.751  0.00  0.00    +0.000 C 
ATOM      7  C   UNL     1       0.643   9.789  21.846  0.00  0.00    +0.000 C 
ATOM      8  C   UNL     1       0.462   9.036  20.528  0.00  0.00    +0.000 C 
ENDROOT
BRANCH   1  15
ATOM      9  C   UNL     1       2.920   3.584  20.570  0.00  0.00    +0.000 A 
ATOM     10  C   UNL     1       3.825   3.440  19.514  0.00  0.00    +0.000 A 
ATOM     11  C   UNL     1       4.057   4.488  18.619  0.00  0.00    +0.000 A 
ATOM     12  C   UNL     1       3.356   5.690  18.787  0.00  0.00    +0.000 A 
ATOM     13  C   UNL     1       3.352   6.946  18.121  0.00  0.00    +0.000 A 
ATOM     14  C   UNL     1       4.212   7.331  16.973  0.00  0.00    +0.000 C 
ATOM     15  C   UNL     1       2.372   7.710  18.734  0.00  0.00    +0.000 A 
ATOM     16  O   UNL     1       1.830   7.009  19.789  0.00  0.00    +0.000 OA
ATOM     17  C   UNL     1       2.425   5.784  19.813  0.00  0.00    +0.000 A 
ATOM     18  C   UNL     1       2.159   4.752  20.715  0.00  0.00    +0.000 A 
BRANCH   9  20
ATOM     19  C   UNL     1       1.336   2.477  21.910  0.00  0.00    +0.000 C 
ATOM     20  O   UNL     1       2.700   2.599  21.503  0.00  0.00    +0.000 OA
ENDBRANCH   9  20
ENDBRANCH   1  15
BRANCH   6  21
ATOM     21  N   UNL     1      -1.374  11.441  21.805  0.00  0.00    +0.000 NA
ATOM     22  C   UNL     1      -1.777  12.500  20.845  0.00  0.00    +0.000 C 
ATOM     23  C   UNL     1      -3.241  12.937  20.941  0.00  0.00    +0.000 C 
ATOM     24  C   UNL     1      -3.628  13.331  22.356  0.00  0.00    +0.000 C 
ATOM     25  C   UNL     1      -3.273  12.205  23.307  0.00  0.00    +0.000 C 
ATOM     26  C   UNL     1      -1.806  11.792  23.178  0.00  0.00    +0.000 C 
BRANCH  24  27
ATOM     27  O   UNL     1      -3.000  14.551  22.742  0.00  0.00    +0.000 OA
ATOM     28  H   UNL     1      -2.679  14.471  23.656  0.00  0.00    +0.000 HD
ENDBRANCH  24  27
ENDBRANCH   6  21
BRANCH   7  29
ATOM     29  O   UNL     1       2.030   9.802  22.233  0.00  0.00    +0.000 OA
ATOM     30  H   UNL     1       2.147  10.537  22.865  0.00  0.00    +0.000 HD
ENDBRANCH   7  29
TORSDOF 5
ENDMDL
MODEL 4
REMARK VINA RESULT:      -6.9      2.774      4.464
REMARK  Name = 
REMARK  7 active torsions:
REMARK  status: ('A' for Active; 'I' for Inactive)
REMARK    1  A    between atoms: C_1  and  O_2
REMARK    2  A    between atoms: O_2  and  C_3
REMARK    3  A    between atoms: C_7  and  C_8
REMARK    4  A    between atoms: C_9  and  C_10
REMARK    5  A    between atoms: C_15  and  N_16
REMARK    6  A    between atoms: C_19  and  O_20
REMARK    7  A    between atoms: C_23  and  O_24
REMARK                            x       y       z     vdW  Elec       q    Type
REMARK                         _______ _______ _______ _____ _____    ______ ____
ROOT
ATOM      1  C   UNL     1       4.953   4.343  18.870  0.00  0.00    +0.000 C 
ATOM      2  O   UNL     1       5.366   3.527  19.692  0.00  0.00    +0.000 OA
ATOM      3  N   UNL     1       3.932   5.246  19.199  0.00  0.00    +0.000 N 
ATOM      4  C   UNL     1       3.324   5.182  20.525  0.00  0.00    +0.000 C 
ATOM      5  C   UNL     1       1.831   5.511  20.475  0.00  0.00    +0.000 C 
ATOM      6  C   UNL     1       1.474   6.808  19.691  0.00  0.00    +0.000 C 
ATOM      7  C   UNL     1       2.238   6.782  18.329  0.00  0.00    +0.000 C 
ATOM      8  C   UNL     1       3.733   6.529  18.522  0.00  0.00    +0.000 C 
ENDROOT
BRANCH   1  15
ATOM      9  C   UNL     1       6.274   3.861  13.080  0.00  0.00    +0.000 A 
ATOM     10  C   UNL     1       7.325   4.748  13.337  0.00  0.00    +0.000 A 
ATOM     11  C   UNL     1       7.556   5.232  14.628  0.00  0.00    +0.000 A 
ATOM     12  C   UNL     1       6.709   4.824  15.666  0.00  0.00    +0.000 A 
ATOM     13  C   UNL     1       6.654   5.068  17.066  0.00  0.00    +0.000 A 
ATOM     14  C   UNL     1       7.613   5.887  17.850  0.00  0.00    +0.000 C 
ATOM     15  C   UNL     1       5.521   4.420  17.531  0.00  0.00    +0.000 A 
ATOM     16  O   UNL     1       4.923   3.732  16.499  0.00  0.00    +0.000 OA
ATOM     17  C   UNL     1       5.643   3.984  15.370  0.00  0.00    +0.000 A 
ATOM     18  C   UNL     1       5.375   3.494  14.091  0.00  0.00    +0.000 A 
BRANCH   9  20
ATOM     19  C   UNL     1       4.660   3.110  11.545  0.00  0.00    +0.000 C 
ATOM     20  O   UNL     1       6.042   3.320  11.838  0.00  0.00    +0.000 OA
ENDBRANCH   9  20
ENDBRANCH   1  15
BRANCH   6  21
ATOM     21  N   UNL     1       1.623   8.065  20.514  0.00  0.00    +0.000 NA
ATOM     22  C   UNL     1       0.693   8.011  21.671  0.00  0.00    +0.000 C 
ATOM     23  C   UNL     1       0.585   9.308  22.477  0.00  0.00    +0.000 C 
ATOM     24  C   UNL     1       0.262  10.502  21.596  0.00  0.00    +0.000 C 
ATOM     25  C   UNL     1       1.267  10.579  20.463  0.00  0.00    +0.000 C 
ATOM     26  C   UNL     1       1.352   9.264  19.687  0.00  0.00    +0.000 C 
BRANCH  24  27
ATOM     27  O   UNL     1      -1.072  10.430  21.098  0.00  0.00    +0.000 OA
ATOM     28  H   UNL     1      -1.084  10.721  20.170  0.00  0.00    +0.000 HD
ENDBRANCH  24  27
ENDBRANCH   6  21
BRANCH   7  29
ATOM     29  O   UNL     1       1.660   5.771  17.483  0.00  0.00    +0.000 OA
ATOM     30  H   UNL     1       1.195   6.231  16.758  0.00  0.00    +0.000 HD
ENDBRANCH   7  29
TORSDOF 5
ENDMDL
MODEL 5
REMARK VINA RESULT:      -6.8      4.695      7.503
REMARK  Name = 
REMARK  7 active torsions:
REMARK  status: ('A' for Active; 'I' for Inactive)
REMARK    1  A    between atoms: C_1  and  O_2
REMARK    2  A    between atoms: O_2  and  C_3
REMARK    3  A    between atoms: C_7  and  C_8
REMARK    4  A    between atoms: C_9  and  C_10
REMARK    5  A    between atoms: C_15  and  N_16
REMARK    6  A    between atoms: C_19  and  O_20
REMARK    7  A    between atoms: C_23  and  O_24
REMARK                            x       y       z     vdW  Elec       q    Type
REMARK                         _______ _______ _______ _____ _____    ______ ____
ROOT
ATOM      1  C   UNL     1       0.712  11.969  20.768  0.00  0.00    +0.000 C 
ATOM      2  O   UNL     1       0.668  11.542  21.921  0.00  0.00    +0.000 OA
ATOM      3  N   UNL     1       1.686  12.899  20.380  0.00  0.00    +0.000 N 
ATOM      4  C   UNL     1       2.633  13.397  21.373  0.00  0.00    +0.000 C 
ATOM      5  C   UNL     1       2.986  14.865  21.128  0.00  0.00    +0.000 C 
ATOM      6  C   UNL     1       3.390  15.203  19.662  0.00  0.00    +0.000 C 
ATOM      7  C   UNL     1       2.338  14.559  18.704  0.00  0.00    +0.000 C 
ATOM      8  C   UNL     1       2.138  13.072  18.997  0.00  0.00    +0.000 C 
ENDROOT
BRANCH   1  15
ATOM      9  C   UNL     1      -3.936  11.009  17.164  0.00  0.00    +0.000 A 
ATOM     10  C   UNL     1      -3.127  10.067  16.519  0.00  0.00    +0.000 A 
ATOM     11  C   UNL     1      -1.828   9.809  16.967  0.00  0.00    +0.000 A 
ATOM     12  C   UNL     1      -1.338  10.521  18.070  0.00  0.00    +0.000 A 
ATOM     13  C   UNL     1      -0.123  10.508  18.808  0.00  0.00    +0.000 A 
ATOM     14  C   UNL     1       1.036   9.610  18.570  0.00  0.00    +0.000 C 
ATOM     15  C   UNL     1      -0.231  11.512  19.757  0.00  0.00    +0.000 A 
ATOM     16  O   UNL     1      -1.481  12.087  19.683  0.00  0.00    +0.000 OA
ATOM     17  C   UNL     1      -2.146  11.487  18.656  0.00  0.00    +0.000 A 
ATOM     18  C   UNL     1      -3.441  11.779  18.226  0.00  0.00    +0.000 A 
BRANCH   9  20
ATOM     19  C   UNL     1      -6.139  11.392  17.889  0.00  0.00    +0.000 C 
ATOM     20  O   UNL     1      -5.235  11.256  16.791  0.00  0.00    +0.000 OA
ENDBRANCH   9  20
ENDBRANCH   1  15
BRANCH   6  21
ATOM     21  N   UNL     1       4.839  14.904  19.357  0.00  0.00    +0.000 NA
ATOM     22  C   UNL     1       5.706  15.626  20.324  0.00  0.00    +0.000 C 
ATOM     23  C   UNL     1       7.203  15.583  20.008  0.00  0.00    +0.000 C 
ATOM     24  C   UNL     1       7.500  16.040  18.590  0.00  0.00    +0.000 C 
ATOM     25  C   UNL     1       6.657  15.241  17.616  0.00  0.00    +0.000 C 
ATOM     26  C   UNL     1       5.170  15.300  17.968  0.00  0.00    +0.000 C 
BRANCH  24  27
ATOM     27  O   UNL     1       7.274  17.439  18.440  0.00  0.00    +0.000 OA
ATOM     28  H   UNL     1       7.952  17.929  18.934  0.00  0.00    +0.000 HD
ENDBRANCH  24  27
ENDBRANCH   6  21
BRANCH   7  29
ATOM     29  O   UNL     1       1.092  15.269  18.826  0.00  0.00    +0.000 OA
ATOM     30  H   UNL     1       1.304  16.222  18.851  0.00  0.00    +0.000 HD
ENDBRANCH   7  29
TORSDOF 5
ENDMDL
MODEL 6
REMARK VINA RESULT:      -6.8      4.247      6.694
REMARK  Name = 
REMARK  7 active torsions:
REMARK  status: ('A' for Active; 'I' for Inactive)
REMARK    1  A    between atoms: C_1  and  O_2
REMARK    2  A    between atoms: O_2  and  C_3
REMARK    3  A    between atoms: C_7  and  C_8
REMARK    4  A    between atoms: C_9  and  C_10
REMARK    5  A    between atoms: C_15  and  N_16
REMARK    6  A    between atoms: C_19  and  O_20
REMARK    7  A    between atoms: C_23  and  O_24
REMARK                            x       y       z     vdW  Elec       q    Type
REMARK                         _______ _______ _______ _____ _____    ______ ____
ROOT
ATOM      1  C   UNL     1       0.660  13.248  21.495  0.00  0.00    +0.000 C 
ATOM      2  O   UNL     1       1.481  14.149  21.658  0.00  0.00    +0.000 OA
ATOM      3  N   UNL     1      -0.624  13.332  22.052  0.00  0.00    +0.000 N 
ATOM      4  C   UNL     1      -0.972  14.489  22.871  0.00  0.00    +0.000 C 
ATOM      5  C   UNL     1      -1.905  14.105  24.021  0.00  0.00    +0.000 C 
ATOM      6  C   UNL     1      -3.137  13.249  23.603  0.00  0.00    +0.000 C 
ATOM      7  C   UNL     1      -2.638  12.092  22.680  0.00  0.00    +0.000 C 
ATOM      8  C   UNL     1      -1.787  12.615  21.523  0.00  0.00    +0.000 C 
ENDROOT
BRANCH   1  15
ATOM      9  C   UNL     1       1.891   7.802  19.414  0.00  0.00    +0.000 A 
ATOM     10  C   UNL     1       1.934   8.393  18.147  0.00  0.00    +0.000 A 
ATOM     11  C   UNL     1       1.731   9.767  17.988  0.00  0.00    +0.000 A 
ATOM     12  C   UNL     1       1.470  10.548  19.121  0.00  0.00    +0.000 A 
ATOM     13  C   UNL     1       1.254  11.935  19.352  0.00  0.00    +0.000 A 
ATOM     14  C   UNL     1       1.287  13.008  18.325  0.00  0.00    +0.000 C 
ATOM     15  C   UNL     1       0.980  12.068  20.703  0.00  0.00    +0.000 A 
ATOM     16  O   UNL     1       1.091  10.843  21.322  0.00  0.00    +0.000 OA
ATOM     17  C   UNL     1       1.382   9.924  20.360  0.00  0.00    +0.000 A 
ATOM     18  C   UNL     1       1.565   8.554  20.551  0.00  0.00    +0.000 A 
BRANCH   9  20
ATOM     19  C   UNL     1       3.336   5.992  19.008  0.00  0.00    +0.000 C 
ATOM     20  O   UNL     1       2.137   6.466  19.622  0.00  0.00    +0.000 OA
ENDBRANCH   9  20
ENDBRANCH   1  15
BRANCH   6  21
ATOM     21  N   UNL     1      -4.287  14.072  23.074  0.00  0.00    +0.000 NA
ATOM     22  C   UNL     1      -4.712  15.048  24.111  0.00  0.00    +0.000 C 
ATOM     23  C   UNL     1      -6.002  15.809  23.793  0.00  0.00    +0.000 C 
ATOM     24  C   UNL     1      -7.147  14.872  23.449  0.00  0.00    +0.000 C 
ATOM     25  C   UNL     1      -6.714  13.933  22.340  0.00  0.00    +0.000 C 
ATOM     26  C   UNL     1      -5.419  13.198  22.690  0.00  0.00    +0.000 C 
BRANCH  24  27
ATOM     27  O   UNL     1      -7.585  14.148  24.596  0.00  0.00    +0.000 OA
ATOM     28  H   UNL     1      -8.497  14.406  24.811  0.00  0.00    +0.000 HD
ENDBRANCH  24  27
ENDBRANCH   6  21
BRANCH   7  29
ATOM     29  O   UNL     1      -1.890  11.148  23.469  0.00  0.00    +0.000 OA
ATOM     30  H   UNL     1      -2.484  10.398  23.663  0.00  0.00    +0.000 HD
ENDBRANCH   7  29
TORSDOF 5
ENDMDL
MODEL 7
REMARK VINA RESULT:      -6.7      1.079      1.189
REMARK  Name = 
REMARK  7 active torsions:
REMARK  status: ('A' for Active; 'I' for Inactive)
REMARK    1  A    between atoms: C_1  and  O_2
REMARK    2  A    between atoms: O_2  and  C_3
REMARK    3  A    between atoms: C_7  and  C_8
REMARK    4  A    between atoms: C_9  and  C_10
REMARK    5  A    between atoms: C_15  and  N_16
REMARK    6  A    between atoms: C_19  and  O_20
REMARK    7  A    between atoms: C_23  and  O_24
REMARK                            x       y       z     vdW  Elec       q    Type
REMARK                         _______ _______ _______ _____ _____    ______ ____
ROOT
ATOM      1  C   UNL     1       1.595   7.678  20.361  0.00  0.00    +0.000 C 
ATOM      2  O   UNL     1       1.328   7.214  21.469  0.00  0.00    +0.000 OA
ATOM      3  N   UNL     1       1.199   8.975  20.007  0.00  0.00    +0.000 N 
ATOM      4  C   UNL     1       0.421   9.767  20.955  0.00  0.00    +0.000 C 
ATOM      5  C   UNL     1      -0.604  10.651  20.243  0.00  0.00    +0.000 C 
ATOM      6  C   UNL     1      -0.035  11.486  19.059  0.00  0.00    +0.000 C 
ATOM      7  C   UNL     1       0.827  10.540  18.163  0.00  0.00    +0.000 C 
ATOM      8  C   UNL     1       1.869   9.778  18.981  0.00  0.00    +0.000 C 
ENDROOT
BRANCH   1  15
ATOM      9  C   UNL     1       5.187   5.701  16.037  0.00  0.00    +0.000 A 
ATOM     10  C   UNL     1       4.728   4.421  16.363  0.00  0.00    +0.000 A 
ATOM     11  C   UNL     1       3.774   4.235  17.367  0.00  0.00    +0.000 A 
ATOM     12  C   UNL     1       3.288   5.354  18.056  0.00  0.00    +0.000 A 
ATOM     13  C   UNL     1       2.321   5.556  19.079  0.00  0.00    +0.000 A 
ATOM     14  C   UNL     1       1.482   4.506  19.710  0.00  0.00    +0.000 C 
ATOM     15  C   UNL     1       2.349   6.908  19.382  0.00  0.00    +0.000 A 
ATOM     16  O   UNL     1       3.231   7.552  18.543  0.00  0.00    +0.000 OA
ATOM     17  C   UNL     1       3.802   6.607  17.745  0.00  0.00    +0.000 A 
ATOM     18  C   UNL     1       4.765   6.826  16.760  0.00  0.00    +0.000 A 
BRANCH   9  20
ATOM     19  C   UNL     1       6.709   4.756  14.514  0.00  0.00    +0.000 C 
ATOM     20  O   UNL     1       6.085   5.936  15.023  0.00  0.00    +0.000 OA
ENDBRANCH   9  20
ENDBRANCH   1  15
BRANCH   6  21
ATOM     21  N   UNL     1       0.625  12.772  19.495  0.00  0.00    +0.000 NA
ATOM     22  C   UNL     1       0.250  13.862  18.558  0.00  0.00    +0.000 C 
ATOM     23  C   UNL     1       1.010  15.176  18.756  0.00  0.00    +0.000 C 
ATOM     24  C   UNL     1       2.515  14.971  18.752  0.00  0.00    +0.000 C 
ATOM     25  C   UNL     1       2.881  13.906  19.767  0.00  0.00    +0.000 C 
ATOM     26  C   UNL     1       2.097  12.612  19.542  0.00  0.00    +0.000 C 
BRANCH  24  27
ATOM     27  O   UNL     1       2.986  14.627  17.451  0.00  0.00    +0.000 OA
ATOM     28  H   UNL     1       2.466  15.106  16.784  0.00  0.00    +0.000 HD
ENDBRANCH  24  27
ENDBRANCH   6  21
BRANCH   7  29
ATOM     29  O   UNL     1      -0.041   9.623  17.473  0.00  0.00    +0.000 OA
ATOM     30  H   UNL     1      -0.870   9.568  17.986  0.00  0.00    +0.000 HD
ENDBRANCH   7  29
TORSDOF 5
ENDMDL
MODEL 8
REMARK VINA RESULT:      -6.7      1.014      1.129
REMARK  Name = 
REMARK  7 active torsions:
REMARK  status: ('A' for Active; 'I' for Inactive)
REMARK    1  A    between atoms: C_1  and  O_2
REMARK    2  A    between atoms: O_2  and  C_3
REMARK    3  A    between atoms: C_7  and  C_8
REMARK    4  A    between atoms: C_9  and  C_10
REMARK    5  A    between atoms: C_15  and  N_16
REMARK    6  A    between atoms: C_19  and  O_20
REMARK    7  A    between atoms: C_23  and  O_24
REMARK                            x       y       z     vdW  Elec       q    Type
REMARK                         _______ _______ _______ _____ _____    ______ ____
ROOT
ATOM      1  C   UNL     1       1.265   8.115  20.746  0.00  0.00    +0.000 C 
ATOM      2  O   UNL     1       0.970   7.701  21.866  0.00  0.00    +0.000 OA
ATOM      3  N   UNL     1       0.876   9.394  20.323  0.00  0.00    +0.000 N 
ATOM      4  C   UNL     1       0.072  10.225  21.215  0.00  0.00    +0.000 C 
ATOM      5  C   UNL     1      -0.935  11.074  20.437  0.00  0.00    +0.000 C 
ATOM      6  C   UNL     1      -0.337  11.856  19.231  0.00  0.00    +0.000 C 
ATOM      7  C   UNL     1       0.549  10.873  18.402  0.00  0.00    +0.000 C 
ATOM      8  C   UNL     1       1.571  10.151  19.280  0.00  0.00    +0.000 C 
ENDROOT
BRANCH   1  15
ATOM      9  C   UNL     1       4.786   5.962  16.448  0.00  0.00    +0.000 A 
ATOM     10  C   UNL     1       4.519   4.698  16.986  0.00  0.00    +0.000 A 
ATOM     11  C   UNL     1       3.665   4.550  18.082  0.00  0.00    +0.000 A 
ATOM     12  C   UNL     1       3.086   5.693  18.649  0.00  0.00    +0.000 A 
ATOM     13  C   UNL     1       2.171   5.928  19.712  0.00  0.00    +0.000 A 
ATOM     14  C   UNL     1       1.519   4.891  20.550  0.00  0.00    +0.000 C 
ATOM     15  C   UNL     1       2.045   7.304  19.822  0.00  0.00    +0.000 A 
ATOM     16  O   UNL     1       2.779   7.917  18.831  0.00  0.00    +0.000 OA
ATOM     17  C   UNL     1       3.412   6.939  18.126  0.00  0.00    +0.000 A 
ATOM     18  C   UNL     1       4.272   7.122  17.042  0.00  0.00    +0.000 A 
BRANCH   9  20
ATOM     19  C   UNL     1       6.034   4.935  14.740  0.00  0.00    +0.000 C 
ATOM     20  O   UNL     1       5.577   6.149  15.340  0.00  0.00    +0.000 OA
ENDBRANCH   9  20
ENDBRANCH   1  15
BRANCH   6  21
ATOM     21  N   UNL     1       0.309  13.163  19.626  0.00  0.00    +0.000 NA
ATOM     22  C   UNL     1      -0.716  14.062  20.215  0.00  0.00    +0.000 C 
ATOM     23  C   UNL     1      -0.249  15.497  20.471  0.00  0.00    +0.000 C 
ATOM     24  C   UNL     1       0.358  16.129  19.230  0.00  0.00    +0.000 C 
ATOM     25  C   UNL     1       1.450  15.228  18.688  0.00  0.00    +0.000 C 
ATOM     26  C   UNL     1       0.948  13.803  18.453  0.00  0.00    +0.000 C 
BRANCH  24  27
ATOM     27  O   UNL     1      -0.637  16.385  18.242  0.00  0.00    +0.000 OA
ATOM     28  H   UNL     1      -1.239  15.624  18.187  0.00  0.00    +0.000 HD
ENDBRANCH  24  27
ENDBRANCH   6  21
BRANCH   7  29
ATOM     29  O   UNL     1      -0.300   9.924  17.731  0.00  0.00    +0.000 OA
ATOM     30  H   UNL     1      -0.982  10.433  17.253  0.00  0.00    +0.000 HD
ENDBRANCH   7  29
TORSDOF 5
ENDMDL
MODEL 9
REMARK VINA RESULT:      -6.7      1.177      1.510
REMARK  Name = 
REMARK  7 active torsions:
REMARK  status: ('A' for Active; 'I' for Inactive)
REMARK    1  A    between atoms: C_1  and  O_2
REMARK    2  A    between atoms: O_2  and  C_3
REMARK    3  A    between atoms: C_7  and  C_8
REMARK    4  A    between atoms: C_9  and  C_10
REMARK    5  A    between atoms: C_15  and  N_16
REMARK    6  A    between atoms: C_19  and  O_20
REMARK    7  A    between atoms: C_23  and  O_24
REMARK                            x       y       z     vdW  Elec       q    Type
REMARK                         _______ _______ _______ _____ _____    ______ ____
ROOT
ATOM      1  C   UNL     1       1.740   7.777  20.214  0.00  0.00    +0.000 C 
ATOM      2  O   UNL     1       1.592   7.409  21.378  0.00  0.00    +0.000 OA
ATOM      3  N   UNL     1       1.236   9.009  19.776  0.00  0.00    +0.000 N 
ATOM      4  C   UNL     1       0.487   9.845  20.710  0.00  0.00    +0.000 C 
ATOM      5  C   UNL     1      -0.645  10.598  20.009  0.00  0.00    +0.000 C 
ATOM      6  C   UNL     1      -0.225  11.344  18.709  0.00  0.00    +0.000 C 
ATOM      7  C   UNL     1       0.621  10.365  17.834  0.00  0.00    +0.000 C 
ATOM      8  C   UNL     1       1.771   9.745  18.628  0.00  0.00    +0.000 C 
ENDROOT
BRANCH   1  15
ATOM      9  C   UNL     1       5.241   5.575  15.924  0.00  0.00    +0.000 A 
ATOM     10  C   UNL     1       4.734   4.320  16.277  0.00  0.00    +0.000 A 
ATOM     11  C   UNL     1       3.776   4.191  17.287  0.00  0.00    +0.000 A 
ATOM     12  C   UNL     1       3.335   5.342  17.953  0.00  0.00    +0.000 A 
ATOM     13  C   UNL     1       2.380   5.602  18.974  0.00  0.00    +0.000 A 
ATOM     14  C   UNL     1       1.503   4.599  19.628  0.00  0.00    +0.000 C 
ATOM     15  C   UNL     1       2.461   6.958  19.249  0.00  0.00    +0.000 A 
ATOM     16  O   UNL     1       3.365   7.551  18.395  0.00  0.00    +0.000 OA
ATOM     17  C   UNL     1       3.896   6.568  17.616  0.00  0.00    +0.000 A 
ATOM     18  C   UNL     1       4.864   6.729  16.624  0.00  0.00    +0.000 A 
BRANCH   9  20
ATOM     19  C   UNL     1       6.627   4.536  14.334  0.00  0.00    +0.000 C 
ATOM     20  O   UNL     1       6.144   5.754  14.903  0.00  0.00    +0.000 OA
ENDBRANCH   9  20
ENDBRANCH   1  15
BRANCH   6  21
ATOM     21  N   UNL     1       0.385  12.702  18.968  0.00  0.00    +0.000 NA
ATOM     22  C   UNL     1       1.847  12.641  18.715  0.00  0.00    +0.000 C 
ATOM     23  C   UNL     1       2.629  13.888  19.136  0.00  0.00    +0.000 C 
ATOM     24  C   UNL     1       2.358  14.271  20.581  0.00  0.00    +0.000 C 
ATOM     25  C   UNL     1       0.863  14.397  20.797  0.00  0.00    +0.000 C 
ATOM     26  C   UNL     1       0.116  13.136  20.358  0.00  0.00    +0.000 C 
BRANCH  24  27
ATOM     27  O   UNL     1       2.931  13.326  21.482  0.00  0.00    +0.000 OA
ATOM     28  H   UNL     1       2.431  12.494  21.436  0.00  0.00    +0.000 HD
ENDBRANCH  24  27
ENDBRANCH   6  21
BRANCH   7  29
ATOM     29  O   UNL     1      -0.240   9.339  17.308  0.00  0.00    +0.000 OA
ATOM     30  H   UNL     1       0.334   8.618  16.984  0.00  0.00    +0.000 HD
ENDBRANCH   7  29
TORSDOF 5
ENDMDL
