MODEL 1
REMARK VINA RESULT:      -5.6      0.000      0.000
REMARK  Name = 
REMARK  3 active torsions:
REMARK  status: ('A' for Active; 'I' for Inactive)
REMARK    1  A    between atoms: C_1  and  O_2
REMARK    2  A    between atoms: O_2  and  C_3
REMARK    3  A    between atoms: C_3  and  C_5
REMARK                            x       y       z     vdW  Elec       q    Type
REMARK                         _______ _______ _______ _____ _____    ______ ____
ROOT
ATOM      1  C   UNL     1       5.706   4.820  17.545  0.00  0.00    +0.000 C 
ATOM      2  C   UNL     1       4.704   4.259  16.524  0.00  0.00    +0.000 C 
ATOM      3  C   UNL     1       3.413   3.691  17.125  0.00  0.00    +0.000 C 
ATOM      4  C   UNL     1       3.657   2.401  17.911  0.00  0.00    +0.000 C 
ATOM      5  C   UNL     1       4.150   2.611  19.346  0.00  0.00    +0.000 C 
ATOM      6  N   UNL     1       5.027   3.761  19.565  0.00  0.00    +0.000 NA
ATOM      7  N   UNL     1       6.083   3.846  18.593  0.00  0.00    +0.000 NA
ATOM      8  H   UNL     1       5.409   3.716  20.516  0.00  0.00    +0.000 HD
ATOM      9  H   UNL     1       6.364   2.958  18.167  0.00  0.00    +0.000 HD
ENDROOT
BRANCH   1  10
ATOM     10  C   UNL     1       6.983   5.228  16.796  0.00  0.00    +0.000 C 
ATOM     11  O   UNL     1       7.875   4.458  16.452  0.00  0.00    +0.000 OA
BRANCH  10  13
ATOM     12  C   UNL     1       7.533   7.381  17.542  0.00  0.00    +0.000 C 
ATOM     13  O   UNL     1       6.963   6.566  16.518  0.00  0.00    +0.000 OA
ENDBRANCH  10  13
ENDBRANCH   1  10
TORSDOF 2
ENDMDL
MODEL 2
REMARK VINA RESULT:      -5.6      1.070      1.731
REMARK  Name = 
REMARK  3 active torsions:
REMARK  status: ('A' for Active; 'I' for Inactive)
REMARK    1  A    between atoms: C_1  and  O_2
REMARK    2  A    between atoms: O_2  and  C_3
REMARK    3  A    between atoms: C_3  and  C_5
REMARK                            x       y       z     vdW  Elec       q    Type
REMARK                         _______ _______ _______ _____ _____    ______ ____
ROOT
ATOM      1  C   UNL     1       5.949   5.323  17.601  0.00  0.00    +0.000 C 
ATOM      2  C   UNL     1       4.594   5.501  16.898  0.00  0.00    +0.000 C 
ATOM      3  C   UNL     1       3.378   5.028  17.703  0.00  0.00    +0.000 C 
ATOM      4  C   UNL     1       3.338   3.506  17.854  0.00  0.00    +0.000 C 
ATOM      5  C   UNL     1       4.212   2.953  18.985  0.00  0.00    +0.000 C 
ATOM      6  N   UNL     1       5.463   3.667  19.240  0.00  0.00    +0.000 NA
ATOM      7  N   UNL     1       6.205   3.932  18.038  0.00  0.00    +0.000 NA
ATOM      8  H   UNL     1       6.027   3.128  19.906  0.00  0.00    +0.000 HD
ATOM      9  H   UNL     1       6.040   3.283  17.264  0.00  0.00    +0.000 HD
ENDROOT
BRANCH   1  10
ATOM     10  C   UNL     1       7.060   5.724  16.620  0.00  0.00    +0.000 C 
ATOM     11  O   UNL     1       7.591   6.830  16.569  0.00  0.00    +0.000 OA
BRANCH  10  13
ATOM     12  C   UNL     1       7.078   4.805  14.464  0.00  0.00    +0.000 C 
ATOM     13  O   UNL     1       7.416   4.657  15.843  0.00  0.00    +0.000 OA
ENDBRANCH  10  13
ENDBRANCH   1  10
TORSDOF 2
ENDMDL
MODEL 3
REMARK VINA RESULT:      -5.6      2.165      2.925
REMARK  Name = 
REMARK  3 active torsions:
REMARK  status: ('A' for Active; 'I' for Inactive)
REMARK    1  A    between atoms: C_1  and  O_2
REMARK    2  A    between atoms: O_2  and  C_3
REMARK    3  A    between atoms: C_3  and  C_5
REMARK                            x       y       z     vdW  Elec       q    Type
REMARK                         _______ _______ _______ _____ _____    ______ ____
ROOT
ATOM      1  C   UNL     1       6.525   5.209  16.162  0.00  0.00    +0.000 C 
ATOM      2  C   UNL     1       5.221   6.018  16.083  0.00  0.00    +0.000 C 
ATOM      3  C   UNL     1       4.572   6.336  17.436  0.00  0.00    +0.000 C 
ATOM      4  C   UNL     1       4.004   5.089  18.115  0.00  0.00    +0.000 C 
ATOM      5  C   UNL     1       5.035   4.257  18.886  0.00  0.00    +0.000 C 
ATOM      6  N   UNL     1       6.383   4.215  18.320  0.00  0.00    +0.000 NA
ATOM      7  N   UNL     1       6.384   3.939  16.910  0.00  0.00    +0.000 NA
ATOM      8  H   UNL     1       6.939   3.519  18.829  0.00  0.00    +0.000 HD
ATOM      9  H   UNL     1       5.578   3.412  16.562  0.00  0.00    +0.000 HD
ENDROOT
BRANCH   1  10
ATOM     10  C   UNL     1       6.972   4.870  14.733  0.00  0.00    +0.000 C 
ATOM     11  O   UNL     1       7.817   5.489  14.092  0.00  0.00    +0.000 OA
BRANCH  10  13
ATOM     12  C   UNL     1       6.247   3.649  12.868  0.00  0.00    +0.000 C 
ATOM     13  O   UNL     1       6.335   3.745  14.290  0.00  0.00    +0.000 OA
ENDBRANCH  10  13
ENDBRANCH   1  10
TORSDOF 2
ENDMDL
MODEL 4
REMARK VINA RESULT:      -5.6      1.760      1.935
REMARK  Name = 
REMARK  3 active torsions:
REMARK  status: ('A' for Active; 'I' for Inactive)
REMARK    1  A    between atoms: C_1  and  O_2
REMARK    2  A    between atoms: O_2  and  C_3
REMARK    3  A    between atoms: C_3  and  C_5
REMARK                            x       y       z     vdW  Elec       q    Type
REMARK                         _______ _______ _______ _____ _____    ______ ____
ROOT
ATOM      1  C   UNL     1       4.901   4.548  19.209  0.00  0.00    +0.000 C 
ATOM      2  C   UNL     1       3.841   5.140  18.267  0.00  0.00    +0.000 C 
ATOM      3  C   UNL     1       2.554   4.317  18.136  0.00  0.00    +0.000 C 
ATOM      4  C   UNL     1       2.782   2.998  17.395  0.00  0.00    +0.000 C 
ATOM      5  C   UNL     1       3.335   1.864  18.264  0.00  0.00    +0.000 C 
ATOM      6  N   UNL     1       4.261   2.259  19.326  0.00  0.00    +0.000 NA
ATOM      7  N   UNL     1       5.281   3.160  18.865  0.00  0.00    +0.000 NA
ATOM      8  H   UNL     1       4.676   1.417  19.739  0.00  0.00    +0.000 HD
ATOM      9  H   UNL     1       5.514   3.093  17.871  0.00  0.00    +0.000 HD
ENDROOT
BRANCH   1  10
ATOM     10  C   UNL     1       6.162   5.419  19.128  0.00  0.00    +0.000 C 
ATOM     11  O   UNL     1       7.100   5.378  19.920  0.00  0.00    +0.000 OA
BRANCH  10  13
ATOM     12  C   UNL     1       7.385   6.767  17.651  0.00  0.00    +0.000 C 
ATOM     13  O   UNL     1       6.121   6.213  18.017  0.00  0.00    +0.000 OA
ENDBRANCH  10  13
ENDBRANCH   1  10
TORSDOF 2
ENDMDL
MODEL 5
REMARK VINA RESULT:      -5.3      1.249      1.409
REMARK  Name = 
REMARK  3 active torsions:
REMARK  status: ('A' for Active; 'I' for Inactive)
REMARK    1  A    between atoms: C_1  and  O_2
REMARK    2  A    between atoms: O_2  and  C_3
REMARK    3  A    between atoms: C_3  and  C_5
REMARK                            x       y       z     vdW  Elec       q    Type
REMARK                         _______ _______ _______ _____ _____    ______ ____
ROOT
ATOM      1  C   UNL     1       5.605   5.453  17.475  0.00  0.00    +0.000 C 
ATOM      2  C   UNL     1       4.111   5.781  17.320  0.00  0.00    +0.000 C 
ATOM      3  C   UNL     1       3.216   5.291  18.465  0.00  0.00    +0.000 C 
ATOM      4  C   UNL     1       3.094   3.766  18.495  0.00  0.00    +0.000 C 
ATOM      5  C   UNL     1       4.256   3.047  19.190  0.00  0.00    +0.000 C 
ATOM      6  N   UNL     1       5.576   3.659  19.039  0.00  0.00    +0.000 NA
ATOM      7  N   UNL     1       5.871   4.011  17.677  0.00  0.00    +0.000 NA
ATOM      8  H   UNL     1       6.286   3.020  19.413  0.00  0.00    +0.000 HD
ATOM      9  H   UNL     1       5.388   3.459  16.963  0.00  0.00    +0.000 HD
ENDROOT
BRANCH   1  10
ATOM     10  C   UNL     1       6.333   5.896  16.199  0.00  0.00    +0.000 C 
ATOM     11  O   UNL     1       5.866   5.840  15.065  0.00  0.00    +0.000 OA
BRANCH  10  13
ATOM     12  C   UNL     1       7.537   7.374  17.563  0.00  0.00    +0.000 C 
ATOM     13  O   UNL     1       7.560   6.413  16.507  0.00  0.00    +0.000 OA
ENDBRANCH  10  13
ENDBRANCH   1  10
TORSDOF 2
ENDMDL
MODEL 6
REMARK VINA RESULT:      -5.3      2.225      2.721
REMARK  Name = 
REMARK  3 active torsions:
REMARK  status: ('A' for Active; 'I' for Inactive)
REMARK    1  A    between atoms: C_1  and  O_2
REMARK    2  A    between atoms: O_2  and  C_3
REMARK    3  A    between atoms: C_3  and  C_5
REMARK                            x       y       z     vdW  Elec       q    Type
REMARK                         _______ _______ _______ _____ _____    ______ ____
ROOT
ATOM      1  C   UNL     1       6.481   5.077  16.092  0.00  0.00    +0.000 C 
ATOM      2  C   UNL     1       5.258   6.004  16.020  0.00  0.00    +0.000 C 
ATOM      3  C   UNL     1       4.664   6.402  17.376  0.00  0.00    +0.000 C 
ATOM      4  C   UNL     1       3.993   5.223  18.084  0.00  0.00    +0.000 C 
ATOM      5  C   UNL     1       4.953   4.310  18.853  0.00  0.00    +0.000 C 
ATOM      6  N   UNL     1       6.282   4.133  18.267  0.00  0.00    +0.000 NA
ATOM      7  N   UNL     1       6.234   3.837  16.861  0.00  0.00    +0.000 NA
ATOM      8  H   UNL     1       6.778   3.395  18.778  0.00  0.00    +0.000 HD
ATOM      9  H   UNL     1       5.376   3.383  16.534  0.00  0.00    +0.000 HD
ENDROOT
BRANCH   1  10
ATOM     10  C   UNL     1       6.871   4.677  14.661  0.00  0.00    +0.000 C 
ATOM     11  O   UNL     1       6.369   3.754  14.025  0.00  0.00    +0.000 OA
BRANCH  10  13
ATOM     12  C   UNL     1       8.037   5.412  12.765  0.00  0.00    +0.000 C 
ATOM     13  O   UNL     1       7.821   5.529  14.172  0.00  0.00    +0.000 OA
ENDBRANCH  10  13
ENDBRANCH   1  10
TORSDOF 2
ENDMDL
MODEL 7
REMARK VINA RESULT:      -5.2      2.763      4.398
REMARK  Name = 
REMARK  3 active torsions:
REMARK  status: ('A' for Active; 'I' for Inactive)
REMARK    1  A    between atoms: C_1  and  O_2
REMARK    2  A    between atoms: O_2  and  C_3
REMARK    3  A    between atoms: C_3  and  C_5
REMARK                            x       y       z     vdW  Elec       q    Type
REMARK                         _______ _______ _______ _____ _____    ______ ____
ROOT
ATOM      1  C   UNL     1       4.787   3.827  18.292  0.00  0.00    +0.000 C 
ATOM      2  C   UNL     1       4.032   5.157  18.142  0.00  0.00    +0.000 C 
ATOM      3  C   UNL     1       4.529   6.062  17.007  0.00  0.00    +0.000 C 
ATOM      4  C   UNL     1       5.918   6.639  17.290  0.00  0.00    +0.000 C 
ATOM      5  C   UNL     1       7.080   5.698  16.953  0.00  0.00    +0.000 C 
ATOM      6  N   UNL     1       6.838   4.271  17.169  0.00  0.00    +0.000 NA
ATOM      7  N   UNL     1       6.249   3.996  18.451  0.00  0.00    +0.000 NA
ATOM      8  H   UNL     1       7.720   3.761  17.055  0.00  0.00    +0.000 HD
ATOM      9  H   UNL     1       6.448   4.682  19.185  0.00  0.00    +0.000 HD
ENDROOT
BRANCH   1  10
ATOM     10  C   UNL     1       4.255   3.106  19.539  0.00  0.00    +0.000 C 
ATOM     11  O   UNL     1       4.882   2.282  20.198  0.00  0.00    +0.000 OA
BRANCH  10  13
ATOM     12  C   UNL     1       2.032   2.510  19.982  0.00  0.00    +0.000 C 
ATOM     13  O   UNL     1       3.000   3.551  19.845  0.00  0.00    +0.000 OA
ENDBRANCH  10  13
ENDBRANCH   1  10
TORSDOF 2
ENDMDL
MODEL 8
REMARK VINA RESULT:      -5.2      1.622      2.072
REMARK  Name = 
REMARK  3 active torsions:
REMARK  status: ('A' for Active; 'I' for Inactive)
REMARK    1  A    between atoms: C_1  and  O_2
REMARK    2  A    between atoms: O_2  and  C_3
REMARK    3  A    between atoms: C_3  and  C_5
REMARK                            x       y       z     vdW  Elec       q    Type
REMARK                         _______ _______ _______ _____ _____    ______ ____
ROOT
ATOM      1  C   UNL     1       5.462   4.462  17.375  0.00  0.00    +0.000 C 
ATOM      2  C   UNL     1       4.376   5.519  17.121  0.00  0.00    +0.000 C 
ATOM      3  C   UNL     1       3.094   5.343  17.944  0.00  0.00    +0.000 C 
ATOM      4  C   UNL     1       2.293   4.112  17.517  0.00  0.00    +0.000 C 
ATOM      5  C   UNL     1       2.780   2.792  18.124  0.00  0.00    +0.000 C 
ATOM      6  N   UNL     1       4.223   2.672  18.335  0.00  0.00    +0.000 NA
ATOM      7  N   UNL     1       4.986   3.074  17.185  0.00  0.00    +0.000 NA
ATOM      8  H   UNL     1       4.444   1.706  18.601  0.00  0.00    +0.000 HD
ATOM      9  H   UNL     1       4.509   2.983  16.284  0.00  0.00    +0.000 HD
ENDROOT
BRANCH   1  10
ATOM     10  C   UNL     1       6.615   4.706  16.390  0.00  0.00    +0.000 C 
ATOM     11  O   UNL     1       7.799   4.472  16.617  0.00  0.00    +0.000 OA
BRANCH  10  13
ATOM     12  C   UNL     1       6.691   4.530  14.054  0.00  0.00    +0.000 C 
ATOM     13  O   UNL     1       6.132   5.173  15.200  0.00  0.00    +0.000 OA
ENDBRANCH  10  13
ENDBRANCH   1  10
TORSDOF 2
ENDMDL
MODEL 9
REMARK VINA RESULT:      -5.1      2.685      4.350
REMARK  Name = 
REMARK  3 active torsions:
REMARK  status: ('A' for Active; 'I' for Inactive)
REMARK    1  A    between atoms: C_1  and  O_2
REMARK    2  A    between atoms: O_2  and  C_3
REMARK    3  A    between atoms: C_3  and  C_5
REMARK                            x       y       z     vdW  Elec       q    Type
REMARK                         _______ _______ _______ _____ _____    ______ ____
ROOT
ATOM      1  C   UNL     1       4.858   3.742  17.794  0.00  0.00    +0.000 C 
ATOM      2  C   UNL     1       4.226   5.020  17.221  0.00  0.00    +0.000 C 
ATOM      3  C   UNL     1       5.199   5.955  16.493  0.00  0.00    +0.000 C 
ATOM      4  C   UNL     1       6.190   6.621  17.450  0.00  0.00    +0.000 C 
ATOM      5  C   UNL     1       7.403   5.759  17.815  0.00  0.00    +0.000 C 
ATOM      6  N   UNL     1       7.163   4.319  17.917  0.00  0.00    +0.000 NA
ATOM      7  N   UNL     1       5.999   4.006  18.699  0.00  0.00    +0.000 NA
ATOM      8  H   UNL     1       7.997   3.868  18.308  0.00  0.00    +0.000 HD
ATOM      9  H   UNL     1       5.738   4.702  19.403  0.00  0.00    +0.000 HD
ENDROOT
BRANCH   1  10
ATOM     10  C   UNL     1       3.785   2.987  18.592  0.00  0.00    +0.000 C 
ATOM     11  O   UNL     1       4.010   2.129  19.441  0.00  0.00    +0.000 OA
BRANCH  10  13
ATOM     12  C   UNL     1       1.484   2.539  18.590  0.00  0.00    +0.000 C 
ATOM     13  O   UNL     1       2.540   3.443  18.262  0.00  0.00    +0.000 OA
ENDBRANCH  10  13
ENDBRANCH   1  10
TORSDOF 2
ENDMDL
