MODEL 1
REMARK VINA RESULT:      -7.9      0.000      0.000
REMARK  Name = 
REMARK  2 active torsions:
REMARK  status: ('A' for Active; 'I' for Inactive)
REMARK    1  A    between atoms: C_9  and  C_10
REMARK    2  A    between atoms: N_16  and  C_17
REMARK                            x       y       z     vdW  Elec       q    Type
REMARK                         _______ _______ _______ _____ _____    ______ ____
ROOT
ATOM      1 CL   UNL     1       1.893   4.020  21.293  0.00  0.00    +0.000 Cl
ATOM      2  C   UNL     1       2.414   3.325  19.837  0.00  0.00    +0.000 A 
ATOM      3  N   UNL     1       1.766   2.242  19.373  0.00  0.00    +0.000 NA
ATOM      4  C   UNL     1       2.220   1.728  18.220  0.00  0.00    +0.000 A 
ATOM      5  N   UNL     1       3.251   2.162  17.470  0.00  0.00    +0.000 NA
ATOM      6  C   UNL     1       3.840   3.258  17.984  0.00  0.00    +0.000 A 
ATOM      7  C   UNL     1       3.485   3.895  19.160  0.00  0.00    +0.000 A 
ATOM      8  N   UNL     1       4.305   4.973  19.381  0.00  0.00    +0.000 NA
ATOM      9  C   UNL     1       5.169   5.017  18.376  0.00  0.00    +0.000 A 
ATOM     10  N   UNL     1       4.885   3.987  17.464  0.00  0.00    +0.000 N 
ENDROOT
BRANCH  10  11
ATOM     11  C   UNL     1       5.553   3.764  16.191  0.00  0.00    +0.000 C 
ATOM     12  C   UNL     1       7.040   4.172  16.017  0.00  0.00    +0.000 C 
ATOM     13  C   UNL     1       7.023   4.976  14.698  0.00  0.00    +0.000 C 
ATOM     14  C   UNL     1       6.709   4.023  13.530  0.00  0.00    +0.000 C 
ATOM     15  C   UNL     1       5.212   3.735  13.710  0.00  0.00    +0.000 C 
ATOM     16  C   UNL     1       4.872   4.505  15.003  0.00  0.00    +0.000 C 
ATOM     17  C   UNL     1       5.722   5.760  14.823  0.00  0.00    +0.000 C 
ENDBRANCH  10  11
BRANCH   9  18
ATOM     18  C   UNL     1       6.215   6.060  18.269  0.00  0.00    +0.000 A 
ATOM     19  C   UNL     1       6.098   7.197  17.463  0.00  0.00    +0.000 A 
ATOM     20  C   UNL     1       7.074   8.195  17.438  0.00  0.00    +0.000 A 
ATOM     21  C   UNL     1       8.240   8.039  18.173  0.00  0.00    +0.000 A 
ATOM     22  C   UNL     1       8.423   6.882  18.926  0.00  0.00    +0.000 A 
ATOM     23  C   UNL     1       7.418   5.905  18.977  0.00  0.00    +0.000 A 
ENDBRANCH   9  18
TORSDOF 2
ENDMDL
MODEL 2
REMARK VINA RESULT:      -7.9      2.835      3.939
REMARK  Name = 
REMARK  2 active torsions:
REMARK  status: ('A' for Active; 'I' for Inactive)
REMARK    1  A    between atoms: C_9  and  C_10
REMARK    2  A    between atoms: N_16  and  C_17
REMARK                            x       y       z     vdW  Elec       q    Type
REMARK                         _______ _______ _______ _____ _____    ______ ____
ROOT
ATOM      1 CL   UNL     1       1.289   2.636  21.969  0.00  0.00    +0.000 Cl
ATOM      2  C   UNL     1       2.661   2.873  21.001  0.00  0.00    +0.000 A 
ATOM      3  N   UNL     1       3.548   1.869  20.885  0.00  0.00    +0.000 NA
ATOM      4  C   UNL     1       4.617   2.110  20.111  0.00  0.00    +0.000 A 
ATOM      5  N   UNL     1       4.915   3.237  19.438  0.00  0.00    +0.000 NA
ATOM      6  C   UNL     1       3.975   4.190  19.584  0.00  0.00    +0.000 A 
ATOM      7  C   UNL     1       2.826   4.089  20.348  0.00  0.00    +0.000 A 
ATOM      8  N   UNL     1       2.103   5.253  20.274  0.00  0.00    +0.000 NA
ATOM      9  C   UNL     1       2.780   6.081  19.490  0.00  0.00    +0.000 A 
ATOM     10  N   UNL     1       3.933   5.440  19.008  0.00  0.00    +0.000 N 
ENDROOT
BRANCH  10  11
ATOM     11  C   UNL     1       4.879   5.989  18.050  0.00  0.00    +0.000 C 
ATOM     12  C   UNL     1       4.974   5.386  16.624  0.00  0.00    +0.000 C 
ATOM     13  C   UNL     1       6.491   5.164  16.444  0.00  0.00    +0.000 C 
ATOM     14  C   UNL     1       7.196   6.532  16.369  0.00  0.00    +0.000 C 
ATOM     15  C   UNL     1       7.146   7.028  17.821  0.00  0.00    +0.000 C 
ATOM     16  C   UNL     1       6.357   5.910  18.534  0.00  0.00    +0.000 C 
ATOM     17  C   UNL     1       6.905   4.674  17.827  0.00  0.00    +0.000 C 
ENDBRANCH  10  11
BRANCH   9  18
ATOM     18  C   UNL     1       2.300   7.446  19.170  0.00  0.00    +0.000 A 
ATOM     19  C   UNL     1       2.503   8.069  17.934  0.00  0.00    +0.000 A 
ATOM     20  C   UNL     1       1.978   9.331  17.643  0.00  0.00    +0.000 A 
ATOM     21  C   UNL     1       1.292  10.036  18.622  0.00  0.00    +0.000 A 
ATOM     22  C   UNL     1       1.140   9.476  19.887  0.00  0.00    +0.000 A 
ATOM     23  C   UNL     1       1.635   8.192  20.157  0.00  0.00    +0.000 A 
ENDBRANCH   9  18
TORSDOF 2
ENDMDL
MODEL 3
REMARK VINA RESULT:      -7.8      3.592      6.001
REMARK  Name = 
REMARK  2 active torsions:
REMARK  status: ('A' for Active; 'I' for Inactive)
REMARK    1  A    between atoms: C_9  and  C_10
REMARK    2  A    between atoms: N_16  and  C_17
REMARK                            x       y       z     vdW  Elec       q    Type
REMARK                         _______ _______ _______ _____ _____    ______ ____
ROOT
ATOM      1 CL   UNL     1       0.235  10.381  21.431  0.00  0.00    +0.000 Cl
ATOM      2  C   UNL     1       1.047   9.913  20.018  0.00  0.00    +0.000 A 
ATOM      3  N   UNL     1       1.351  10.856  19.108  0.00  0.00    +0.000 NA
ATOM      4  C   UNL     1       1.989  10.432  18.007  0.00  0.00    +0.000 A 
ATOM      5  N   UNL     1       2.361   9.175  17.698  0.00  0.00    +0.000 NA
ATOM      6  C   UNL     1       2.043   8.290  18.661  0.00  0.00    +0.000 A 
ATOM      7  C   UNL     1       1.385   8.577  19.844  0.00  0.00    +0.000 A 
ATOM      8  N   UNL     1       1.219   7.433  20.584  0.00  0.00    +0.000 NA
ATOM      9  C   UNL     1       1.749   6.438  19.885  0.00  0.00    +0.000 A 
ATOM     10  N   UNL     1       2.309   6.939  18.699  0.00  0.00    +0.000 N 
ENDROOT
BRANCH  10  11
ATOM     11  C   UNL     1       3.059   6.173  17.717  0.00  0.00    +0.000 C 
ATOM     12  C   UNL     1       2.870   4.635  17.628  0.00  0.00    +0.000 C 
ATOM     13  C   UNL     1       4.322   4.109  17.633  0.00  0.00    +0.000 C 
ATOM     14  C   UNL     1       5.014   4.525  16.321  0.00  0.00    +0.000 C 
ATOM     15  C   UNL     1       5.251   6.029  16.515  0.00  0.00    +0.000 C 
ATOM     16  C   UNL     1       4.602   6.300  17.887  0.00  0.00    +0.000 C 
ATOM     17  C   UNL     1       4.988   5.034  18.646  0.00  0.00    +0.000 C 
ENDBRANCH  10  11
BRANCH   9  18
ATOM     18  C   UNL     1       1.763   5.040  20.374  0.00  0.00    +0.000 A 
ATOM     19  C   UNL     1       2.681   4.555  21.312  0.00  0.00    +0.000 A 
ATOM     20  C   UNL     1       2.622   3.248  21.802  0.00  0.00    +0.000 A 
ATOM     21  C   UNL     1       1.677   2.364  21.302  0.00  0.00    +0.000 A 
ATOM     22  C   UNL     1       0.798   2.794  20.312  0.00  0.00    +0.000 A 
ATOM     23  C   UNL     1       0.837   4.120  19.856  0.00  0.00    +0.000 A 
ENDBRANCH   9  18
TORSDOF 2
ENDMDL
MODEL 4
REMARK VINA RESULT:      -7.8      3.286      5.639
REMARK  Name = 
REMARK  2 active torsions:
REMARK  status: ('A' for Active; 'I' for Inactive)
REMARK    1  A    between atoms: C_9  and  C_10
REMARK    2  A    between atoms: N_16  and  C_17
REMARK                            x       y       z     vdW  Elec       q    Type
REMARK                         _______ _______ _______ _____ _____    ______ ____
ROOT
ATOM      1 CL   UNL     1       1.650  10.668  17.816  0.00  0.00    +0.000 Cl
ATOM      2  C   UNL     1       1.497   9.465  19.002  0.00  0.00    +0.000 A 
ATOM      3  N   UNL     1       0.664   9.682  20.035  0.00  0.00    +0.000 NA
ATOM      4  C   UNL     1       0.584   8.701  20.946  0.00  0.00    +0.000 A 
ATOM      5  N   UNL     1       1.238   7.524  20.956  0.00  0.00    +0.000 NA
ATOM      6  C   UNL     1       2.037   7.367  19.884  0.00  0.00    +0.000 A 
ATOM      7  C   UNL     1       2.224   8.288  18.868  0.00  0.00    +0.000 A 
ATOM      8  N   UNL     1       3.114   7.800  17.944  0.00  0.00    +0.000 NA
ATOM      9  C   UNL     1       3.493   6.601  18.365  0.00  0.00    +0.000 A 
ATOM     10  N   UNL     1       2.812   6.279  19.551  0.00  0.00    +0.000 N 
ENDROOT
BRANCH  10  11
ATOM     11  C   UNL     1       2.890   5.015  20.266  0.00  0.00    +0.000 C 
ATOM     12  C   UNL     1       3.931   3.947  19.836  0.00  0.00    +0.000 C 
ATOM     13  C   UNL     1       3.082   2.661  19.735  0.00  0.00    +0.000 C 
ATOM     14  C   UNL     1       2.617   2.251  21.145  0.00  0.00    +0.000 C 
ATOM     15  C   UNL     1       1.532   3.288  21.467  0.00  0.00    +0.000 C 
ATOM     16  C   UNL     1       1.561   4.205  20.227  0.00  0.00    +0.000 C 
ATOM     17  C   UNL     1       1.790   3.184  19.118  0.00  0.00    +0.000 C 
ENDBRANCH  10  11
BRANCH   9  18
ATOM     18  C   UNL     1       4.453   5.760  17.614  0.00  0.00    +0.000 A 
ATOM     19  C   UNL     1       4.069   4.738  16.738  0.00  0.00    +0.000 A 
ATOM     20  C   UNL     1       5.000   4.010  15.994  0.00  0.00    +0.000 A 
ATOM     21  C   UNL     1       6.357   4.239  16.168  0.00  0.00    +0.000 A 
ATOM     22  C   UNL     1       6.774   5.196  17.090  0.00  0.00    +0.000 A 
ATOM     23  C   UNL     1       5.831   5.952  17.802  0.00  0.00    +0.000 A 
ENDBRANCH   9  18
TORSDOF 2
ENDMDL
MODEL 5
REMARK VINA RESULT:      -7.7      3.251      5.646
REMARK  Name = 
REMARK  2 active torsions:
REMARK  status: ('A' for Active; 'I' for Inactive)
REMARK    1  A    between atoms: C_9  and  C_10
REMARK    2  A    between atoms: N_16  and  C_17
REMARK                            x       y       z     vdW  Elec       q    Type
REMARK                         _______ _______ _______ _____ _____    ______ ____
ROOT
ATOM      1 CL   UNL     1       1.480  10.530  17.781  0.00  0.00    +0.000 Cl
ATOM      2  C   UNL     1       1.421   9.346  18.993  0.00  0.00    +0.000 A 
ATOM      3  N   UNL     1       0.621   9.550  20.054  0.00  0.00    +0.000 NA
ATOM      4  C   UNL     1       0.614   8.585  20.985  0.00  0.00    +0.000 A 
ATOM      5  N   UNL     1       1.315   7.435  20.991  0.00  0.00    +0.000 NA
ATOM      6  C   UNL     1       2.077   7.289  19.891  0.00  0.00    +0.000 A 
ATOM      7  C   UNL     1       2.188   8.196  18.853  0.00  0.00    +0.000 A 
ATOM      8  N   UNL     1       3.061   7.726  17.903  0.00  0.00    +0.000 NA
ATOM      9  C   UNL     1       3.503   6.551  18.330  0.00  0.00    +0.000 A 
ATOM     10  N   UNL     1       2.882   6.226  19.547  0.00  0.00    +0.000 N 
ENDROOT
BRANCH  10  11
ATOM     11  C   UNL     1       3.038   4.980  20.281  0.00  0.00    +0.000 C 
ATOM     12  C   UNL     1       4.092   3.938  19.820  0.00  0.00    +0.000 C 
ATOM     13  C   UNL     1       3.283   2.623  19.786  0.00  0.00    +0.000 C 
ATOM     14  C   UNL     1       2.902   2.227  21.225  0.00  0.00    +0.000 C 
ATOM     15  C   UNL     1       1.801   3.235  21.582  0.00  0.00    +0.000 C 
ATOM     16  C   UNL     1       1.737   4.126  20.325  0.00  0.00    +0.000 C 
ATOM     17  C   UNL     1       1.945   3.090  19.225  0.00  0.00    +0.000 C 
ENDBRANCH  10  11
BRANCH   9  18
ATOM     18  C   UNL     1       4.467   5.733  17.557  0.00  0.00    +0.000 A 
ATOM     19  C   UNL     1       5.852   5.926  17.594  0.00  0.00    +0.000 A 
ATOM     20  C   UNL     1       6.737   5.093  16.905  0.00  0.00    +0.000 A 
ATOM     21  C   UNL     1       6.244   4.082  16.094  0.00  0.00    +0.000 A 
ATOM     22  C   UNL     1       4.867   3.913  15.974  0.00  0.00    +0.000 A 
ATOM     23  C   UNL     1       3.988   4.728  16.703  0.00  0.00    +0.000 A 
ENDBRANCH   9  18
TORSDOF 2
ENDMDL
MODEL 6
REMARK VINA RESULT:      -7.7      3.684      6.009
REMARK  Name = 
REMARK  2 active torsions:
REMARK  status: ('A' for Active; 'I' for Inactive)
REMARK    1  A    between atoms: C_9  and  C_10
REMARK    2  A    between atoms: N_16  and  C_17
REMARK                            x       y       z     vdW  Elec       q    Type
REMARK                         _______ _______ _______ _____ _____    ______ ____
ROOT
ATOM      1 CL   UNL     1       0.151  10.304  21.804  0.00  0.00    +0.000 Cl
ATOM      2  C   UNL     1       0.937   9.916  20.352  0.00  0.00    +0.000 A 
ATOM      3  N   UNL     1       1.222  10.908  19.490  0.00  0.00    +0.000 NA
ATOM      4  C   UNL     1       1.839  10.547  18.355  0.00  0.00    +0.000 A 
ATOM      5  N   UNL     1       2.206   9.310  17.970  0.00  0.00    +0.000 NA
ATOM      6  C   UNL     1       1.908   8.372  18.889  0.00  0.00    +0.000 A 
ATOM      7  C   UNL     1       1.273   8.592  20.098  0.00  0.00    +0.000 A 
ATOM      8  N   UNL     1       1.122   7.408  20.777  0.00  0.00    +0.000 NA
ATOM      9  C   UNL     1       1.640   6.455  20.015  0.00  0.00    +0.000 A 
ATOM     10  N   UNL     1       2.176   7.022  18.847  0.00  0.00    +0.000 N 
ENDROOT
BRANCH  10  11
ATOM     11  C   UNL     1       2.908   6.313  17.810  0.00  0.00    +0.000 C 
ATOM     12  C   UNL     1       2.763   4.774  17.676  0.00  0.00    +0.000 C 
ATOM     13  C   UNL     1       4.230   4.295  17.606  0.00  0.00    +0.000 C 
ATOM     14  C   UNL     1       4.854   4.774  16.282  0.00  0.00    +0.000 C 
ATOM     15  C   UNL     1       5.052   6.278  16.517  0.00  0.00    +0.000 C 
ATOM     16  C   UNL     1       4.452   6.484  17.923  0.00  0.00    +0.000 C 
ATOM     17  C   UNL     1       4.908   5.206  18.621  0.00  0.00    +0.000 C 
ENDBRANCH  10  11
BRANCH   9  18
ATOM     18  C   UNL     1       1.664   5.032  20.425  0.00  0.00    +0.000 A 
ATOM     19  C   UNL     1       0.750   4.077  19.967  0.00  0.00    +0.000 A 
ATOM     20  C   UNL     1       0.843   2.729  20.321  0.00  0.00    +0.000 A 
ATOM     21  C   UNL     1       1.821   2.315  21.213  0.00  0.00    +0.000 A 
ATOM     22  C   UNL     1       2.698   3.255  21.748  0.00  0.00    +0.000 A 
ATOM     23  C   UNL     1       2.623   4.599  21.354  0.00  0.00    +0.000 A 
ENDBRANCH   9  18
TORSDOF 2
ENDMDL
MODEL 7
REMARK VINA RESULT:      -7.5      3.351      5.716
REMARK  Name = 
REMARK  2 active torsions:
REMARK  status: ('A' for Active; 'I' for Inactive)
REMARK    1  A    between atoms: C_9  and  C_10
REMARK    2  A    between atoms: N_16  and  C_17
REMARK                            x       y       z     vdW  Elec       q    Type
REMARK                         _______ _______ _______ _____ _____    ______ ____
ROOT
ATOM      1 CL   UNL     1       8.032   7.721  16.988  0.00  0.00    +0.000 Cl
ATOM      2  C   UNL     1       7.055   6.342  16.842  0.00  0.00    +0.000 A 
ATOM      3  N   UNL     1       7.588   5.230  16.304  0.00  0.00    +0.000 NA
ATOM      4  C   UNL     1       6.772   4.170  16.208  0.00  0.00    +0.000 A 
ATOM      5  N   UNL     1       5.481   4.083  16.581  0.00  0.00    +0.000 NA
ATOM      6  C   UNL     1       5.022   5.224  17.128  0.00  0.00    +0.000 A 
ATOM      7  C   UNL     1       5.741   6.394  17.291  0.00  0.00    +0.000 A 
ATOM      8  N   UNL     1       4.956   7.357  17.874  0.00  0.00    +0.000 NA
ATOM      9  C   UNL     1       3.761   6.816  18.070  0.00  0.00    +0.000 A 
ATOM     10  N   UNL     1       3.774   5.475  17.654  0.00  0.00    +0.000 N 
ENDROOT
BRANCH  10  11
ATOM     11  C   UNL     1       2.682   4.526  17.793  0.00  0.00    +0.000 C 
ATOM     12  C   UNL     1       1.355   4.967  18.466  0.00  0.00    +0.000 C 
ATOM     13  C   UNL     1       1.101   3.843  19.495  0.00  0.00    +0.000 C 
ATOM     14  C   UNL     1       0.777   2.537  18.745  0.00  0.00    +0.000 C 
ATOM     15  C   UNL     1       2.141   2.112  18.184  0.00  0.00    +0.000 C 
ATOM     16  C   UNL     1       3.064   3.267  18.626  0.00  0.00    +0.000 C 
ATOM     17  C   UNL     1       2.507   3.567  20.014  0.00  0.00    +0.000 C 
ENDBRANCH  10  11
BRANCH   9  18
ATOM     18  C   UNL     1       2.642   7.562  18.692  0.00  0.00    +0.000 A 
ATOM     19  C   UNL     1       2.222   7.370  20.013  0.00  0.00    +0.000 A 
ATOM     20  C   UNL     1       1.208   8.139  20.589  0.00  0.00    +0.000 A 
ATOM     21  C   UNL     1       0.531   9.076  19.822  0.00  0.00    +0.000 A 
ATOM     22  C   UNL     1       0.873   9.237  18.482  0.00  0.00    +0.000 A 
ATOM     23  C   UNL     1       1.921   8.490  17.924  0.00  0.00    +0.000 A 
ENDBRANCH   9  18
TORSDOF 2
ENDMDL
MODEL 8
REMARK VINA RESULT:      -7.3      2.786      4.062
REMARK  Name = 
REMARK  2 active torsions:
REMARK  status: ('A' for Active; 'I' for Inactive)
REMARK    1  A    between atoms: C_9  and  C_10
REMARK    2  A    between atoms: N_16  and  C_17
REMARK                            x       y       z     vdW  Elec       q    Type
REMARK                         _______ _______ _______ _____ _____    ______ ____
ROOT
ATOM      1 CL   UNL     1       0.367   1.974  18.803  0.00  0.00    +0.000 Cl
ATOM      2  C   UNL     1       2.014   2.377  18.773  0.00  0.00    +0.000 A 
ATOM      3  N   UNL     1       2.919   1.383  18.727  0.00  0.00    +0.000 NA
ATOM      4  C   UNL     1       4.207   1.756  18.710  0.00  0.00    +0.000 A 
ATOM      5  N   UNL     1       4.708   3.005  18.737  0.00  0.00    +0.000 NA
ATOM      6  C   UNL     1       3.747   3.947  18.764  0.00  0.00    +0.000 A 
ATOM      7  C   UNL     1       2.383   3.717  18.787  0.00  0.00    +0.000 A 
ATOM      8  N   UNL     1       1.701   4.907  18.821  0.00  0.00    +0.000 NA
ATOM      9  C   UNL     1       2.609   5.874  18.829  0.00  0.00    +0.000 A 
ATOM     10  N   UNL     1       3.895   5.316  18.753  0.00  0.00    +0.000 N 
ENDROOT
BRANCH  10  11
ATOM     11  C   UNL     1       5.143   6.055  18.647  0.00  0.00    +0.000 C 
ATOM     12  C   UNL     1       5.449   6.875  17.365  0.00  0.00    +0.000 C 
ATOM     13  C   UNL     1       6.879   6.420  16.999  0.00  0.00    +0.000 C 
ATOM     14  C   UNL     1       7.861   6.932  18.070  0.00  0.00    +0.000 C 
ATOM     15  C   UNL     1       7.568   6.024  19.272  0.00  0.00    +0.000 C 
ATOM     16  C   UNL     1       6.405   5.150  18.760  0.00  0.00    +0.000 C 
ATOM     17  C   UNL     1       6.825   4.929  17.310  0.00  0.00    +0.000 C 
ENDBRANCH  10  11
BRANCH   9  18
ATOM     18  C   UNL     1       2.243   7.310  18.857  0.00  0.00    +0.000 A 
ATOM     19  C   UNL     1       2.374   8.165  17.758  0.00  0.00    +0.000 A 
ATOM     20  C   UNL     1       1.956   9.497  17.798  0.00  0.00    +0.000 A 
ATOM     21  C   UNL     1       1.460  10.029  18.980  0.00  0.00    +0.000 A 
ATOM     22  C   UNL     1       1.389   9.226  20.114  0.00  0.00    +0.000 A 
ATOM     23  C   UNL     1       1.772   7.878  20.052  0.00  0.00    +0.000 A 
ENDBRANCH   9  18
TORSDOF 2
ENDMDL
MODEL 9
REMARK VINA RESULT:      -7.3      2.945      5.816
REMARK  Name = 
REMARK  2 active torsions:
REMARK  status: ('A' for Active; 'I' for Inactive)
REMARK    1  A    between atoms: C_9  and  C_10
REMARK    2  A    between atoms: N_16  and  C_17
REMARK                            x       y       z     vdW  Elec       q    Type
REMARK                         _______ _______ _______ _____ _____    ______ ____
ROOT
ATOM      1 CL   UNL     1       4.517   3.052  11.599  0.00  0.00    +0.000 Cl
ATOM      2  C   UNL     1       5.791   3.836  12.396  0.00  0.00    +0.000 A 
ATOM      3  N   UNL     1       6.848   4.245  11.673  0.00  0.00    +0.000 NA
ATOM      4  C   UNL     1       7.830   4.856  12.353  0.00  0.00    +0.000 A 
ATOM      5  N   UNL     1       7.889   5.108  13.674  0.00  0.00    +0.000 NA
ATOM      6  C   UNL     1       6.791   4.689  14.331  0.00  0.00    +0.000 A 
ATOM      7  C   UNL     1       5.704   4.044  13.768  0.00  0.00    +0.000 A 
ATOM      8  N   UNL     1       4.772   3.755  14.733  0.00  0.00    +0.000 NA
ATOM      9  C   UNL     1       5.257   4.196  15.885  0.00  0.00    +0.000 A 
ATOM     10  N   UNL     1       6.497   4.820  15.669  0.00  0.00    +0.000 N 
ENDROOT
BRANCH  10  11
ATOM     11  C   UNL     1       7.294   5.507  16.672  0.00  0.00    +0.000 C 
ATOM     12  C   UNL     1       7.658   4.787  17.998  0.00  0.00    +0.000 C 
ATOM     13  C   UNL     1       7.275   5.828  19.072  0.00  0.00    +0.000 C 
ATOM     14  C   UNL     1       8.231   7.032  18.971  0.00  0.00    +0.000 C 
ATOM     15  C   UNL     1       7.760   7.745  17.697  0.00  0.00    +0.000 C 
ATOM     16  C   UNL     1       6.634   6.820  17.188  0.00  0.00    +0.000 C 
ATOM     17  C   UNL     1       5.983   6.406  18.504  0.00  0.00    +0.000 C 
ENDBRANCH  10  11
BRANCH   9  18
ATOM     18  C   UNL     1       4.519   4.064  17.163  0.00  0.00    +0.000 A 
ATOM     19  C   UNL     1       4.819   3.105  18.137  0.00  0.00    +0.000 A 
ATOM     20  C   UNL     1       4.147   3.052  19.360  0.00  0.00    +0.000 A 
ATOM     21  C   UNL     1       3.095   3.922  19.608  0.00  0.00    +0.000 A 
ATOM     22  C   UNL     1       2.720   4.837  18.628  0.00  0.00    +0.000 A 
ATOM     23  C   UNL     1       3.429   4.910  17.420  0.00  0.00    +0.000 A 
ENDBRANCH   9  18
TORSDOF 2
ENDMDL
