MODEL 1
REMARK VINA RESULT:      -8.9      0.000      0.000
REMARK  Name = 
REMARK  12 active torsions:
REMARK  status: ('A' for Active; 'I' for Inactive)
REMARK    1  A    between atoms: C_1  and  C_2
REMARK    2  A    between atoms: C_2  and  C_3
REMARK    3  A    between atoms: C_2  and  C_4
REMARK    4  A    between atoms: C_4  and  N_5
REMARK    5  A    between atoms: N_5  and  C_6
REMARK    6  A    between atoms: N_5  and  S_26
REMARK    7  A    between atoms: C_9  and  C_10
REMARK    8  A    between atoms: C_10  and  O_11
REMARK    9  A    between atoms: C_10  and  C_12
REMARK   10  A    between atoms: C_10  and  C_20
REMARK   11  A    between atoms: C_13  and  C_14
REMARK   12  A    between atoms: S_26  and  C_29
REMARK                            x       y       z     vdW  Elec       q    Type
REMARK                         _______ _______ _______ _____ _____    ______ ____
ROOT
ATOM      1  C   UNL     1       2.864   6.601  18.580  0.00  0.00    +0.000 A 
ATOM      2  C   UNL     1       2.532   7.764  17.885  0.00  0.00    +0.000 A 
ATOM      3  C   UNL     1       1.883   8.808  18.534  0.00  0.00    +0.000 A 
ATOM      4  C   UNL     1       1.449   8.657  19.862  0.00  0.00    +0.000 A 
ATOM      5  C   UNL     1       1.854   7.513  20.570  0.00  0.00    +0.000 A 
ATOM      6  C   UNL     1       2.603   6.516  19.947  0.00  0.00    +0.000 A 
ENDROOT
BRANCH   1   7
ATOM      7  N   UNL     1       3.507   5.527  17.876  0.00  0.00    +0.000 N 
BRANCH   7   8
ATOM      8  S   UNL     1       2.513   4.129  17.617  0.00  0.00    +0.000 S 
ATOM      9  O   UNL     1       1.186   4.603  17.246  0.00  0.00    +0.000 OA
ATOM     10  O   UNL     1       3.206   3.182  16.786  0.00  0.00    +0.000 OA
BRANCH   8  11
ATOM     11  C   UNL     1       2.354   3.391  19.246  0.00  0.00    +0.000 A 
ATOM     12  C   UNL     1       1.099   3.337  19.865  0.00  0.00    +0.000 A 
ATOM     13  C   UNL     1       0.999   2.879  21.180  0.00  0.00    +0.000 A 
ATOM     14  C   UNL     1       2.143   2.465  21.863  0.00  0.00    +0.000 A 
ATOM     15  C   UNL     1       3.372   2.416  21.203  0.00  0.00    +0.000 A 
ATOM     16  C   UNL     1       3.473   2.841  19.876  0.00  0.00    +0.000 A 
ENDBRANCH   8  11
ENDBRANCH   7   8
BRANCH   7  17
ATOM     17  C   UNL     1       4.507   5.879  16.795  0.00  0.00    +0.000 C 
BRANCH  17  19
ATOM     18  C   UNL     1       6.653   7.124  17.401  0.00  0.00    +0.000 C 
ATOM     19  C   UNL     1       6.001   5.753  17.231  0.00  0.00    +0.000 C 
ATOM     20  C   UNL     1       6.175   5.022  18.580  0.00  0.00    +0.000 C 
ENDBRANCH  17  19
ENDBRANCH   7  17
ENDBRANCH   1   7
BRANCH   4  21
ATOM     21  C   UNL     1       0.527   9.697  20.481  0.00  0.00    +0.000 C 
BRANCH  21  22
ATOM     22  C   UNL     1      -0.122   9.246  21.849  0.00  0.00    +0.000 C 
ATOM     23  F   UNL     1      -0.820   8.089  21.744  0.00  0.00    +0.000 F 
ATOM     24  F   UNL     1       0.810   9.053  22.817  0.00  0.00    +0.000 F 
ATOM     25  F   UNL     1      -0.991  10.170  22.339  0.00  0.00    +0.000 F 
ENDBRANCH  21  22
BRANCH  21  26
ATOM     26  O   UNL     1       1.279  10.923  20.649  0.00  0.00    +0.000 OA
ATOM     27  H   UNL     1       1.405  11.047  21.606  0.00  0.00    +0.000 HD
ENDBRANCH  21  26
BRANCH  21  28
ATOM     28  C   UNL     1      -0.586  10.070  19.516  0.00  0.00    +0.000 C 
ATOM     29  C   UNL     1      -1.542  10.389  18.688  0.00  0.00    +0.000 C 
BRANCH  29  30
ATOM     30  C   UNL     1      -2.619  10.727  17.813  0.00  0.00    +0.000 A 
ATOM     31  C   UNL     1      -2.578  10.389  16.463  0.00  0.00    +0.000 A 
ATOM     32  C   UNL     1      -3.621  10.785  15.627  0.00  0.00    +0.000 A 
ATOM     33  C   UNL     1      -4.670  11.506  16.177  0.00  0.00    +0.000 A 
ATOM     34  N   UNL     1      -4.750  11.832  17.486  0.00  0.00    +0.000 NA
ATOM     35  C   UNL     1      -3.723  11.432  18.274  0.00  0.00    +0.000 A 
ENDBRANCH  29  30
ENDBRANCH  21  28
ENDBRANCH   4  21
TORSDOF 10
ENDMDL
MODEL 2
REMARK VINA RESULT:      -8.8      0.579      1.007
REMARK  Name = 
REMARK  12 active torsions:
REMARK  status: ('A' for Active; 'I' for Inactive)
REMARK    1  A    between atoms: C_1  and  C_2
REMARK    2  A    between atoms: C_2  and  C_3
REMARK    3  A    between atoms: C_2  and  C_4
REMARK    4  A    between atoms: C_4  and  N_5
REMARK    5  A    between atoms: N_5  and  C_6
REMARK    6  A    between atoms: N_5  and  S_26
REMARK    7  A    between atoms: C_9  and  C_10
REMARK    8  A    between atoms: C_10  and  O_11
REMARK    9  A    between atoms: C_10  and  C_12
REMARK   10  A    between atoms: C_10  and  C_20
REMARK   11  A    between atoms: C_13  and  C_14
REMARK   12  A    between atoms: S_26  and  C_29
REMARK                            x       y       z     vdW  Elec       q    Type
REMARK                         _______ _______ _______ _____ _____    ______ ____
ROOT
ATOM      1  C   UNL     1       2.877   6.620  18.612  0.00  0.00    +0.000 A 
ATOM      2  C   UNL     1       2.550   7.786  17.921  0.00  0.00    +0.000 A 
ATOM      3  C   UNL     1       1.889   8.825  18.569  0.00  0.00    +0.000 A 
ATOM      4  C   UNL     1       1.439   8.664  19.889  0.00  0.00    +0.000 A 
ATOM      5  C   UNL     1       1.838   7.516  20.596  0.00  0.00    +0.000 A 
ATOM      6  C   UNL     1       2.599   6.525  19.976  0.00  0.00    +0.000 A 
ENDROOT
BRANCH   1   7
ATOM      7  N   UNL     1       3.532   5.553  17.910  0.00  0.00    +0.000 N 
BRANCH   7   8
ATOM      8  S   UNL     1       2.545   4.155  17.625  0.00  0.00    +0.000 S 
ATOM      9  O   UNL     1       1.224   4.631  17.234  0.00  0.00    +0.000 OA
ATOM     10  O   UNL     1       3.254   3.215  16.800  0.00  0.00    +0.000 OA
BRANCH   8  11
ATOM     11  C   UNL     1       2.359   3.406  19.246  0.00  0.00    +0.000 A 
ATOM     12  C   UNL     1       1.093   3.344  19.841  0.00  0.00    +0.000 A 
ATOM     13  C   UNL     1       0.971   2.877  21.151  0.00  0.00    +0.000 A 
ATOM     14  C   UNL     1       2.104   2.463  21.852  0.00  0.00    +0.000 A 
ATOM     15  C   UNL     1       3.345   2.422  21.215  0.00  0.00    +0.000 A 
ATOM     16  C   UNL     1       3.469   2.857  19.892  0.00  0.00    +0.000 A 
ENDBRANCH   8  11
ENDBRANCH   7   8
BRANCH   7  17
ATOM     17  C   UNL     1       4.548   5.915  16.847  0.00  0.00    +0.000 C 
BRANCH  17  19
ATOM     18  C   UNL     1       6.138   5.191  18.711  0.00  0.00    +0.000 C 
ATOM     19  C   UNL     1       6.035   5.735  17.286  0.00  0.00    +0.000 C 
ATOM     20  C   UNL     1       6.812   4.746  16.391  0.00  0.00    +0.000 C 
ENDBRANCH  17  19
ENDBRANCH   7  17
ENDBRANCH   1   7
BRANCH   4  21
ATOM     21  C   UNL     1       0.506   9.696  20.504  0.00  0.00    +0.000 C 
BRANCH  21  22
ATOM     22  C   UNL     1      -0.173   9.227  21.851  0.00  0.00    +0.000 C 
ATOM     23  F   UNL     1      -0.870   8.073  21.716  0.00  0.00    +0.000 F 
ATOM     24  F   UNL     1       0.739   9.021  22.836  0.00  0.00    +0.000 F 
ATOM     25  F   UNL     1      -1.051  10.145  22.335  0.00  0.00    +0.000 F 
ENDBRANCH  21  22
BRANCH  21  26
ATOM     26  O   UNL     1       1.256  10.919  20.705  0.00  0.00    +0.000 OA
ATOM     27  H   UNL     1       2.071  10.838  20.179  0.00  0.00    +0.000 HD
ENDBRANCH  21  26
BRANCH  21  28
ATOM     28  C   UNL     1      -0.586  10.084  19.521  0.00  0.00    +0.000 C 
ATOM     29  C   UNL     1      -1.523  10.418  18.677  0.00  0.00    +0.000 C 
BRANCH  29  30
ATOM     30  C   UNL     1      -2.525  10.763  17.719  0.00  0.00    +0.000 A 
ATOM     31  C   UNL     1      -3.713  11.372  18.114  0.00  0.00    +0.000 A 
ATOM     32  C   UNL     1      -4.692  11.643  17.159  0.00  0.00    +0.000 A 
ATOM     33  C   UNL     1      -4.443  11.294  15.841  0.00  0.00    +0.000 A 
ATOM     34  N   UNL     1      -3.293  10.721  15.422  0.00  0.00    +0.000 NA
ATOM     35  C   UNL     1      -2.359  10.472  16.372  0.00  0.00    +0.000 A 
ENDBRANCH  29  30
ENDBRANCH  21  28
ENDBRANCH   4  21
TORSDOF 10
ENDMDL
MODEL 3
REMARK VINA RESULT:      -8.7      0.095      1.057
REMARK  Name = 
REMARK  12 active torsions:
REMARK  status: ('A' for Active; 'I' for Inactive)
REMARK    1  A    between atoms: C_1  and  C_2
REMARK    2  A    between atoms: C_2  and  C_3
REMARK    3  A    between atoms: C_2  and  C_4
REMARK    4  A    between atoms: C_4  and  N_5
REMARK    5  A    between atoms: N_5  and  C_6
REMARK    6  A    between atoms: N_5  and  S_26
REMARK    7  A    between atoms: C_9  and  C_10
REMARK    8  A    between atoms: C_10  and  O_11
REMARK    9  A    between atoms: C_10  and  C_12
REMARK   10  A    between atoms: C_10  and  C_20
REMARK   11  A    between atoms: C_13  and  C_14
REMARK   12  A    between atoms: S_26  and  C_29
REMARK                            x       y       z     vdW  Elec       q    Type
REMARK                         _______ _______ _______ _____ _____    ______ ____
ROOT
ATOM      1  C   UNL     1       2.901   6.653  18.574  0.00  0.00    +0.000 A 
ATOM      2  C   UNL     1       2.527   7.793  17.863  0.00  0.00    +0.000 A 
ATOM      3  C   UNL     1       1.867   8.836  18.505  0.00  0.00    +0.000 A 
ATOM      4  C   UNL     1       1.465   8.702  19.845  0.00  0.00    +0.000 A 
ATOM      5  C   UNL     1       1.912   7.582  20.567  0.00  0.00    +0.000 A 
ATOM      6  C   UNL     1       2.671   6.590  19.948  0.00  0.00    +0.000 A 
ENDROOT
BRANCH   1   7
ATOM      7  N   UNL     1       3.554   5.580  17.878  0.00  0.00    +0.000 N 
BRANCH   7   8
ATOM      8  S   UNL     1       2.587   4.155  17.666  0.00  0.00    +0.000 S 
ATOM      9  O   UNL     1       1.266   4.589  17.229  0.00  0.00    +0.000 OA
ATOM     10  O   UNL     1       3.319   3.175  16.910  0.00  0.00    +0.000 OA
BRANCH   8  11
ATOM     11  C   UNL     1       2.387   3.505  19.328  0.00  0.00    +0.000 A 
ATOM     12  C   UNL     1       3.503   3.033  20.028  0.00  0.00    +0.000 A 
ATOM     13  C   UNL     1       3.327   2.413  21.267  0.00  0.00    +0.000 A 
ATOM     14  C   UNL     1       2.046   2.280  21.804  0.00  0.00    +0.000 A 
ATOM     15  C   UNL     1       0.952   2.852  21.153  0.00  0.00    +0.000 A 
ATOM     16  C   UNL     1       1.126   3.504  19.929  0.00  0.00    +0.000 A 
ENDBRANCH   8  11
ENDBRANCH   7   8
BRANCH   7  17
ATOM     17  C   UNL     1       4.524   5.933  16.770  0.00  0.00    +0.000 C 
BRANCH  17  19
ATOM     18  C   UNL     1       6.691   7.121  17.417  0.00  0.00    +0.000 C 
ATOM     19  C   UNL     1       6.029   5.769  17.152  0.00  0.00    +0.000 C 
ATOM     20  C   UNL     1       6.238   4.929  18.431  0.00  0.00    +0.000 C 
ENDBRANCH  17  19
ENDBRANCH   7  17
ENDBRANCH   1   7
BRANCH   4  21
ATOM     21  C   UNL     1       0.532   9.732  20.463  0.00  0.00    +0.000 C 
BRANCH  21  22
ATOM     22  C   UNL     1      -0.111   9.276  21.832  0.00  0.00    +0.000 C 
ATOM     23  F   UNL     1       0.811   9.077  22.806  0.00  0.00    +0.000 F 
ATOM     24  F   UNL     1      -0.993  10.190  22.310  0.00  0.00    +0.000 F 
ATOM     25  F   UNL     1      -0.800   8.109  21.718  0.00  0.00    +0.000 F 
ENDBRANCH  21  22
BRANCH  21  26
ATOM     26  O   UNL     1       1.270  10.967  20.628  0.00  0.00    +0.000 OA
ATOM     27  H   UNL     1       0.961  11.575  19.934  0.00  0.00    +0.000 HD
ENDBRANCH  21  26
BRANCH  21  28
ATOM     28  C   UNL     1      -0.587  10.090  19.498  0.00  0.00    +0.000 C 
ATOM     29  C   UNL     1      -1.547  10.397  18.671  0.00  0.00    +0.000 C 
BRANCH  29  30
ATOM     30  C   UNL     1      -2.626  10.737  17.800  0.00  0.00    +0.000 A 
ATOM     31  C   UNL     1      -2.586  10.409  16.447  0.00  0.00    +0.000 A 
ATOM     32  C   UNL     1      -3.632  10.807  15.616  0.00  0.00    +0.000 A 
ATOM     33  C   UNL     1      -4.683  11.519  16.173  0.00  0.00    +0.000 A 
ATOM     34  N   UNL     1      -4.763  11.835  17.485  0.00  0.00    +0.000 NA
ATOM     35  C   UNL     1      -3.733  11.433  18.268  0.00  0.00    +0.000 A 
ENDBRANCH  29  30
ENDBRANCH  21  28
ENDBRANCH   4  21
TORSDOF 10
ENDMDL
MODEL 4
REMARK VINA RESULT:      -8.5      0.608      1.469
REMARK  Name = 
REMARK  12 active torsions:
REMARK  status: ('A' for Active; 'I' for Inactive)
REMARK    1  A    between atoms: C_1  and  C_2
REMARK    2  A    between atoms: C_2  and  C_3
REMARK    3  A    between atoms: C_2  and  C_4
REMARK    4  A    between atoms: C_4  and  N_5
REMARK    5  A    between atoms: N_5  and  C_6
REMARK    6  A    between atoms: N_5  and  S_26
REMARK    7  A    between atoms: C_9  and  C_10
REMARK    8  A    between atoms: C_10  and  O_11
REMARK    9  A    between atoms: C_10  and  C_12
REMARK   10  A    between atoms: C_10  and  C_20
REMARK   11  A    between atoms: C_13  and  C_14
REMARK   12  A    between atoms: S_26  and  C_29
REMARK                            x       y       z     vdW  Elec       q    Type
REMARK                         _______ _______ _______ _____ _____    ______ ____
ROOT
ATOM      1  C   UNL     1       2.855   6.735  18.585  0.00  0.00    +0.000 A 
ATOM      2  C   UNL     1       2.486   7.896  17.905  0.00  0.00    +0.000 A 
ATOM      3  C   UNL     1       1.821   8.919  18.573  0.00  0.00    +0.000 A 
ATOM      4  C   UNL     1       1.410   8.745  19.905  0.00  0.00    +0.000 A 
ATOM      5  C   UNL     1       1.852   7.605  20.598  0.00  0.00    +0.000 A 
ATOM      6  C   UNL     1       2.616   6.632  19.955  0.00  0.00    +0.000 A 
ENDROOT
BRANCH   1   7
ATOM      7  N   UNL     1       3.514   5.684  17.862  0.00  0.00    +0.000 N 
BRANCH   7   8
ATOM      8  S   UNL     1       2.567   4.246  17.646  0.00  0.00    +0.000 S 
ATOM      9  O   UNL     1       1.236   4.663  17.226  0.00  0.00    +0.000 OA
ATOM     10  O   UNL     1       3.307   3.284  16.874  0.00  0.00    +0.000 OA
BRANCH   8  11
ATOM     11  C   UNL     1       2.393   3.577  19.303  0.00  0.00    +0.000 A 
ATOM     12  C   UNL     1       3.516   3.080  19.973  0.00  0.00    +0.000 A 
ATOM     13  C   UNL     1       3.357   2.447  21.208  0.00  0.00    +0.000 A 
ATOM     14  C   UNL     1       2.087   2.326  21.770  0.00  0.00    +0.000 A 
ATOM     15  C   UNL     1       0.988   2.922  21.151  0.00  0.00    +0.000 A 
ATOM     16  C   UNL     1       1.145   3.587  19.932  0.00  0.00    +0.000 A 
ENDBRANCH   8  11
ENDBRANCH   7   8
BRANCH   7  17
ATOM     17  C   UNL     1       4.459   6.068  16.743  0.00  0.00    +0.000 C 
BRANCH  17  19
ATOM     18  C   UNL     1       6.490   5.028  15.594  0.00  0.00    +0.000 C 
ATOM     19  C   UNL     1       5.916   5.536  16.917  0.00  0.00    +0.000 C 
ATOM     20  C   UNL     1       6.895   6.617  17.424  0.00  0.00    +0.000 C 
ENDBRANCH  17  19
ENDBRANCH   7  17
ENDBRANCH   1   7
BRANCH   4  21
ATOM     21  C   UNL     1       0.471   9.756  20.547  0.00  0.00    +0.000 C 
BRANCH  21  22
ATOM     22  C   UNL     1      -0.187   9.257  21.894  0.00  0.00    +0.000 C 
ATOM     23  F   UNL     1      -1.079  10.141  22.403  0.00  0.00    +0.000 F 
ATOM     24  F   UNL     1      -0.848   8.082  21.733  0.00  0.00    +0.000 F 
ATOM     25  F   UNL     1       0.734   9.042  22.871  0.00  0.00    +0.000 F 
ENDBRANCH  21  22
BRANCH  21  26
ATOM     26  O   UNL     1       1.210  10.984  20.761  0.00  0.00    +0.000 OA
ATOM     27  H   UNL     1       2.145  10.736  20.862  0.00  0.00    +0.000 HD
ENDBRANCH  21  26
BRANCH  21  28
ATOM     28  C   UNL     1      -0.636  10.149  19.583  0.00  0.00    +0.000 C 
ATOM     29  C   UNL     1      -1.586  10.486  18.755  0.00  0.00    +0.000 C 
BRANCH  29  30
ATOM     30  C   UNL     1      -2.595  10.855  17.815  0.00  0.00    +0.000 A 
ATOM     31  C   UNL     1      -3.799  11.413  18.238  0.00  0.00    +0.000 A 
ATOM     32  C   UNL     1      -4.784  11.708  17.297  0.00  0.00    +0.000 A 
ATOM     33  C   UNL     1      -4.524  11.434  15.962  0.00  0.00    +0.000 A 
ATOM     34  N   UNL     1      -3.360  10.912  15.517  0.00  0.00    +0.000 NA
ATOM     35  C   UNL     1      -2.422  10.638  16.454  0.00  0.00    +0.000 A 
ENDBRANCH  29  30
ENDBRANCH  21  28
ENDBRANCH   4  21
TORSDOF 10
ENDMDL
MODEL 5
REMARK VINA RESULT:      -8.4      0.715      1.445
REMARK  Name = 
REMARK  12 active torsions:
REMARK  status: ('A' for Active; 'I' for Inactive)
REMARK    1  A    between atoms: C_1  and  C_2
REMARK    2  A    between atoms: C_2  and  C_3
REMARK    3  A    between atoms: C_2  and  C_4
REMARK    4  A    between atoms: C_4  and  N_5
REMARK    5  A    between atoms: N_5  and  C_6
REMARK    6  A    between atoms: N_5  and  S_26
REMARK    7  A    between atoms: C_9  and  C_10
REMARK    8  A    between atoms: C_10  and  O_11
REMARK    9  A    between atoms: C_10  and  C_12
REMARK   10  A    between atoms: C_10  and  C_20
REMARK   11  A    between atoms: C_13  and  C_14
REMARK   12  A    between atoms: S_26  and  C_29
REMARK                            x       y       z     vdW  Elec       q    Type
REMARK                         _______ _______ _______ _____ _____    ______ ____
ROOT
ATOM      1  C   UNL     1       2.651   6.848  18.597  0.00  0.00    +0.000 A 
ATOM      2  C   UNL     1       2.235   6.759  19.925  0.00  0.00    +0.000 A 
ATOM      3  C   UNL     1       1.459   7.767  20.487  0.00  0.00    +0.000 A 
ATOM      4  C   UNL     1       1.184   8.938  19.761  0.00  0.00    +0.000 A 
ATOM      5  C   UNL     1       1.545   8.983  18.403  0.00  0.00    +0.000 A 
ATOM      6  C   UNL     1       2.227   7.920  17.811  0.00  0.00    +0.000 A 
ENDROOT
BRANCH   1   7
ATOM      7  N   UNL     1       3.477   5.807  18.053  0.00  0.00    +0.000 N 
BRANCH   7   8
ATOM      8  S   UNL     1       2.638   4.336  17.675  0.00  0.00    +0.000 S 
ATOM      9  O   UNL     1       1.301   4.703  17.226  0.00  0.00    +0.000 OA
ATOM     10  O   UNL     1       3.472   3.492  16.863  0.00  0.00    +0.000 OA
BRANCH   8  11
ATOM     11  C   UNL     1       2.437   3.519  19.261  0.00  0.00    +0.000 A 
ATOM     12  C   UNL     1       1.170   3.451  19.852  0.00  0.00    +0.000 A 
ATOM     13  C   UNL     1       1.039   2.929  21.140  0.00  0.00    +0.000 A 
ATOM     14  C   UNL     1       2.163   2.467  21.823  0.00  0.00    +0.000 A 
ATOM     15  C   UNL     1       3.404   2.434  21.185  0.00  0.00    +0.000 A 
ATOM     16  C   UNL     1       3.537   2.924  19.884  0.00  0.00    +0.000 A 
ENDBRANCH   8  11
ENDBRANCH   7   8
BRANCH   7  17
ATOM     17  C   UNL     1       4.626   6.204  17.151  0.00  0.00    +0.000 C 
BRANCH  17  19
ATOM     18  C   UNL     1       6.140   5.352  19.025  0.00  0.00    +0.000 C 
ATOM     19  C   UNL     1       5.998   6.356  17.881  0.00  0.00    +0.000 C 
ATOM     20  C   UNL     1       7.205   6.120  16.948  0.00  0.00    +0.000 C 
ENDBRANCH  17  19
ENDBRANCH   7  17
ENDBRANCH   1   7
BRANCH   4  21
ATOM     21  C   UNL     1       0.554  10.134  20.460  0.00  0.00    +0.000 C 
BRANCH  21  22
ATOM     22  C   UNL     1       0.226   9.886  21.985  0.00  0.00    +0.000 C 
ATOM     23  F   UNL     1      -0.739   8.953  22.172  0.00  0.00    +0.000 F 
ATOM     24  F   UNL     1       1.315   9.467  22.679  0.00  0.00    +0.000 F 
ATOM     25  F   UNL     1      -0.210  11.012  22.610  0.00  0.00    +0.000 F 
ENDBRANCH  21  22
BRANCH  21  26
ATOM     26  O   UNL     1       1.442  11.267  20.303  0.00  0.00    +0.000 OA
ATOM     27  H   UNL     1       1.467  11.726  21.160  0.00  0.00    +0.000 HD
ENDBRANCH  21  26
BRANCH  21  28
ATOM     28  C   UNL     1      -0.722  10.557  19.752  0.00  0.00    +0.000 C 
ATOM     29  C   UNL     1      -1.817  10.922  19.145  0.00  0.00    +0.000 C 
BRANCH  29  30
ATOM     30  C   UNL     1      -2.994  11.320  18.440  0.00  0.00    +0.000 A 
ATOM     31  C   UNL     1      -4.057  11.926  19.104  0.00  0.00    +0.000 A 
ATOM     32  C   UNL     1      -5.212  12.249  18.394  0.00  0.00    +0.000 A 
ATOM     33  C   UNL     1      -5.259  11.953  17.040  0.00  0.00    +0.000 A 
ATOM     34  N   UNL     1      -4.238  11.384  16.361  0.00  0.00    +0.000 NA
ATOM     35  C   UNL     1      -3.128  11.084  17.078  0.00  0.00    +0.000 A 
ENDBRANCH  29  30
ENDBRANCH  21  28
ENDBRANCH   4  21
TORSDOF 10
ENDMDL
MODEL 6
REMARK VINA RESULT:      -8.3      3.270      4.044
REMARK  Name = 
REMARK  12 active torsions:
REMARK  status: ('A' for Active; 'I' for Inactive)
REMARK    1  A    between atoms: C_1  and  C_2
REMARK    2  A    between atoms: C_2  and  C_3
REMARK    3  A    between atoms: C_2  and  C_4
REMARK    4  A    between atoms: C_4  and  N_5
REMARK    5  A    between atoms: N_5  and  C_6
REMARK    6  A    between atoms: N_5  and  S_26
REMARK    7  A    between atoms: C_9  and  C_10
REMARK    8  A    between atoms: C_10  and  O_11
REMARK    9  A    between atoms: C_10  and  C_12
REMARK   10  A    between atoms: C_10  and  C_20
REMARK   11  A    between atoms: C_13  and  C_14
REMARK   12  A    between atoms: S_26  and  C_29
REMARK                            x       y       z     vdW  Elec       q    Type
REMARK                         _______ _______ _______ _____ _____    ______ ____
ROOT
ATOM      1  C   UNL     1       2.940   6.961  18.376  0.00  0.00    +0.000 A 
ATOM      2  C   UNL     1       2.865   8.020  17.470  0.00  0.00    +0.000 A 
ATOM      3  C   UNL     1       2.171   9.179  17.801  0.00  0.00    +0.000 A 
ATOM      4  C   UNL     1       1.440   9.250  18.998  0.00  0.00    +0.000 A 
ATOM      5  C   UNL     1       1.584   8.209  19.932  0.00  0.00    +0.000 A 
ATOM      6  C   UNL     1       2.373   7.096  19.643  0.00  0.00    +0.000 A 
ENDROOT
BRANCH   1   7
ATOM      7  N   UNL     1       3.638   5.766  17.995  0.00  0.00    +0.000 N 
BRANCH   7   8
ATOM      8  S   UNL     1       2.623   4.382  17.740  0.00  0.00    +0.000 S 
ATOM      9  O   UNL     1       1.300   4.875  17.380  0.00  0.00    +0.000 OA
ATOM     10  O   UNL     1       3.298   3.429  16.901  0.00  0.00    +0.000 OA
BRANCH   8  11
ATOM     11  C   UNL     1       2.466   3.641  19.368  0.00  0.00    +0.000 A 
ATOM     12  C   UNL     1       3.585   3.064  19.979  0.00  0.00    +0.000 A 
ATOM     13  C   UNL     1       3.433   2.378  21.186  0.00  0.00    +0.000 A 
ATOM     14  C   UNL     1       2.175   2.285  21.781  0.00  0.00    +0.000 A 
ATOM     15  C   UNL     1       1.086   2.958  21.224  0.00  0.00    +0.000 A 
ATOM     16  C   UNL     1       1.238   3.674  20.034  0.00  0.00    +0.000 A 
ENDBRANCH   8  11
ENDBRANCH   7   8
BRANCH   7  17
ATOM     17  C   UNL     1       4.862   5.902  17.115  0.00  0.00    +0.000 C 
BRANCH  17  19
ATOM     18  C   UNL     1       7.050   4.683  17.621  0.00  0.00    +0.000 C 
ATOM     19  C   UNL     1       6.216   5.935  17.892  0.00  0.00    +0.000 C 
ATOM     20  C   UNL     1       7.104   7.137  17.503  0.00  0.00    +0.000 C 
ENDBRANCH  17  19
ENDBRANCH   7  17
ENDBRANCH   1   7
BRANCH   4  21
ATOM     21  C   UNL     1       0.487  10.412  19.237  0.00  0.00    +0.000 C 
BRANCH  21  22
ATOM     22  C   UNL     1      -0.821  10.362  18.353  0.00  0.00    +0.000 C 
ATOM     23  F   UNL     1      -1.894   9.883  19.027  0.00  0.00    +0.000 F 
ATOM     24  F   UNL     1      -1.168  11.589  17.887  0.00  0.00    +0.000 F 
ATOM     25  F   UNL     1      -0.675   9.568  17.259  0.00  0.00    +0.000 F 
ENDBRANCH  21  22
BRANCH  21  26
ATOM     26  O   UNL     1       0.154  10.438  20.647  0.00  0.00    +0.000 OA
ATOM     27  H   UNL     1      -0.240   9.575  20.859  0.00  0.00    +0.000 HD
ENDBRANCH  21  26
BRANCH  21  28
ATOM     28  C   UNL     1       1.187  11.739  18.993  0.00  0.00    +0.000 C 
ATOM     29  C   UNL     1       1.788  12.877  18.783  0.00  0.00    +0.000 C 
BRANCH  29  30
ATOM     30  C   UNL     1       2.420  14.130  18.515  0.00  0.00    +0.000 A 
ATOM     31  C   UNL     1       3.753  14.188  18.117  0.00  0.00    +0.000 A 
ATOM     32  C   UNL     1       4.353  15.431  17.920  0.00  0.00    +0.000 A 
ATOM     33  C   UNL     1       3.592  16.571  18.127  0.00  0.00    +0.000 A 
ATOM     34  N   UNL     1       2.292  16.549  18.493  0.00  0.00    +0.000 NA
ATOM     35  C   UNL     1       1.736  15.327  18.675  0.00  0.00    +0.000 A 
ENDBRANCH  29  30
ENDBRANCH  21  28
ENDBRANCH   4  21
TORSDOF 10
ENDMDL
MODEL 7
REMARK VINA RESULT:      -8.2      3.390      4.010
REMARK  Name = 
REMARK  12 active torsions:
REMARK  status: ('A' for Active; 'I' for Inactive)
REMARK    1  A    between atoms: C_1  and  C_2
REMARK    2  A    between atoms: C_2  and  C_3
REMARK    3  A    between atoms: C_2  and  C_4
REMARK    4  A    between atoms: C_4  and  N_5
REMARK    5  A    between atoms: N_5  and  C_6
REMARK    6  A    between atoms: N_5  and  S_26
REMARK    7  A    between atoms: C_9  and  C_10
REMARK    8  A    between atoms: C_10  and  O_11
REMARK    9  A    between atoms: C_10  and  C_12
REMARK   10  A    between atoms: C_10  and  C_20
REMARK   11  A    between atoms: C_13  and  C_14
REMARK   12  A    between atoms: S_26  and  C_29
REMARK                            x       y       z     vdW  Elec       q    Type
REMARK                         _______ _______ _______ _____ _____    ______ ____
ROOT
ATOM      1  C   UNL     1       2.947   6.955  18.434  0.00  0.00    +0.000 A 
ATOM      2  C   UNL     1       2.900   8.019  17.533  0.00  0.00    +0.000 A 
ATOM      3  C   UNL     1       2.201   9.179  17.852  0.00  0.00    +0.000 A 
ATOM      4  C   UNL     1       1.438   9.245  19.030  0.00  0.00    +0.000 A 
ATOM      5  C   UNL     1       1.553   8.198  19.960  0.00  0.00    +0.000 A 
ATOM      6  C   UNL     1       2.347   7.085  19.687  0.00  0.00    +0.000 A 
ENDROOT
BRANCH   1   7
ATOM      7  N   UNL     1       3.651   5.760  18.066  0.00  0.00    +0.000 N 
BRANCH   7   8
ATOM      8  S   UNL     1       2.636   4.398  17.710  0.00  0.00    +0.000 S 
ATOM      9  O   UNL     1       1.319   4.919  17.368  0.00  0.00    +0.000 OA
ATOM     10  O   UNL     1       3.318   3.499  16.819  0.00  0.00    +0.000 OA
BRANCH   8  11
ATOM     11  C   UNL     1       2.459   3.554  19.285  0.00  0.00    +0.000 A 
ATOM     12  C   UNL     1       1.207   3.505  19.909  0.00  0.00    +0.000 A 
ATOM     13  C   UNL     1       1.098   2.960  21.189  0.00  0.00    +0.000 A 
ATOM     14  C   UNL     1       2.229   2.456  21.832  0.00  0.00    +0.000 A 
ATOM     15  C   UNL     1       3.451   2.406  21.159  0.00  0.00    +0.000 A 
ATOM     16  C   UNL     1       3.560   2.919  19.864  0.00  0.00    +0.000 A 
ENDBRANCH   8  11
ENDBRANCH   7   8
BRANCH   7  17
ATOM     17  C   UNL     1       4.930   5.901  17.268  0.00  0.00    +0.000 C 
BRANCH  17  19
ATOM     18  C   UNL     1       6.992   4.489  16.735  0.00  0.00    +0.000 C 
ATOM     19  C   UNL     1       6.143   5.106  17.846  0.00  0.00    +0.000 C 
ATOM     20  C   UNL     1       7.100   5.988  18.678  0.00  0.00    +0.000 C 
ENDBRANCH  17  19
ENDBRANCH   7  17
ENDBRANCH   1   7
BRANCH   4  21
ATOM     21  C   UNL     1       0.483  10.409  19.250  0.00  0.00    +0.000 C 
BRANCH  21  22
ATOM     22  C   UNL     1      -0.810  10.359  18.343  0.00  0.00    +0.000 C 
ATOM     23  F   UNL     1      -1.161  11.575  17.859  0.00  0.00    +0.000 F 
ATOM     24  F   UNL     1      -0.648   9.543  17.269  0.00  0.00    +0.000 F 
ATOM     25  F   UNL     1      -1.895   9.889  19.014  0.00  0.00    +0.000 F 
ENDBRANCH  21  22
BRANCH  21  26
ATOM     26  O   UNL     1       0.125  10.438  20.653  0.00  0.00    +0.000 OA
ATOM     27  H   UNL     1       0.161  11.370  20.933  0.00  0.00    +0.000 HD
ENDBRANCH  21  26
BRANCH  21  28
ATOM     28  C   UNL     1       1.188  11.734  19.015  0.00  0.00    +0.000 C 
ATOM     29  C   UNL     1       1.794  12.872  18.813  0.00  0.00    +0.000 C 
BRANCH  29  30
ATOM     30  C   UNL     1       2.419  14.132  18.569  0.00  0.00    +0.000 A 
ATOM     31  C   UNL     1       1.700  15.320  18.669  0.00  0.00    +0.000 A 
ATOM     32  C   UNL     1       2.329  16.527  18.369  0.00  0.00    +0.000 A 
ATOM     33  C   UNL     1       3.660  16.499  17.982  0.00  0.00    +0.000 A 
ATOM     34  N   UNL     1       4.392  15.367  17.895  0.00  0.00    +0.000 NA
ATOM     35  C   UNL     1       3.754  14.210  18.195  0.00  0.00    +0.000 A 
ENDBRANCH  29  30
ENDBRANCH  21  28
ENDBRANCH   4  21
TORSDOF 10
ENDMDL
MODEL 8
REMARK VINA RESULT:      -8.2      0.666      1.565
REMARK  Name = 
REMARK  12 active torsions:
REMARK  status: ('A' for Active; 'I' for Inactive)
REMARK    1  A    between atoms: C_1  and  C_2
REMARK    2  A    between atoms: C_2  and  C_3
REMARK    3  A    between atoms: C_2  and  C_4
REMARK    4  A    between atoms: C_4  and  N_5
REMARK    5  A    between atoms: N_5  and  C_6
REMARK    6  A    between atoms: N_5  and  S_26
REMARK    7  A    between atoms: C_9  and  C_10
REMARK    8  A    between atoms: C_10  and  O_11
REMARK    9  A    between atoms: C_10  and  C_12
REMARK   10  A    between atoms: C_10  and  C_20
REMARK   11  A    between atoms: C_13  and  C_14
REMARK   12  A    between atoms: S_26  and  C_29
REMARK                            x       y       z     vdW  Elec       q    Type
REMARK                         _______ _______ _______ _____ _____    ______ ____
ROOT
ATOM      1  C   UNL     1       3.111   6.508  18.441  0.00  0.00    +0.000 A 
ATOM      2  C   UNL     1       2.625   6.479  19.748  0.00  0.00    +0.000 A 
ATOM      3  C   UNL     1       1.810   7.504  20.217  0.00  0.00    +0.000 A 
ATOM      4  C   UNL     1       1.565   8.635  19.421  0.00  0.00    +0.000 A 
ATOM      5  C   UNL     1       1.999   8.618  18.084  0.00  0.00    +0.000 A 
ATOM      6  C   UNL     1       2.721   7.536  17.582  0.00  0.00    +0.000 A 
ENDROOT
BRANCH   1   7
ATOM      7  N   UNL     1       3.974   5.452  17.994  0.00  0.00    +0.000 N 
BRANCH   7   8
ATOM      8  S   UNL     1       3.179   3.940  17.695  0.00  0.00    +0.000 S 
ATOM      9  O   UNL     1       1.996   4.224  16.892  0.00  0.00    +0.000 OA
ATOM     10  O   UNL     1       4.137   2.960  17.259  0.00  0.00    +0.000 OA
BRANCH   8  11
ATOM     11  C   UNL     1       2.587   3.423  19.309  0.00  0.00    +0.000 A 
ATOM     12  C   UNL     1       3.499   2.977  20.274  0.00  0.00    +0.000 A 
ATOM     13  C   UNL     1       3.025   2.459  21.480  0.00  0.00    +0.000 A 
ATOM     14  C   UNL     1       1.653   2.400  21.724  0.00  0.00    +0.000 A 
ATOM     15  C   UNL     1       0.756   2.949  20.806  0.00  0.00    +0.000 A 
ATOM     16  C   UNL     1       1.225   3.501  19.611  0.00  0.00    +0.000 A 
ENDBRANCH   8  11
ENDBRANCH   7   8
BRANCH   7  17
ATOM     17  C   UNL     1       5.141   5.812  17.099  0.00  0.00    +0.000 C 
BRANCH  17  19
ATOM     18  C   UNL     1       7.404   4.739  17.600  0.00  0.00    +0.000 C 
ATOM     19  C   UNL     1       6.507   5.952  17.842  0.00  0.00    +0.000 C 
ATOM     20  C   UNL     1       7.317   7.185  17.386  0.00  0.00    +0.000 C 
ENDBRANCH  17  19
ENDBRANCH   7  17
ENDBRANCH   1   7
BRANCH   4  21
ATOM     21  C   UNL     1       0.887   9.856  20.026  0.00  0.00    +0.000 C 
BRANCH  21  22
ATOM     22  C   UNL     1       0.542   9.704  21.560  0.00  0.00    +0.000 C 
ATOM     23  F   UNL     1       1.619   9.369  22.312  0.00  0.00    +0.000 F 
ATOM     24  F   UNL     1       0.040  10.851  22.085  0.00  0.00    +0.000 F 
ATOM     25  F   UNL     1      -0.393   8.743  21.788  0.00  0.00    +0.000 F 
ENDBRANCH  21  22
BRANCH  21  26
ATOM     26  O   UNL     1       1.743  11.003  19.803  0.00  0.00    +0.000 OA
ATOM     27  H   UNL     1       1.409  11.718  20.372  0.00  0.00    +0.000 HD
ENDBRANCH  21  26
BRANCH  21  28
ATOM     28  C   UNL     1      -0.390  10.189  19.272  0.00  0.00    +0.000 C 
ATOM     29  C   UNL     1      -1.486  10.475  18.627  0.00  0.00    +0.000 C 
BRANCH  29  30
ATOM     30  C   UNL     1      -2.672  10.831  17.913  0.00  0.00    +0.000 A 
ATOM     31  C   UNL     1      -2.838  10.474  16.578  0.00  0.00    +0.000 A 
ATOM     32  C   UNL     1      -3.982  10.888  15.898  0.00  0.00    +0.000 A 
ATOM     33  C   UNL     1      -4.921  11.643  16.583  0.00  0.00    +0.000 A 
ATOM     34  N   UNL     1      -4.799  11.989  17.884  0.00  0.00    +0.000 NA
ATOM     35  C   UNL     1      -3.678  11.571  18.519  0.00  0.00    +0.000 A 
ENDBRANCH  29  30
ENDBRANCH  21  28
ENDBRANCH   4  21
TORSDOF 10
ENDMDL
MODEL 9
REMARK VINA RESULT:      -8.2      3.369      4.071
REMARK  Name = 
REMARK  12 active torsions:
REMARK  status: ('A' for Active; 'I' for Inactive)
REMARK    1  A    between atoms: C_1  and  C_2
REMARK    2  A    between atoms: C_2  and  C_3
REMARK    3  A    between atoms: C_2  and  C_4
REMARK    4  A    between atoms: C_4  and  N_5
REMARK    5  A    between atoms: N_5  and  C_6
REMARK    6  A    between atoms: N_5  and  S_26
REMARK    7  A    between atoms: C_9  and  C_10
REMARK    8  A    between atoms: C_10  and  O_11
REMARK    9  A    between atoms: C_10  and  C_12
REMARK   10  A    between atoms: C_10  and  C_20
REMARK   11  A    between atoms: C_13  and  C_14
REMARK   12  A    between atoms: S_26  and  C_29
REMARK                            x       y       z     vdW  Elec       q    Type
REMARK                         _______ _______ _______ _____ _____    ______ ____
ROOT
ATOM      1  C   UNL     1       2.928   6.801  18.329  0.00  0.00    +0.000 A 
ATOM      2  C   UNL     1       2.853   7.884  17.453  0.00  0.00    +0.000 A 
ATOM      3  C   UNL     1       2.202   9.052  17.835  0.00  0.00    +0.000 A 
ATOM      4  C   UNL     1       1.512   9.112  19.057  0.00  0.00    +0.000 A 
ATOM      5  C   UNL     1       1.657   8.043  19.959  0.00  0.00    +0.000 A 
ATOM      6  C   UNL     1       2.405   6.918  19.617  0.00  0.00    +0.000 A 
ENDROOT
BRANCH   1   7
ATOM      7  N   UNL     1       3.580   5.597  17.896  0.00  0.00    +0.000 N 
BRANCH   7   8
ATOM      8  S   UNL     1       2.520   4.249  17.634  0.00  0.00    +0.000 S 
ATOM      9  O   UNL     1       1.206   4.789  17.308  0.00  0.00    +0.000 OA
ATOM     10  O   UNL     1       3.150   3.293  16.765  0.00  0.00    +0.000 OA
BRANCH   8  11
ATOM     11  C   UNL     1       2.370   3.482  19.250  0.00  0.00    +0.000 A 
ATOM     12  C   UNL     1       1.139   3.498  19.915  0.00  0.00    +0.000 A 
ATOM     13  C   UNL     1       1.056   3.014  21.222  0.00  0.00    +0.000 A 
ATOM     14  C   UNL     1       2.193   2.506  21.851  0.00  0.00    +0.000 A 
ATOM     15  C   UNL     1       3.391   2.391  21.143  0.00  0.00    +0.000 A 
ATOM     16  C   UNL     1       3.472   2.842  19.823  0.00  0.00    +0.000 A 
ENDBRANCH   8  11
ENDBRANCH   7   8
BRANCH   7  17
ATOM     17  C   UNL     1       4.782   5.724  16.984  0.00  0.00    +0.000 C 
BRANCH  17  19
ATOM     18  C   UNL     1       7.155   6.558  17.428  0.00  0.00    +0.000 C 
ATOM     19  C   UNL     1       6.151   5.432  17.674  0.00  0.00    +0.000 C 
ATOM     20  C   UNL     1       6.034   5.286  19.207  0.00  0.00    +0.000 C 
ENDBRANCH  17  19
ENDBRANCH   7  17
ENDBRANCH   1   7
BRANCH   4  21
ATOM     21  C   UNL     1       0.599  10.292  19.356  0.00  0.00    +0.000 C 
BRANCH  21  22
ATOM     22  C   UNL     1      -0.681  10.363  18.433  0.00  0.00    +0.000 C 
ATOM     23  F   UNL     1      -1.816  10.000  19.078  0.00  0.00    +0.000 F 
ATOM     24  F   UNL     1      -0.890  11.614  17.949  0.00  0.00    +0.000 F 
ATOM     25  F   UNL     1      -0.583   9.549  17.349  0.00  0.00    +0.000 F 
ENDBRANCH  21  22
BRANCH  21  26
ATOM     26  O   UNL     1       0.222  10.227  20.754  0.00  0.00    +0.000 OA
ATOM     27  H   UNL     1      -0.665  10.618  20.824  0.00  0.00    +0.000 HD
ENDBRANCH  21  26
BRANCH  21  28
ATOM     28  C   UNL     1       1.359  11.602  19.234  0.00  0.00    +0.000 C 
ATOM     29  C   UNL     1       2.012  12.727  19.130  0.00  0.00    +0.000 C 
BRANCH  29  30
ATOM     30  C   UNL     1       2.764  13.936  19.027  0.00  0.00    +0.000 A 
ATOM     31  C   UNL     1       2.816  14.648  17.831  0.00  0.00    +0.000 A 
ATOM     32  C   UNL     1       3.606  15.793  17.752  0.00  0.00    +0.000 A 
ATOM     33  C   UNL     1       4.316  16.185  18.876  0.00  0.00    +0.000 A 
ATOM     34  N   UNL     1       4.271  15.529  20.057  0.00  0.00    +0.000 NA
ATOM     35  C   UNL     1       3.493  14.421  20.104  0.00  0.00    +0.000 A 
ENDBRANCH  29  30
ENDBRANCH  21  28
ENDBRANCH   4  21
TORSDOF 10
ENDMDL
