MODEL 1
REMARK VINA RESULT:      -8.0      0.000      0.000
REMARK  Name = 
REMARK  3 active torsions:
REMARK  status: ('A' for Active; 'I' for Inactive)
REMARK    1  A    between atoms: C_4  and  C_5
REMARK    2  A    between atoms: C_5  and  N_6
REMARK    3  A    between atoms: N_6  and  C_7
REMARK                            x       y       z     vdW  Elec       q    Type
REMARK                         _______ _______ _______ _____ _____    ______ ____
ROOT
ATOM      1  C   UNL     1       4.873   4.917  17.825  0.00  0.00    +0.000 C 
ATOM      2  C   UNL     1       5.918   4.444  18.836  0.00  0.00    +0.000 C 
ATOM      3  C   UNL     1       6.819   5.658  19.025  0.00  0.00    +0.000 C 
ATOM      4  C   UNL     1       6.902   6.303  17.639  0.00  0.00    +0.000 C 
ATOM      5  C   UNL     1       5.707   5.756  16.817  0.00  0.00    +0.000 C 
ATOM      6  C   UNL     1       4.761   6.831  16.244  0.00  0.00    +0.000 C 
ATOM      7  C   UNL     1       3.788   7.013  17.370  0.00  0.00    +0.000 A 
ATOM      8  C   UNL     1       2.868   8.033  17.540  0.00  0.00    +0.000 A 
ATOM      9  C   UNL     1       2.159   8.091  18.740  0.00  0.00    +0.000 A 
ATOM     10  C   UNL     1       2.385   7.144  19.750  0.00  0.00    +0.000 A 
ATOM     11  C   UNL     1       3.260   6.077  19.538  0.00  0.00    +0.000 A 
ATOM     12  C   UNL     1       3.925   5.994  18.322  0.00  0.00    +0.000 A 
ENDROOT
BRANCH   1  13
ATOM     13  N   UNL     1       4.169   3.839  17.117  0.00  0.00    +0.000 NA
ATOM     14  H   UNL     1       3.225   4.148  16.889  0.00  0.00    +0.000 HD
BRANCH  13  15
ATOM     15  C   UNL     1       4.069   2.601  17.873  0.00  0.00    +0.000 C 
BRANCH  15  19
ATOM     16  C   UNL     1       1.114   2.953  21.013  0.00  0.00    +0.000 A 
ATOM     17  C   UNL     1       2.442   2.684  21.333  0.00  0.00    +0.000 A 
ATOM     18  C   UNL     1       3.393   2.548  20.320  0.00  0.00    +0.000 A 
ATOM     19  C   UNL     1       3.026   2.686  18.972  0.00  0.00    +0.000 A 
ATOM     20  C   UNL     1       1.681   2.943  18.662  0.00  0.00    +0.000 A 
ATOM     21  C   UNL     1       0.732   3.079  19.678  0.00  0.00    +0.000 A 
ENDBRANCH  15  19
ENDBRANCH  13  15
ENDBRANCH   1  13
TORSDOF 3
ENDMDL
MODEL 2
REMARK VINA RESULT:      -7.9      0.042      1.080
REMARK  Name = 
REMARK  3 active torsions:
REMARK  status: ('A' for Active; 'I' for Inactive)
REMARK    1  A    between atoms: C_4  and  C_5
REMARK    2  A    between atoms: C_5  and  N_6
REMARK    3  A    between atoms: N_6  and  C_7
REMARK                            x       y       z     vdW  Elec       q    Type
REMARK                         _______ _______ _______ _____ _____    ______ ____
ROOT
ATOM      1  C   UNL     1       4.877   4.928  17.819  0.00  0.00    +0.000 C 
ATOM      2  C   UNL     1       5.920   4.457  18.832  0.00  0.00    +0.000 C 
ATOM      3  C   UNL     1       6.824   5.670  19.014  0.00  0.00    +0.000 C 
ATOM      4  C   UNL     1       6.909   6.306  17.624  0.00  0.00    +0.000 C 
ATOM      5  C   UNL     1       5.713   5.758  16.806  0.00  0.00    +0.000 C 
ATOM      6  C   UNL     1       4.770   6.833  16.227  0.00  0.00    +0.000 C 
ATOM      7  C   UNL     1       3.798   7.024  17.351  0.00  0.00    +0.000 A 
ATOM      8  C   UNL     1       2.880   8.047  17.516  0.00  0.00    +0.000 A 
ATOM      9  C   UNL     1       2.172   8.114  18.716  0.00  0.00    +0.000 A 
ATOM     10  C   UNL     1       2.395   7.172  19.730  0.00  0.00    +0.000 A 
ATOM     11  C   UNL     1       3.267   6.102  19.524  0.00  0.00    +0.000 A 
ATOM     12  C   UNL     1       3.931   6.010  18.309  0.00  0.00    +0.000 A 
ENDROOT
BRANCH   1  13
ATOM     13  N   UNL     1       4.170   3.848  17.117  0.00  0.00    +0.000 NA
ATOM     14  H   UNL     1       3.234   4.165  16.869  0.00  0.00    +0.000 HD
BRANCH  13  15
ATOM     15  C   UNL     1       4.041   2.623  17.890  0.00  0.00    +0.000 C 
BRANCH  15  19
ATOM     16  C   UNL     1       1.111   2.895  21.061  0.00  0.00    +0.000 A 
ATOM     17  C   UNL     1       0.721   3.064  19.735  0.00  0.00    +0.000 A 
ATOM     18  C   UNL     1       1.669   2.998  18.712  0.00  0.00    +0.000 A 
ATOM     19  C   UNL     1       3.020   2.756  19.004  0.00  0.00    +0.000 A 
ATOM     20  C   UNL     1       3.403   2.602  20.346  0.00  0.00    +0.000 A 
ATOM     21  C   UNL     1       2.452   2.669  21.368  0.00  0.00    +0.000 A 
ENDBRANCH  15  19
ENDBRANCH  13  15
ENDBRANCH   1  13
TORSDOF 3
ENDMDL
MODEL 3
REMARK VINA RESULT:      -7.7      1.334      5.026
REMARK  Name = 
REMARK  3 active torsions:
REMARK  status: ('A' for Active; 'I' for Inactive)
REMARK    1  A    between atoms: C_4  and  C_5
REMARK    2  A    between atoms: C_5  and  N_6
REMARK    3  A    between atoms: N_6  and  C_7
REMARK                            x       y       z     vdW  Elec       q    Type
REMARK                         _______ _______ _______ _____ _____    ______ ____
ROOT
ATOM      1  C   UNL     1       3.189   4.287  19.031  0.00  0.00    +0.000 C 
ATOM      2  C   UNL     1       2.816   3.527  17.758  0.00  0.00    +0.000 C 
ATOM      3  C   UNL     1       1.304   3.364  17.861  0.00  0.00    +0.000 C 
ATOM      4  C   UNL     1       1.037   3.131  19.350  0.00  0.00    +0.000 C 
ATOM      5  C   UNL     1       2.289   3.630  20.115  0.00  0.00    +0.000 C 
ATOM      6  C   UNL     1       2.017   4.712  21.180  0.00  0.00    +0.000 C 
ATOM      7  C   UNL     1       2.118   5.970  20.372  0.00  0.00    +0.000 A 
ATOM      8  C   UNL     1       1.713   7.244  20.730  0.00  0.00    +0.000 A 
ATOM      9  C   UNL     1       1.764   8.251  19.765  0.00  0.00    +0.000 A 
ATOM     10  C   UNL     1       2.206   7.970  18.464  0.00  0.00    +0.000 A 
ATOM     11  C   UNL     1       2.682   6.700  18.135  0.00  0.00    +0.000 A 
ATOM     12  C   UNL     1       2.678   5.715  19.114  0.00  0.00    +0.000 A 
ENDROOT
BRANCH   1  13
ATOM     13  N   UNL     1       4.601   4.178  19.420  0.00  0.00    +0.000 NA
ATOM     14  H   UNL     1       4.862   4.995  19.972  0.00  0.00    +0.000 HD
BRANCH  13  15
ATOM     15  C   UNL     1       5.520   4.081  18.297  0.00  0.00    +0.000 C 
BRANCH  15  19
ATOM     16  C   UNL     1       7.831   7.716  17.897  0.00  0.00    +0.000 A 
ATOM     17  C   UNL     1       6.735   7.493  17.068  0.00  0.00    +0.000 A 
ATOM     18  C   UNL     1       6.001   6.310  17.181  0.00  0.00    +0.000 A 
ATOM     19  C   UNL     1       6.353   5.338  18.130  0.00  0.00    +0.000 A 
ATOM     20  C   UNL     1       7.469   5.569  18.950  0.00  0.00    +0.000 A 
ATOM     21  C   UNL     1       8.201   6.753  18.835  0.00  0.00    +0.000 A 
ENDBRANCH  15  19
ENDBRANCH  13  15
ENDBRANCH   1  13
TORSDOF 3
ENDMDL
MODEL 4
REMARK VINA RESULT:      -7.7      1.278      4.903
REMARK  Name = 
REMARK  3 active torsions:
REMARK  status: ('A' for Active; 'I' for Inactive)
REMARK    1  A    between atoms: C_4  and  C_5
REMARK    2  A    between atoms: C_5  and  N_6
REMARK    3  A    between atoms: N_6  and  C_7
REMARK                            x       y       z     vdW  Elec       q    Type
REMARK                         _______ _______ _______ _____ _____    ______ ____
ROOT
ATOM      1  C   UNL     1       3.075   4.156  19.064  0.00  0.00    +0.000 C 
ATOM      2  C   UNL     1       2.575   3.258  17.933  0.00  0.00    +0.000 C 
ATOM      3  C   UNL     1       1.071   3.177  18.170  0.00  0.00    +0.000 C 
ATOM      4  C   UNL     1       0.917   3.147  19.692  0.00  0.00    +0.000 C 
ATOM      5  C   UNL     1       2.243   3.682  20.289  0.00  0.00    +0.000 C 
ATOM      6  C   UNL     1       2.094   4.902  21.222  0.00  0.00    +0.000 C 
ATOM      7  C   UNL     1       2.174   6.041  20.252  0.00  0.00    +0.000 A 
ATOM      8  C   UNL     1       1.843   7.367  20.471  0.00  0.00    +0.000 A 
ATOM      9  C   UNL     1       1.851   8.240  19.382  0.00  0.00    +0.000 A 
ATOM     10  C   UNL     1       2.177   7.777  18.099  0.00  0.00    +0.000 A 
ATOM     11  C   UNL     1       2.582   6.456  17.903  0.00  0.00    +0.000 A 
ATOM     12  C   UNL     1       2.622   5.604  18.999  0.00  0.00    +0.000 A 
ENDROOT
BRANCH   1  13
ATOM     13  N   UNL     1       4.510   4.034  19.357  0.00  0.00    +0.000 NA
ATOM     14  H   UNL     1       4.792   4.795  19.974  0.00  0.00    +0.000 HD
BRANCH  13  15
ATOM     15  C   UNL     1       5.360   4.070  18.178  0.00  0.00    +0.000 C 
BRANCH  15  19
ATOM     16  C   UNL     1       7.894   7.571  17.988  0.00  0.00    +0.000 A 
ATOM     17  C   UNL     1       8.138   6.586  18.942  0.00  0.00    +0.000 A 
ATOM     18  C   UNL     1       7.307   5.466  19.019  0.00  0.00    +0.000 A 
ATOM     19  C   UNL     1       6.226   5.315  18.137  0.00  0.00    +0.000 A 
ATOM     20  C   UNL     1       5.983   6.323  17.190  0.00  0.00    +0.000 A 
ATOM     21  C   UNL     1       6.815   7.442  17.115  0.00  0.00    +0.000 A 
ENDBRANCH  15  19
ENDBRANCH  13  15
ENDBRANCH   1  13
TORSDOF 3
ENDMDL
MODEL 5
REMARK VINA RESULT:      -7.5      1.676      3.121
REMARK  Name = 
REMARK  3 active torsions:
REMARK  status: ('A' for Active; 'I' for Inactive)
REMARK    1  A    between atoms: C_4  and  C_5
REMARK    2  A    between atoms: C_5  and  N_6
REMARK    3  A    between atoms: N_6  and  C_7
REMARK                            x       y       z     vdW  Elec       q    Type
REMARK                         _______ _______ _______ _____ _____    ______ ____
ROOT
ATOM      1  C   UNL     1       4.662   5.279  17.302  0.00  0.00    +0.000 C 
ATOM      2  C   UNL     1       4.544   3.769  17.090  0.00  0.00    +0.000 C 
ATOM      3  C   UNL     1       5.564   3.475  15.997  0.00  0.00    +0.000 C 
ATOM      4  C   UNL     1       5.494   4.683  15.061  0.00  0.00    +0.000 C 
ATOM      5  C   UNL     1       4.821   5.830  15.857  0.00  0.00    +0.000 C 
ATOM      6  C   UNL     1       5.651   7.126  15.966  0.00  0.00    +0.000 C 
ATOM      7  C   UNL     1       6.464   6.867  17.198  0.00  0.00    +0.000 A 
ATOM      8  C   UNL     1       7.575   7.561  17.643  0.00  0.00    +0.000 A 
ATOM      9  C   UNL     1       8.273   7.058  18.742  0.00  0.00    +0.000 A 
ATOM     10  C   UNL     1       7.860   5.873  19.369  0.00  0.00    +0.000 A 
ATOM     11  C   UNL     1       6.695   5.223  18.958  0.00  0.00    +0.000 A 
ATOM     12  C   UNL     1       5.975   5.755  17.897  0.00  0.00    +0.000 A 
ENDROOT
BRANCH   1  13
ATOM     13  N   UNL     1       3.499   5.902  17.949  0.00  0.00    +0.000 NA
ATOM     14  H   UNL     1       3.696   6.029  18.941  0.00  0.00    +0.000 HD
BRANCH  13  15
ATOM     15  C   UNL     1       2.270   5.134  17.827  0.00  0.00    +0.000 C 
BRANCH  15  19
ATOM     16  C   UNL     1       1.495   2.818  21.398  0.00  0.00    +0.000 A 
ATOM     17  C   UNL     1       1.011   2.384  20.168  0.00  0.00    +0.000 A 
ATOM     18  C   UNL     1       1.241   3.141  19.017  0.00  0.00    +0.000 A 
ATOM     19  C   UNL     1       1.966   4.341  19.085  0.00  0.00    +0.000 A 
ATOM     20  C   UNL     1       2.436   4.776  20.334  0.00  0.00    +0.000 A 
ATOM     21  C   UNL     1       2.204   4.016  21.483  0.00  0.00    +0.000 A 
ENDBRANCH  15  19
ENDBRANCH  13  15
ENDBRANCH   1  13
TORSDOF 3
ENDMDL
MODEL 6
REMARK VINA RESULT:      -7.4      1.689      3.004
REMARK  Name = 
REMARK  3 active torsions:
REMARK  status: ('A' for Active; 'I' for Inactive)
REMARK    1  A    between atoms: C_4  and  C_5
REMARK    2  A    between atoms: C_5  and  N_6
REMARK    3  A    between atoms: N_6  and  C_7
REMARK                            x       y       z     vdW  Elec       q    Type
REMARK                         _______ _______ _______ _____ _____    ______ ____
ROOT
ATOM      1  C   UNL     1       4.672   5.242  17.220  0.00  0.00    +0.000 C 
ATOM      2  C   UNL     1       4.553   3.734  16.995  0.00  0.00    +0.000 C 
ATOM      3  C   UNL     1       5.598   3.442  15.925  0.00  0.00    +0.000 C 
ATOM      4  C   UNL     1       5.557   4.657  14.996  0.00  0.00    +0.000 C 
ATOM      5  C   UNL     1       4.870   5.801  15.783  0.00  0.00    +0.000 C 
ATOM      6  C   UNL     1       5.703   7.092  15.921  0.00  0.00    +0.000 C 
ATOM      7  C   UNL     1       6.483   6.821  17.171  0.00  0.00    +0.000 A 
ATOM      8  C   UNL     1       7.587   7.507  17.649  0.00  0.00    +0.000 A 
ATOM      9  C   UNL     1       8.255   6.993  18.761  0.00  0.00    +0.000 A 
ATOM     10  C   UNL     1       7.821   5.806  19.369  0.00  0.00    +0.000 A 
ATOM     11  C   UNL     1       6.664   5.164  18.925  0.00  0.00    +0.000 A 
ATOM     12  C   UNL     1       5.972   5.707  17.851  0.00  0.00    +0.000 A 
ENDROOT
BRANCH   1  13
ATOM     13  N   UNL     1       3.497   5.865  17.842  0.00  0.00    +0.000 NA
ATOM     14  H   UNL     1       3.691   6.037  18.828  0.00  0.00    +0.000 HD
BRANCH  13  15
ATOM     15  C   UNL     1       2.285   5.067  17.752  0.00  0.00    +0.000 C 
BRANCH  15  19
ATOM     16  C   UNL     1       1.456   2.869  21.385  0.00  0.00    +0.000 A 
ATOM     17  C   UNL     1       2.197   4.046  21.437  0.00  0.00    +0.000 A 
ATOM     18  C   UNL     1       2.485   4.746  20.263  0.00  0.00    +0.000 A 
ATOM     19  C   UNL     1       2.027   4.277  19.022  0.00  0.00    +0.000 A 
ATOM     20  C   UNL     1       1.292   3.081  18.982  0.00  0.00    +0.000 A 
ATOM     21  C   UNL     1       1.006   2.384  20.158  0.00  0.00    +0.000 A 
ENDBRANCH  15  19
ENDBRANCH  13  15
ENDBRANCH   1  13
TORSDOF 3
ENDMDL
MODEL 7
REMARK VINA RESULT:      -7.4      3.412      5.512
REMARK  Name = 
REMARK  3 active torsions:
REMARK  status: ('A' for Active; 'I' for Inactive)
REMARK    1  A    between atoms: C_4  and  C_5
REMARK    2  A    between atoms: C_5  and  N_6
REMARK    3  A    between atoms: N_6  and  C_7
REMARK                            x       y       z     vdW  Elec       q    Type
REMARK                         _______ _______ _______ _____ _____    ______ ____
ROOT
ATOM      1  C   UNL     1       6.150   5.280  16.254  0.00  0.00    +0.000 C 
ATOM      2  C   UNL     1       7.410   4.508  16.646  0.00  0.00    +0.000 C 
ATOM      3  C   UNL     1       7.563   4.793  18.135  0.00  0.00    +0.000 C 
ATOM      4  C   UNL     1       7.118   6.248  18.302  0.00  0.00    +0.000 C 
ATOM      5  C   UNL     1       6.287   6.610  17.045  0.00  0.00    +0.000 C 
ATOM      6  C   UNL     1       4.854   7.107  17.330  0.00  0.00    +0.000 C 
ATOM      7  C   UNL     1       4.085   5.821  17.358  0.00  0.00    +0.000 A 
ATOM      8  C   UNL     1       2.800   5.611  17.827  0.00  0.00    +0.000 A 
ATOM      9  C   UNL     1       2.327   4.300  17.898  0.00  0.00    +0.000 A 
ATOM     10  C   UNL     1       3.142   3.226  17.512  0.00  0.00    +0.000 A 
ATOM     11  C   UNL     1       4.407   3.455  16.970  0.00  0.00    +0.000 A 
ATOM     12  C   UNL     1       4.854   4.764  16.853  0.00  0.00    +0.000 A 
ENDROOT
BRANCH   1  13
ATOM     13  N   UNL     1       6.024   5.563  14.818  0.00  0.00    +0.000 NA
ATOM     14  H   UNL     1       5.112   5.248  14.492  0.00  0.00    +0.000 HD
BRANCH  13  15
ATOM     15  C   UNL     1       7.042   4.926  13.997  0.00  0.00    +0.000 C 
BRANCH  15  19
ATOM     16  C   UNL     1       5.316   2.180  11.133  0.00  0.00    +0.000 A 
ATOM     17  C   UNL     1       6.699   2.258  11.278  0.00  0.00    +0.000 A 
ATOM     18  C   UNL     1       7.259   3.159  12.186  0.00  0.00    +0.000 A 
ATOM     19  C   UNL     1       6.439   3.990  12.965  0.00  0.00    +0.000 A 
ATOM     20  C   UNL     1       5.047   3.911  12.800  0.00  0.00    +0.000 A 
ATOM     21  C   UNL     1       4.490   3.009  11.891  0.00  0.00    +0.000 A 
ENDBRANCH  15  19
ENDBRANCH  13  15
ENDBRANCH   1  13
TORSDOF 3
ENDMDL
MODEL 8
REMARK VINA RESULT:      -7.4      1.189      1.434
REMARK  Name = 
REMARK  3 active torsions:
REMARK  status: ('A' for Active; 'I' for Inactive)
REMARK    1  A    between atoms: C_4  and  C_5
REMARK    2  A    between atoms: C_5  and  N_6
REMARK    3  A    between atoms: N_6  and  C_7
REMARK                            x       y       z     vdW  Elec       q    Type
REMARK                         _______ _______ _______ _____ _____    ______ ____
ROOT
ATOM      1  C   UNL     1       6.020   5.036  17.607  0.00  0.00    +0.000 C 
ATOM      2  C   UNL     1       7.256   4.900  18.497  0.00  0.00    +0.000 C 
ATOM      3  C   UNL     1       7.726   6.337  18.689  0.00  0.00    +0.000 C 
ATOM      4  C   UNL     1       7.458   7.019  17.345  0.00  0.00    +0.000 C 
ATOM      5  C   UNL     1       6.432   6.136  16.590  0.00  0.00    +0.000 C 
ATOM      6  C   UNL     1       5.135   6.857  16.167  0.00  0.00    +0.000 C 
ATOM      7  C   UNL     1       4.272   6.670  17.377  0.00  0.00    +0.000 A 
ATOM      8  C   UNL     1       3.091   7.322  17.687  0.00  0.00    +0.000 A 
ATOM      9  C   UNL     1       2.524   7.102  18.943  0.00  0.00    +0.000 A 
ATOM     10  C   UNL     1       3.144   6.249  19.868  0.00  0.00    +0.000 A 
ATOM     11  C   UNL     1       4.293   5.539  19.517  0.00  0.00    +0.000 A 
ATOM     12  C   UNL     1       4.826   5.721  18.248  0.00  0.00    +0.000 A 
ENDROOT
BRANCH   1  13
ATOM     13  N   UNL     1       5.640   3.810  16.891  0.00  0.00    +0.000 NA
ATOM     14  H   UNL     1       6.283   3.662  16.115  0.00  0.00    +0.000 HD
BRANCH  13  15
ATOM     15  C   UNL     1       4.287   3.831  16.359  0.00  0.00    +0.000 C 
BRANCH  15  19
ATOM     16  C   UNL     1       1.467   2.148  19.176  0.00  0.00    +0.000 A 
ATOM     17  C   UNL     1       2.751   1.619  19.075  0.00  0.00    +0.000 A 
ATOM     18  C   UNL     1       3.656   2.147  18.151  0.00  0.00    +0.000 A 
ATOM     19  C   UNL     1       3.286   3.216  17.319  0.00  0.00    +0.000 A 
ATOM     20  C   UNL     1       1.984   3.730  17.421  0.00  0.00    +0.000 A 
ATOM     21  C   UNL     1       1.081   3.200  18.346  0.00  0.00    +0.000 A 
ENDBRANCH  15  19
ENDBRANCH  13  15
ENDBRANCH   1  13
TORSDOF 3
ENDMDL
MODEL 9
REMARK VINA RESULT:      -7.4      3.412      5.548
REMARK  Name = 
REMARK  3 active torsions:
REMARK  status: ('A' for Active; 'I' for Inactive)
REMARK    1  A    between atoms: C_4  and  C_5
REMARK    2  A    between atoms: C_5  and  N_6
REMARK    3  A    between atoms: N_6  and  C_7
REMARK                            x       y       z     vdW  Elec       q    Type
REMARK                         _______ _______ _______ _____ _____    ______ ____
ROOT
ATOM      1  C   UNL     1       6.152   5.275  16.255  0.00  0.00    +0.000 C 
ATOM      2  C   UNL     1       7.413   4.505  16.648  0.00  0.00    +0.000 C 
ATOM      3  C   UNL     1       7.565   4.792  18.137  0.00  0.00    +0.000 C 
ATOM      4  C   UNL     1       7.118   6.247  18.302  0.00  0.00    +0.000 C 
ATOM      5  C   UNL     1       6.287   6.607  17.045  0.00  0.00    +0.000 C 
ATOM      6  C   UNL     1       4.854   7.102  17.328  0.00  0.00    +0.000 C 
ATOM      7  C   UNL     1       4.086   5.815  17.358  0.00  0.00    +0.000 A 
ATOM      8  C   UNL     1       2.801   5.604  17.828  0.00  0.00    +0.000 A 
ATOM      9  C   UNL     1       2.330   4.292  17.900  0.00  0.00    +0.000 A 
ATOM     10  C   UNL     1       3.147   3.218  17.515  0.00  0.00    +0.000 A 
ATOM     11  C   UNL     1       4.412   3.448  16.973  0.00  0.00    +0.000 A 
ATOM     12  C   UNL     1       4.857   4.758  16.855  0.00  0.00    +0.000 A 
ENDROOT
BRANCH   1  13
ATOM     13  N   UNL     1       6.026   5.556  14.818  0.00  0.00    +0.000 NA
ATOM     14  H   UNL     1       5.101   5.270  14.500  0.00  0.00    +0.000 HD
BRANCH  13  15
ATOM     15  C   UNL     1       7.017   4.882  13.993  0.00  0.00    +0.000 C 
BRANCH  15  19
ATOM     16  C   UNL     1       5.206   2.233  11.091  0.00  0.00    +0.000 A 
ATOM     17  C   UNL     1       4.407   3.074  11.861  0.00  0.00    +0.000 A 
ATOM     18  C   UNL     1       4.987   3.914  12.814  0.00  0.00    +0.000 A 
ATOM     19  C   UNL     1       6.378   3.926  13.003  0.00  0.00    +0.000 A 
ATOM     20  C   UNL     1       7.171   3.063  12.230  0.00  0.00    +0.000 A 
ATOM     21  C   UNL     1       6.588   2.224  11.278  0.00  0.00    +0.000 A 
ENDBRANCH  15  19
ENDBRANCH  13  15
ENDBRANCH   1  13
TORSDOF 3
ENDMDL
