MODEL 1
REMARK VINA RESULT:      -6.8      0.000      0.000
REMARK  Name = 
REMARK  1 active torsions:
REMARK  status: ('A' for Active; 'I' for Inactive)
REMARK    1  A    between atoms: C_4  and  C_5
REMARK                            x       y       z     vdW  Elec       q    Type
REMARK                         _______ _______ _______ _____ _____    ______ ____
ROOT
ATOM      1  C   UNL     1       3.762   3.219  18.317  0.00  0.00    +0.000 C 
ATOM      2  C   UNL     1       2.494   3.092  17.471  0.00  0.00    +0.000 C 
ATOM      3  C   UNL     1       1.634   4.270  17.897  0.00  0.00    +0.000 C 
ATOM      4  C   UNL     1       2.115   4.635  19.301  0.00  0.00    +0.000 C 
ATOM      5  C   UNL     1       1.106   4.352  20.403  0.00  0.00    +0.000 C 
ATOM      6  C   UNL     1       1.341   2.893  20.731  0.00  0.00    +0.000 C 
ATOM      7  C   UNL     1       2.840   2.732  20.553  0.00  0.00    +0.000 C 
ATOM      8  N   UNL     1       3.276   3.766  19.601  0.00  0.00    +0.000 NA
ENDROOT
BRANCH   1  12
ATOM      9  C   UNL     1       6.884   5.561  16.400  0.00  0.00    +0.000 A 
ATOM     10  C   UNL     1       6.829   5.495  17.789  0.00  0.00    +0.000 A 
ATOM     11  C   UNL     1       5.821   4.756  18.414  0.00  0.00    +0.000 A 
ATOM     12  C   UNL     1       4.844   4.080  17.665  0.00  0.00    +0.000 A 
ATOM     13  C   UNL     1       4.925   4.150  16.263  0.00  0.00    +0.000 A 
ATOM     14  C   UNL     1       5.935   4.887  15.637  0.00  0.00    +0.000 A 
ENDBRANCH   1  12
TORSDOF 1
ENDMDL
MODEL 2
REMARK VINA RESULT:      -6.8      0.229      1.305
REMARK  Name = 
REMARK  1 active torsions:
REMARK  status: ('A' for Active; 'I' for Inactive)
REMARK    1  A    between atoms: C_4  and  C_5
REMARK                            x       y       z     vdW  Elec       q    Type
REMARK                         _______ _______ _______ _____ _____    ______ ____
ROOT
ATOM      1  C   UNL     1       3.805   3.292  18.331  0.00  0.00    +0.000 C 
ATOM      2  C   UNL     1       2.559   3.161  17.454  0.00  0.00    +0.000 C 
ATOM      3  C   UNL     1       1.666   4.310  17.890  0.00  0.00    +0.000 C 
ATOM      4  C   UNL     1       2.108   4.649  19.313  0.00  0.00    +0.000 C 
ATOM      5  C   UNL     1       1.081   4.318  20.385  0.00  0.00    +0.000 C 
ATOM      6  C   UNL     1       1.339   2.856  20.681  0.00  0.00    +0.000 C 
ATOM      7  C   UNL     1       2.845   2.730  20.533  0.00  0.00    +0.000 C 
ATOM      8  N   UNL     1       3.279   3.797  19.617  0.00  0.00    +0.000 NA
ENDROOT
BRANCH   1  12
ATOM      9  C   UNL     1       6.820   5.951  16.673  0.00  0.00    +0.000 A 
ATOM     10  C   UNL     1       5.968   5.259  15.818  0.00  0.00    +0.000 A 
ATOM     11  C   UNL     1       5.005   4.392  16.340  0.00  0.00    +0.000 A 
ATOM     12  C   UNL     1       4.883   4.191  17.725  0.00  0.00    +0.000 A 
ATOM     13  C   UNL     1       5.746   4.909  18.572  0.00  0.00    +0.000 A 
ATOM     14  C   UNL     1       6.707   5.779  18.050  0.00  0.00    +0.000 A 
ENDBRANCH   1  12
TORSDOF 1
ENDMDL
MODEL 3
REMARK VINA RESULT:      -6.8      1.225      1.709
REMARK  Name = 
REMARK  1 active torsions:
REMARK  status: ('A' for Active; 'I' for Inactive)
REMARK    1  A    between atoms: C_4  and  C_5
REMARK                            x       y       z     vdW  Elec       q    Type
REMARK                         _______ _______ _______ _____ _____    ______ ____
ROOT
ATOM      1  C   UNL     1       4.002   3.567  18.814  0.00  0.00    +0.000 C 
ATOM      2  C   UNL     1       3.614   2.152  18.384  0.00  0.00    +0.000 C 
ATOM      3  C   UNL     1       2.152   2.263  17.986  0.00  0.00    +0.000 C 
ATOM      4  C   UNL     1       1.620   3.483  18.736  0.00  0.00    +0.000 C 
ATOM      5  C   UNL     1       0.611   3.158  19.826  0.00  0.00    +0.000 C 
ATOM      6  C   UNL     1       1.477   2.833  21.024  0.00  0.00    +0.000 C 
ATOM      7  C   UNL     1       2.654   3.780  20.870  0.00  0.00    +0.000 C 
ATOM      8  N   UNL     1       2.770   4.096  19.438  0.00  0.00    +0.000 NA
ENDROOT
BRANCH   1  12
ATOM      9  C   UNL     1       5.339   6.080  15.526  0.00  0.00    +0.000 A 
ATOM     10  C   UNL     1       5.465   4.697  15.431  0.00  0.00    +0.000 A 
ATOM     11  C   UNL     1       5.051   3.882  16.487  0.00  0.00    +0.000 A 
ATOM     12  C   UNL     1       4.514   4.433  17.663  0.00  0.00    +0.000 A 
ATOM     13  C   UNL     1       4.385   5.832  17.734  0.00  0.00    +0.000 A 
ATOM     14  C   UNL     1       4.796   6.647  16.676  0.00  0.00    +0.000 A 
ENDBRANCH   1  12
TORSDOF 1
ENDMDL
MODEL 4
REMARK VINA RESULT:      -6.8      1.273      1.455
REMARK  Name = 
REMARK  1 active torsions:
REMARK  status: ('A' for Active; 'I' for Inactive)
REMARK    1  A    between atoms: C_4  and  C_5
REMARK                            x       y       z     vdW  Elec       q    Type
REMARK                         _______ _______ _______ _____ _____    ______ ____
ROOT
ATOM      1  C   UNL     1       3.935   3.706  18.841  0.00  0.00    +0.000 C 
ATOM      2  C   UNL     1       3.632   2.244  18.507  0.00  0.00    +0.000 C 
ATOM      3  C   UNL     1       2.169   2.244  18.098  0.00  0.00    +0.000 C 
ATOM      4  C   UNL     1       1.563   3.480  18.762  0.00  0.00    +0.000 C 
ATOM      5  C   UNL     1       0.567   3.173  19.869  0.00  0.00    +0.000 C 
ATOM      6  C   UNL     1       1.442   2.980  21.088  0.00  0.00    +0.000 C 
ATOM      7  C   UNL     1       2.564   3.980  20.874  0.00  0.00    +0.000 C 
ATOM      8  N   UNL     1       2.671   4.204  19.423  0.00  0.00    +0.000 NA
ENDROOT
BRANCH   1  12
ATOM      9  C   UNL     1       5.394   5.969  15.425  0.00  0.00    +0.000 A 
ATOM     10  C   UNL     1       4.849   6.642  16.515  0.00  0.00    +0.000 A 
ATOM     11  C   UNL     1       4.366   5.923  17.611  0.00  0.00    +0.000 A 
ATOM     12  C   UNL     1       4.405   4.519  17.634  0.00  0.00    +0.000 A 
ATOM     13  C   UNL     1       4.970   3.859  16.528  0.00  0.00    +0.000 A 
ATOM     14  C   UNL     1       5.457   4.578  15.433  0.00  0.00    +0.000 A 
ENDBRANCH   1  12
TORSDOF 1
ENDMDL
MODEL 5
REMARK VINA RESULT:      -6.7      1.113      2.152
REMARK  Name = 
REMARK  1 active torsions:
REMARK  status: ('A' for Active; 'I' for Inactive)
REMARK    1  A    between atoms: C_4  and  C_5
REMARK                            x       y       z     vdW  Elec       q    Type
REMARK                         _______ _______ _______ _____ _____    ______ ____
ROOT
ATOM      1  C   UNL     1       4.115   4.028  18.836  0.00  0.00    +0.000 C 
ATOM      2  C   UNL     1       4.308   2.694  19.559  0.00  0.00    +0.000 C 
ATOM      3  C   UNL     1       3.405   1.725  18.815  0.00  0.00    +0.000 C 
ATOM      4  C   UNL     1       2.336   2.594  18.153  0.00  0.00    +0.000 C 
ATOM      5  C   UNL     1       0.940   2.418  18.728  0.00  0.00    +0.000 C 
ATOM      6  C   UNL     1       0.926   3.353  19.918  0.00  0.00    +0.000 C 
ATOM      7  C   UNL     1       1.778   4.521  19.453  0.00  0.00    +0.000 C 
ATOM      8  N   UNL     1       2.695   4.005  18.425  0.00  0.00    +0.000 NA
ENDROOT
BRANCH   1  12
ATOM      9  C   UNL     1       6.889   4.719  15.559  0.00  0.00    +0.000 A 
ATOM     10  C   UNL     1       5.540   4.515  15.287  0.00  0.00    +0.000 A 
ATOM     11  C   UNL     1       4.643   4.278  16.332  0.00  0.00    +0.000 A 
ATOM     12  C   UNL     1       5.079   4.229  17.666  0.00  0.00    +0.000 A 
ATOM     13  C   UNL     1       6.444   4.450  17.920  0.00  0.00    +0.000 A 
ATOM     14  C   UNL     1       7.341   4.690  16.876  0.00  0.00    +0.000 A 
ENDBRANCH   1  12
TORSDOF 1
ENDMDL
MODEL 6
REMARK VINA RESULT:      -6.6      1.485      5.099
REMARK  Name = 
REMARK  1 active torsions:
REMARK  status: ('A' for Active; 'I' for Inactive)
REMARK    1  A    between atoms: C_4  and  C_5
REMARK                            x       y       z     vdW  Elec       q    Type
REMARK                         _______ _______ _______ _____ _____    ______ ____
ROOT
ATOM      1  C   UNL     1       4.439   5.503  19.232  0.00  0.00    +0.000 C 
ATOM      2  C   UNL     1       4.200   6.246  17.917  0.00  0.00    +0.000 C 
ATOM      3  C   UNL     1       4.749   5.314  16.850  0.00  0.00    +0.000 C 
ATOM      4  C   UNL     1       5.769   4.432  17.568  0.00  0.00    +0.000 C 
ATOM      5  C   UNL     1       7.212   4.677  17.154  0.00  0.00    +0.000 C 
ATOM      6  C   UNL     1       7.638   5.837  18.029  0.00  0.00    +0.000 C 
ATOM      7  C   UNL     1       6.903   5.580  19.332  0.00  0.00    +0.000 C 
ATOM      8  N   UNL     1       5.710   4.783  19.006  0.00  0.00    +0.000 NA
ENDROOT
BRANCH   1  12
ATOM      9  C   UNL     1       1.156   2.936  20.475  0.00  0.00    +0.000 A 
ATOM     10  C   UNL     1       2.357   2.367  20.063  0.00  0.00    +0.000 A 
ATOM     11  C   UNL     1       3.412   3.183  19.649  0.00  0.00    +0.000 A 
ATOM     12  C   UNL     1       3.285   4.581  19.627  0.00  0.00    +0.000 A 
ATOM     13  C   UNL     1       2.067   5.137  20.059  0.00  0.00    +0.000 A 
ATOM     14  C   UNL     1       1.012   4.321  20.477  0.00  0.00    +0.000 A 
ENDBRANCH   1  12
TORSDOF 1
ENDMDL
MODEL 7
REMARK VINA RESULT:      -6.6      1.601      2.342
REMARK  Name = 
REMARK  1 active torsions:
REMARK  status: ('A' for Active; 'I' for Inactive)
REMARK    1  A    between atoms: C_4  and  C_5
REMARK                            x       y       z     vdW  Elec       q    Type
REMARK                         _______ _______ _______ _____ _____    ______ ____
ROOT
ATOM      1  C   UNL     1       3.717   5.270  18.018  0.00  0.00    +0.000 C 
ATOM      2  C   UNL     1       2.704   6.409  18.141  0.00  0.00    +0.000 C 
ATOM      3  C   UNL     1       2.445   6.527  19.633  0.00  0.00    +0.000 C 
ATOM      4  C   UNL     1       2.795   5.158  20.214  0.00  0.00    +0.000 C 
ATOM      5  C   UNL     1       1.601   4.376  20.742  0.00  0.00    +0.000 C 
ATOM      6  C   UNL     1       1.059   3.685  19.509  0.00  0.00    +0.000 C 
ATOM      7  C   UNL     1       2.311   3.364  18.710  0.00  0.00    +0.000 C 
ATOM      8  N   UNL     1       3.337   4.342  19.105  0.00  0.00    +0.000 NA
ENDROOT
BRANCH   1  12
ATOM      9  C   UNL     1       7.828   6.640  18.385  0.00  0.00    +0.000 A 
ATOM     10  C   UNL     1       7.018   7.156  17.377  0.00  0.00    +0.000 A 
ATOM     11  C   UNL     1       5.700   6.712  17.243  0.00  0.00    +0.000 A 
ATOM     12  C   UNL     1       5.170   5.737  18.104  0.00  0.00    +0.000 A 
ATOM     13  C   UNL     1       6.002   5.238  19.123  0.00  0.00    +0.000 A 
ATOM     14  C   UNL     1       7.319   5.684  19.259  0.00  0.00    +0.000 A 
ENDBRANCH   1  12
TORSDOF 1
ENDMDL
MODEL 8
REMARK VINA RESULT:      -6.5      1.461      1.670
REMARK  Name = 
REMARK  1 active torsions:
REMARK  status: ('A' for Active; 'I' for Inactive)
REMARK    1  A    between atoms: C_4  and  C_5
REMARK                            x       y       z     vdW  Elec       q    Type
REMARK                         _______ _______ _______ _____ _____    ______ ____
ROOT
ATOM      1  C   UNL     1       3.811   4.507  18.266  0.00  0.00    +0.000 C 
ATOM      2  C   UNL     1       2.566   5.366  18.042  0.00  0.00    +0.000 C 
ATOM      3  C   UNL     1       2.162   5.819  19.435  0.00  0.00    +0.000 C 
ATOM      4  C   UNL     1       2.755   4.780  20.386  0.00  0.00    +0.000 C 
ATOM      5  C   UNL     1       1.723   3.913  21.091  0.00  0.00    +0.000 C 
ATOM      6  C   UNL     1       1.452   2.807  20.094  0.00  0.00    +0.000 C 
ATOM      7  C   UNL     1       2.806   2.585  19.442  0.00  0.00    +0.000 C 
ATOM      8  N   UNL     1       3.555   3.845  19.563  0.00  0.00    +0.000 NA
ENDROOT
BRANCH   1  12
ATOM      9  C   UNL     1       7.535   6.746  18.078  0.00  0.00    +0.000 A 
ATOM     10  C   UNL     1       7.384   5.740  19.028  0.00  0.00    +0.000 A 
ATOM     11  C   UNL     1       6.187   5.024  19.105  0.00  0.00    +0.000 A 
ATOM     12  C   UNL     1       5.114   5.307  18.244  0.00  0.00    +0.000 A 
ATOM     13  C   UNL     1       5.291   6.319  17.283  0.00  0.00    +0.000 A 
ATOM     14  C   UNL     1       6.490   7.033  17.204  0.00  0.00    +0.000 A 
ENDBRANCH   1  12
TORSDOF 1
ENDMDL
MODEL 9
REMARK VINA RESULT:      -6.5      1.496      5.054
REMARK  Name = 
REMARK  1 active torsions:
REMARK  status: ('A' for Active; 'I' for Inactive)
REMARK    1  A    between atoms: C_4  and  C_5
REMARK                            x       y       z     vdW  Elec       q    Type
REMARK                         _______ _______ _______ _____ _____    ______ ____
ROOT
ATOM      1  C   UNL     1       4.470   5.458  19.318  0.00  0.00    +0.000 C 
ATOM      2  C   UNL     1       4.232   6.206  18.006  0.00  0.00    +0.000 C 
ATOM      3  C   UNL     1       4.764   5.271  16.934  0.00  0.00    +0.000 C 
ATOM      4  C   UNL     1       5.779   4.377  17.644  0.00  0.00    +0.000 C 
ATOM      5  C   UNL     1       7.222   4.607  17.222  0.00  0.00    +0.000 C 
ATOM      6  C   UNL     1       7.666   5.760  18.096  0.00  0.00    +0.000 C 
ATOM      7  C   UNL     1       6.936   5.508  19.404  0.00  0.00    +0.000 C 
ATOM      8  N   UNL     1       5.732   4.725  19.082  0.00  0.00    +0.000 NA
ENDROOT
BRANCH   1  12
ATOM      9  C   UNL     1       1.169   2.816  20.334  0.00  0.00    +0.000 A 
ATOM     10  C   UNL     1       1.000   4.194  20.426  0.00  0.00    +0.000 A 
ATOM     11  C   UNL     1       2.059   5.050  20.115  0.00  0.00    +0.000 A 
ATOM     12  C   UNL     1       3.309   4.547  19.718  0.00  0.00    +0.000 A 
ATOM     13  C   UNL     1       3.454   3.152  19.620  0.00  0.00    +0.000 A 
ATOM     14  C   UNL     1       2.394   2.295  19.928  0.00  0.00    +0.000 A 
ENDBRANCH   1  12
TORSDOF 1
ENDMDL
