MODEL 1
REMARK VINA RESULT:      -7.7      0.000      0.000
REMARK  Name = 
REMARK  3 active torsions:
REMARK  status: ('A' for Active; 'I' for Inactive)
REMARK    1  A    between atoms: C_1  and  C_2
REMARK    2  A    between atoms: C_5  and  C_6
REMARK    3  A    between atoms: C_7  and  C_8
REMARK                            x       y       z     vdW  Elec       q    Type
REMARK                         _______ _______ _______ _____ _____    ______ ____
ROOT
ATOM      1  C   UNL     1       5.316   4.635  18.085  0.00  0.00    +0.000 C 
ATOM      2  O   UNL     1       5.762   4.026  19.051  0.00  0.00    +0.000 OA
ATOM      3  N   UNL     1       3.968   4.815  17.850  0.00  0.00    +0.000 N 
ATOM      4  C   UNL     1       2.997   4.267  18.694  0.00  0.00    +0.000 A 
ATOM      5  C   UNL     1       3.031   4.458  20.078  0.00  0.00    +0.000 A 
ATOM      6  C   UNL     1       2.034   3.861  20.847  0.00  0.00    +0.000 A 
ATOM      7  C   UNL     1       1.078   3.077  20.232  0.00  0.00    +0.000 A 
ATOM      8  C   UNL     1       1.118   2.968  18.852  0.00  0.00    +0.000 A 
ATOM      9  N   UNL     1       2.023   3.586  18.064  0.00  0.00    +0.000 NA
ATOM     10  H   UNL     1       3.668   4.824  16.888  0.00  0.00    +0.000 HD
ENDROOT
BRANCH   1  17
ATOM     11  C   UNL     1       5.575   3.645  15.029  0.00  0.00    +0.000 C 
ATOM     12  C   UNL     1       6.342   4.708  15.720  0.00  0.00    +0.000 A 
ATOM     13  N   UNL     1       7.288   5.380  15.054  0.00  0.00    +0.000 NA
ATOM     14  O   UNL     1       7.796   6.294  15.944  0.00  0.00    +0.000 OA
ATOM     15  C   UNL     1       7.160   6.180  17.143  0.00  0.00    +0.000 A 
ATOM     16  C   UNL     1       7.634   7.122  18.176  0.00  0.00    +0.000 C 
ATOM     17  C   UNL     1       6.218   5.168  17.068  0.00  0.00    +0.000 A 
ENDBRANCH   1  17
TORSDOF 1
ENDMDL
MODEL 2
REMARK VINA RESULT:      -7.6      1.359      1.584
REMARK  Name = 
REMARK  3 active torsions:
REMARK  status: ('A' for Active; 'I' for Inactive)
REMARK    1  A    between atoms: C_1  and  C_2
REMARK    2  A    between atoms: C_5  and  C_6
REMARK    3  A    between atoms: C_7  and  C_8
REMARK                            x       y       z     vdW  Elec       q    Type
REMARK                         _______ _______ _______ _____ _____    ______ ____
ROOT
ATOM      1  C   UNL     1       4.572   5.112  17.149  0.00  0.00    +0.000 C 
ATOM      2  O   UNL     1       3.685   5.953  17.250  0.00  0.00    +0.000 OA
ATOM      3  N   UNL     1       4.525   3.874  17.759  0.00  0.00    +0.000 N 
ATOM      4  C   UNL     1       3.460   3.504  18.586  0.00  0.00    +0.000 A 
ATOM      5  C   UNL     1       2.130   3.622  18.171  0.00  0.00    +0.000 A 
ATOM      6  C   UNL     1       1.128   3.248  19.066  0.00  0.00    +0.000 A 
ATOM      7  C   UNL     1       1.474   2.813  20.330  0.00  0.00    +0.000 A 
ATOM      8  C   UNL     1       2.821   2.711  20.636  0.00  0.00    +0.000 A 
ATOM      9  N   UNL     1       3.822   2.996  19.777  0.00  0.00    +0.000 NA
ATOM     10  H   UNL     1       5.399   3.488  18.076  0.00  0.00    +0.000 HD
ENDROOT
BRANCH   1  17
ATOM     11  C   UNL     1       5.299   4.110  14.174  0.00  0.00    +0.000 C 
ATOM     12  C   UNL     1       6.115   4.942  15.089  0.00  0.00    +0.000 A 
ATOM     13  N   UNL     1       7.324   5.361  14.702  0.00  0.00    +0.000 NA
ATOM     14  O   UNL     1       7.813   6.112  15.743  0.00  0.00    +0.000 OA
ATOM     15  C   UNL     1       6.903   6.152  16.756  0.00  0.00    +0.000 A 
ATOM     16  C   UNL     1       7.332   6.939  17.929  0.00  0.00    +0.000 C 
ATOM     17  C   UNL     1       5.790   5.409  16.401  0.00  0.00    +0.000 A 
ENDBRANCH   1  17
TORSDOF 1
ENDMDL
MODEL 3
REMARK VINA RESULT:      -7.5      0.565      2.021
REMARK  Name = 
REMARK  3 active torsions:
REMARK  status: ('A' for Active; 'I' for Inactive)
REMARK    1  A    between atoms: C_1  and  C_2
REMARK    2  A    between atoms: C_5  and  C_6
REMARK    3  A    between atoms: C_7  and  C_8
REMARK                            x       y       z     vdW  Elec       q    Type
REMARK                         _______ _______ _______ _____ _____    ______ ____
ROOT
ATOM      1  C   UNL     1       5.225   4.566  18.122  0.00  0.00    +0.000 C 
ATOM      2  O   UNL     1       5.683   3.929  19.065  0.00  0.00    +0.000 OA
ATOM      3  N   UNL     1       3.874   4.758  17.913  0.00  0.00    +0.000 N 
ATOM      4  C   UNL     1       2.914   4.191  18.757  0.00  0.00    +0.000 A 
ATOM      5  C   UNL     1       2.970   4.345  20.144  0.00  0.00    +0.000 A 
ATOM      6  C   UNL     1       1.982   3.731  20.913  0.00  0.00    +0.000 A 
ATOM      7  C   UNL     1       1.013   2.968  20.291  0.00  0.00    +0.000 A 
ATOM      8  C   UNL     1       1.032   2.896  18.908  0.00  0.00    +0.000 A 
ATOM      9  N   UNL     1       1.928   3.532  18.123  0.00  0.00    +0.000 NA
ATOM     10  H   UNL     1       3.561   4.794  16.957  0.00  0.00    +0.000 HD
ENDROOT
BRANCH   1  17
ATOM     11  C   UNL     1       7.680   6.595  18.614  0.00  0.00    +0.000 C 
ATOM     12  C   UNL     1       7.188   6.040  17.331  0.00  0.00    +0.000 A 
ATOM     13  N   UNL     1       7.786   6.390  16.187  0.00  0.00    +0.000 NA
ATOM     14  O   UNL     1       7.124   5.708  15.195  0.00  0.00    +0.000 OA
ATOM     15  C   UNL     1       6.133   4.946  15.734  0.00  0.00    +0.000 A 
ATOM     16  C   UNL     1       5.357   4.169  14.747  0.00  0.00    +0.000 C 
ATOM     17  C   UNL     1       6.115   5.123  17.107  0.00  0.00    +0.000 A 
ENDBRANCH   1  17
TORSDOF 1
ENDMDL
MODEL 4
REMARK VINA RESULT:      -7.4      1.468      2.582
REMARK  Name = 
REMARK  3 active torsions:
REMARK  status: ('A' for Active; 'I' for Inactive)
REMARK    1  A    between atoms: C_1  and  C_2
REMARK    2  A    between atoms: C_5  and  C_6
REMARK    3  A    between atoms: C_7  and  C_8
REMARK                            x       y       z     vdW  Elec       q    Type
REMARK                         _______ _______ _______ _____ _____    ______ ____
ROOT
ATOM      1  C   UNL     1       4.566   4.863  17.155  0.00  0.00    +0.000 C 
ATOM      2  O   UNL     1       3.661   5.686  17.240  0.00  0.00    +0.000 OA
ATOM      3  N   UNL     1       4.568   3.656  17.826  0.00  0.00    +0.000 N 
ATOM      4  C   UNL     1       3.535   3.301  18.700  0.00  0.00    +0.000 A 
ATOM      5  C   UNL     1       2.192   3.366  18.317  0.00  0.00    +0.000 A 
ATOM      6  C   UNL     1       1.225   3.012  19.256  0.00  0.00    +0.000 A 
ATOM      7  C   UNL     1       1.615   2.649  20.530  0.00  0.00    +0.000 A 
ATOM      8  C   UNL     1       2.971   2.596  20.803  0.00  0.00    +0.000 A 
ATOM      9  N   UNL     1       3.942   2.862  19.903  0.00  0.00    +0.000 NA
ATOM     10  H   UNL     1       5.460   3.308  18.138  0.00  0.00    +0.000 HD
ENDROOT
BRANCH   1  17
ATOM     11  C   UNL     1       7.119   6.603  18.072  0.00  0.00    +0.000 C 
ATOM     12  C   UNL     1       6.875   5.945  16.767  0.00  0.00    +0.000 A 
ATOM     13  N   UNL     1       7.784   6.052  15.793  0.00  0.00    +0.000 NA
ATOM     14  O   UNL     1       7.287   5.331  14.734  0.00  0.00    +0.000 OA
ATOM     15  C   UNL     1       6.083   4.787  15.066  0.00  0.00    +0.000 A 
ATOM     16  C   UNL     1       5.460   3.988  13.993  0.00  0.00    +0.000 C 
ATOM     17  C   UNL     1       5.756   5.153  16.360  0.00  0.00    +0.000 A 
ENDBRANCH   1  17
TORSDOF 1
ENDMDL
MODEL 5
REMARK VINA RESULT:      -7.3      1.461      1.724
REMARK  Name = 
REMARK  3 active torsions:
REMARK  status: ('A' for Active; 'I' for Inactive)
REMARK    1  A    between atoms: C_1  and  C_2
REMARK    2  A    between atoms: C_5  and  C_6
REMARK    3  A    between atoms: C_7  and  C_8
REMARK                            x       y       z     vdW  Elec       q    Type
REMARK                         _______ _______ _______ _____ _____    ______ ____
ROOT
ATOM      1  C   UNL     1       4.480   4.622  17.931  0.00  0.00    +0.000 C 
ATOM      2  O   UNL     1       3.601   5.469  17.806  0.00  0.00    +0.000 OA
ATOM      3  N   UNL     1       4.344   3.487  18.705  0.00  0.00    +0.000 N 
ATOM      4  C   UNL     1       3.185   3.241  19.448  0.00  0.00    +0.000 A 
ATOM      5  C   UNL     1       1.914   3.296  18.870  0.00  0.00    +0.000 A 
ATOM      6  C   UNL     1       0.810   3.055  19.687  0.00  0.00    +0.000 A 
ATOM      7  C   UNL     1       1.002   2.810  21.032  0.00  0.00    +0.000 A 
ATOM      8  C   UNL     1       2.303   2.755  21.503  0.00  0.00    +0.000 A 
ATOM      9  N   UNL     1       3.400   2.912  20.734  0.00  0.00    +0.000 NA
ATOM     10  H   UNL     1       5.169   3.152  19.174  0.00  0.00    +0.000 HD
ENDROOT
BRANCH   1  17
ATOM     11  C   UNL     1       5.206   4.077  14.840  0.00  0.00    +0.000 C 
ATOM     12  C   UNL     1       6.100   4.543  15.926  0.00  0.00    +0.000 A 
ATOM     13  N   UNL     1       7.390   4.779  15.665  0.00  0.00    +0.000 NA
ATOM     14  O   UNL     1       7.939   5.209  16.849  0.00  0.00    +0.000 OA
ATOM     15  C   UNL     1       6.987   5.236  17.822  0.00  0.00    +0.000 A 
ATOM     16  C   UNL     1       7.476   5.686  19.141  0.00  0.00    +0.000 C 
ATOM     17  C   UNL     1       5.781   4.809  17.294  0.00  0.00    +0.000 A 
ENDBRANCH   1  17
TORSDOF 1
ENDMDL
MODEL 6
REMARK VINA RESULT:      -7.1      1.256      1.363
REMARK  Name = 
REMARK  3 active torsions:
REMARK  status: ('A' for Active; 'I' for Inactive)
REMARK    1  A    between atoms: C_1  and  C_2
REMARK    2  A    between atoms: C_5  and  C_6
REMARK    3  A    between atoms: C_7  and  C_8
REMARK                            x       y       z     vdW  Elec       q    Type
REMARK                         _______ _______ _______ _____ _____    ______ ____
ROOT
ATOM      1  C   UNL     1       4.992   4.354  17.482  0.00  0.00    +0.000 C 
ATOM      2  O   UNL     1       4.451   3.331  17.077  0.00  0.00    +0.000 OA
ATOM      3  N   UNL     1       4.651   4.984  18.663  0.00  0.00    +0.000 N 
ATOM      4  C   UNL     1       3.614   4.511  19.473  0.00  0.00    +0.000 A 
ATOM      5  C   UNL     1       3.548   3.176  19.881  0.00  0.00    +0.000 A 
ATOM      6  C   UNL     1       2.469   2.784  20.672  0.00  0.00    +0.000 A 
ATOM      7  C   UNL     1       1.492   3.705  20.994  0.00  0.00    +0.000 A 
ATOM      8  C   UNL     1       1.662   5.009  20.559  0.00  0.00    +0.000 A 
ATOM      9  N   UNL     1       2.725   5.446  19.851  0.00  0.00    +0.000 NA
ATOM     10  H   UNL     1       4.713   5.989  18.679  0.00  0.00    +0.000 HD
ENDROOT
BRANCH   1  17
ATOM     11  C   UNL     1       5.411   4.095  14.298  0.00  0.00    +0.000 C 
ATOM     12  C   UNL     1       6.212   4.875  15.270  0.00  0.00    +0.000 A 
ATOM     13  N   UNL     1       7.265   5.580  14.845  0.00  0.00    +0.000 NA
ATOM     14  O   UNL     1       7.779   6.197  15.960  0.00  0.00    +0.000 OA
ATOM     15  C   UNL     1       7.039   5.871  17.056  0.00  0.00    +0.000 A 
ATOM     16  C   UNL     1       7.509   6.485  18.313  0.00  0.00    +0.000 C 
ATOM     17  C   UNL     1       6.019   5.013  16.680  0.00  0.00    +0.000 A 
ENDBRANCH   1  17
TORSDOF 1
ENDMDL
MODEL 7
REMARK VINA RESULT:      -7.0      1.330      2.339
REMARK  Name = 
REMARK  3 active torsions:
REMARK  status: ('A' for Active; 'I' for Inactive)
REMARK    1  A    between atoms: C_1  and  C_2
REMARK    2  A    between atoms: C_5  and  C_6
REMARK    3  A    between atoms: C_7  and  C_8
REMARK                            x       y       z     vdW  Elec       q    Type
REMARK                         _______ _______ _______ _____ _____    ______ ____
ROOT
ATOM      1  C   UNL     1       4.949   4.158  17.735  0.00  0.00    +0.000 C 
ATOM      2  O   UNL     1       4.555   3.048  17.393  0.00  0.00    +0.000 OA
ATOM      3  N   UNL     1       4.450   4.844  18.824  0.00  0.00    +0.000 N 
ATOM      4  C   UNL     1       3.409   4.329  19.603  0.00  0.00    +0.000 A 
ATOM      5  C   UNL     1       3.455   3.035  20.130  0.00  0.00    +0.000 A 
ATOM      6  C   UNL     1       2.366   2.594  20.880  0.00  0.00    +0.000 A 
ATOM      7  C   UNL     1       1.273   3.422  21.044  0.00  0.00    +0.000 A 
ATOM      8  C   UNL     1       1.335   4.693  20.499  0.00  0.00    +0.000 A 
ATOM      9  N   UNL     1       2.397   5.185  19.828  0.00  0.00    +0.000 NA
ATOM     10  H   UNL     1       4.402   5.847  18.748  0.00  0.00    +0.000 HD
ENDROOT
BRANCH   1  17
ATOM     11  C   UNL     1       7.383   5.940  18.868  0.00  0.00    +0.000 C 
ATOM     12  C   UNL     1       7.023   5.664  17.458  0.00  0.00    +0.000 A 
ATOM     13  N   UNL     1       7.753   6.200  16.473  0.00  0.00    +0.000 NA
ATOM     14  O   UNL     1       7.190   5.752  15.303  0.00  0.00    +0.000 OA
ATOM     15  C   UNL     1       6.126   4.946  15.576  0.00  0.00    +0.000 A 
ATOM     16  C   UNL     1       5.446   4.409  14.380  0.00  0.00    +0.000 C 
ATOM     17  C   UNL     1       5.959   4.857  16.947  0.00  0.00    +0.000 A 
ENDBRANCH   1  17
TORSDOF 1
ENDMDL
MODEL 8
REMARK VINA RESULT:      -6.8      1.747      1.894
REMARK  Name = 
REMARK  3 active torsions:
REMARK  status: ('A' for Active; 'I' for Inactive)
REMARK    1  A    between atoms: C_1  and  C_2
REMARK    2  A    between atoms: C_5  and  C_6
REMARK    3  A    between atoms: C_7  and  C_8
REMARK                            x       y       z     vdW  Elec       q    Type
REMARK                         _______ _______ _______ _____ _____    ______ ____
ROOT
ATOM      1  C   UNL     1       5.046   4.786  18.439  0.00  0.00    +0.000 C 
ATOM      2  O   UNL     1       4.847   3.759  17.799  0.00  0.00    +0.000 OA
ATOM      3  N   UNL     1       4.289   5.167  19.529  0.00  0.00    +0.000 N 
ATOM      4  C   UNL     1       3.194   4.412  19.961  0.00  0.00    +0.000 A 
ATOM      5  C   UNL     1       3.294   3.039  20.202  0.00  0.00    +0.000 A 
ATOM      6  C   UNL     1       2.149   2.359  20.613  0.00  0.00    +0.000 A 
ATOM      7  C   UNL     1       0.957   3.046  20.731  0.00  0.00    +0.000 A 
ATOM      8  C   UNL     1       0.967   4.410  20.491  0.00  0.00    +0.000 A 
ATOM      9  N   UNL     1       2.067   5.118  20.160  0.00  0.00    +0.000 NA
ATOM     10  H   UNL     1       4.140   6.154  19.659  0.00  0.00    +0.000 HD
ENDROOT
BRANCH   1  17
ATOM     11  C   UNL     1       5.037   6.661  15.818  0.00  0.00    +0.000 C 
ATOM     12  C   UNL     1       6.090   6.531  16.853  0.00  0.00    +0.000 A 
ATOM     13  N   UNL     1       7.214   7.248  16.746  0.00  0.00    +0.000 NA
ATOM     14  O   UNL     1       7.969   6.927  17.848  0.00  0.00    +0.000 OA
ATOM     15  C   UNL     1       7.306   6.024  18.621  0.00  0.00    +0.000 A 
ATOM     16  C   UNL     1       8.035   5.610  19.837  0.00  0.00    +0.000 C 
ATOM     17  C   UNL     1       6.092   5.719  18.030  0.00  0.00    +0.000 A 
ENDBRANCH   1  17
TORSDOF 1
ENDMDL
MODEL 9
REMARK VINA RESULT:      -6.7      1.788      2.409
REMARK  Name = 
REMARK  3 active torsions:
REMARK  status: ('A' for Active; 'I' for Inactive)
REMARK    1  A    between atoms: C_1  and  C_2
REMARK    2  A    between atoms: C_5  and  C_6
REMARK    3  A    between atoms: C_7  and  C_8
REMARK                            x       y       z     vdW  Elec       q    Type
REMARK                         _______ _______ _______ _____ _____    ______ ____
ROOT
ATOM      1  C   UNL     1       5.036   4.822  18.417  0.00  0.00    +0.000 C 
ATOM      2  O   UNL     1       4.960   3.696  17.938  0.00  0.00    +0.000 OA
ATOM      3  N   UNL     1       4.218   5.279  19.431  0.00  0.00    +0.000 N 
ATOM      4  C   UNL     1       3.195   4.486  19.962  0.00  0.00    +0.000 A 
ATOM      5  C   UNL     1       3.431   3.183  20.407  0.00  0.00    +0.000 A 
ATOM      6  C   UNL     1       2.351   2.455  20.905  0.00  0.00    +0.000 A 
ATOM      7  C   UNL     1       1.092   3.022  20.908  0.00  0.00    +0.000 A 
ATOM      8  C   UNL     1       0.968   4.329  20.465  0.00  0.00    +0.000 A 
ATOM      9  N   UNL     1       1.998   5.092  20.042  0.00  0.00    +0.000 NA
ATOM     10  H   UNL     1       3.965   6.254  19.410  0.00  0.00    +0.000 HD
ENDROOT
BRANCH   1  17
ATOM     11  C   UNL     1       7.871   5.648  19.709  0.00  0.00    +0.000 C 
ATOM     12  C   UNL     1       7.237   6.166  18.474  0.00  0.00    +0.000 A 
ATOM     13  N   UNL     1       7.860   7.106  17.755  0.00  0.00    +0.000 NA
ATOM     14  O   UNL     1       7.043   7.359  16.680  0.00  0.00    +0.000 OA
ATOM     15  C   UNL     1       5.931   6.574  16.744  0.00  0.00    +0.000 A 
ATOM     16  C   UNL     1       4.983   6.769  15.630  0.00  0.00    +0.000 C 
ATOM     17  C   UNL     1       5.991   5.789  17.882  0.00  0.00    +0.000 A 
ENDBRANCH   1  17
TORSDOF 1
ENDMDL
