MODEL 1
REMARK VINA RESULT:      -5.9      0.000      0.000
REMARK  Name = 
REMARK  14 active torsions:
REMARK  status: ('A' for Active; 'I' for Inactive)
REMARK    1  A    between atoms: C_1  and  C_2
REMARK    2  A    between atoms: C_2  and  C_3
REMARK    3  A    between atoms: C_3  and  C_4
REMARK    4  A    between atoms: C_4  and  N_5
REMARK    5  A    between atoms: N_5  and  C_6
REMARK    6  A    between atoms: N_5  and  C_10
REMARK    7  A    between atoms: C_6  and  C_7
REMARK    8  A    between atoms: C_7  and  C_8
REMARK    9  A    between atoms: C_8  and  C_9
REMARK   10  A    between atoms: C_12  and  C_13
REMARK   11  A    between atoms: C_16  and  C_17
REMARK   12  A    between atoms: N_26  and  C_27
REMARK   13  A    between atoms: C_27  and  C_28
REMARK   14  A    between atoms: C_27  and  C_29
REMARK                            x       y       z     vdW  Elec       q    Type
REMARK                         _______ _______ _______ _____ _____    ______ ____
ROOT
ATOM      1  C   UNL     1      -2.698  11.796  19.022  0.00  0.00    +0.000 A 
ATOM      2  C   UNL     1      -3.024  11.471  17.684  0.00  0.00    +0.000 A 
ATOM      3  C   UNL     1      -2.319  10.522  16.955  0.00  0.00    +0.000 A 
ATOM      4  C   UNL     1      -2.789  10.115  15.587  0.00  0.00    +0.000 C 
ATOM      5  N   UNL     1      -1.230   9.902  17.416  0.00  0.00    +0.000 NA
ATOM      6  C   UNL     1      -0.850  10.229  18.676  0.00  0.00    +0.000 A 
ATOM      7  C   UNL     1       0.269   9.752  19.411  0.00  0.00    +0.000 A 
ATOM      8  N   UNL     1       0.297  10.344  20.608  0.00  0.00    +0.000 NA
ATOM      9  N   UNL     1      -0.855  11.042  20.703  0.00  0.00    +0.000 N 
ATOM     10  C   UNL     1      -1.542  11.132  19.501  0.00  0.00    +0.000 A 
ENDROOT
BRANCH   7  11
ATOM     11  C   UNL     1       1.338   8.828  19.004  0.00  0.00    +0.000 A 
ATOM     12  C   UNL     1       2.041   9.092  17.812  0.00  0.00    +0.000 A 
ATOM     13  C   UNL     1       3.116   8.292  17.409  0.00  0.00    +0.000 A 
ATOM     14  C   UNL     1       3.511   7.217  18.195  0.00  0.00    +0.000 A 
ATOM     15 CL   UNL     1       4.853   6.254  17.722  0.00  0.00    +0.000 Cl
ATOM     16  C   UNL     1       2.823   6.919  19.365  0.00  0.00    +0.000 A 
ATOM     17  C   UNL     1       1.734   7.709  19.765  0.00  0.00    +0.000 A 
ATOM     18 CL   UNL     1       0.918   7.171  21.199  0.00  0.00    +0.000 Cl
ENDBRANCH   7  11
BRANCH   9  19
ATOM     19  C   UNL     1      -1.166  11.575  22.032  0.00  0.00    +0.000 C 
ATOM     20  C   UNL     1      -0.890  10.564  23.143  0.00  0.00    +0.000 C 
ATOM     21  C   UNL     1      -0.418  12.887  22.355  0.00  0.00    +0.000 C 
ENDBRANCH   9  19
BRANCH   1  22
ATOM     22  N   UNL     1      -3.551  12.620  19.774  0.00  0.00    +0.000 N 
BRANCH  22  23
ATOM     23  C   UNL     1      -4.967  12.728  19.356  0.00  0.00    +0.000 C 
BRANCH  23  24
ATOM     24  C   UNL     1      -5.871  11.726  20.099  0.00  0.00    +0.000 C 
BRANCH  24  26
ATOM     25  C   UNL     1      -7.167   9.536  19.786  0.00  0.00    +0.000 C 
ATOM     26  C   UNL     1      -6.757  10.873  19.184  0.00  0.00    +0.000 C 
ENDBRANCH  24  26
ENDBRANCH  23  24
ENDBRANCH  22  23
BRANCH  22  27
ATOM     27  C   UNL     1      -2.949  13.786  20.444  0.00  0.00    +0.000 C 
BRANCH  27  28
ATOM     28  C   UNL     1      -3.886  14.666  21.273  0.00  0.00    +0.000 C 
BRANCH  28  29
ATOM     29  C   UNL     1      -3.529  16.144  21.435  0.00  0.00    +0.000 C 
ATOM     30  C   UNL     1      -2.484  16.653  20.454  0.00  0.00    +0.000 C 
ENDBRANCH  28  29
ENDBRANCH  27  28
ENDBRANCH  22  27
ENDBRANCH   1  22
TORSDOF 9
ENDMDL
MODEL 2
REMARK VINA RESULT:      -5.8      1.129      1.647
REMARK  Name = 
REMARK  14 active torsions:
REMARK  status: ('A' for Active; 'I' for Inactive)
REMARK    1  A    between atoms: C_1  and  C_2
REMARK    2  A    between atoms: C_2  and  C_3
REMARK    3  A    between atoms: C_3  and  C_4
REMARK    4  A    between atoms: C_4  and  N_5
REMARK    5  A    between atoms: N_5  and  C_6
REMARK    6  A    between atoms: N_5  and  C_10
REMARK    7  A    between atoms: C_6  and  C_7
REMARK    8  A    between atoms: C_7  and  C_8
REMARK    9  A    between atoms: C_8  and  C_9
REMARK   10  A    between atoms: C_12  and  C_13
REMARK   11  A    between atoms: C_16  and  C_17
REMARK   12  A    between atoms: N_26  and  C_27
REMARK   13  A    between atoms: C_27  and  C_28
REMARK   14  A    between atoms: C_27  and  C_29
REMARK                            x       y       z     vdW  Elec       q    Type
REMARK                         _______ _______ _______ _____ _____    ______ ____
ROOT
ATOM      1  C   UNL     1      -2.809  11.881  19.148  0.00  0.00    +0.000 A 
ATOM      2  C   UNL     1      -3.093  11.594  17.792  0.00  0.00    +0.000 A 
ATOM      3  C   UNL     1      -2.352  10.683  17.052  0.00  0.00    +0.000 A 
ATOM      4  C   UNL     1      -2.778  10.312  15.659  0.00  0.00    +0.000 C 
ATOM      5  N   UNL     1      -1.264  10.067  17.521  0.00  0.00    +0.000 NA
ATOM      6  C   UNL     1      -0.923  10.360  18.801  0.00  0.00    +0.000 A 
ATOM      7  C   UNL     1       0.185   9.878  19.550  0.00  0.00    +0.000 A 
ATOM      8  N   UNL     1       0.170  10.431  20.765  0.00  0.00    +0.000 NA
ATOM      9  N   UNL     1      -0.997  11.105  20.853  0.00  0.00    +0.000 N 
ATOM     10  C   UNL     1      -1.654  11.222  19.636  0.00  0.00    +0.000 A 
ENDROOT
BRANCH   7  11
ATOM     11  C   UNL     1       1.281   8.988  19.142  0.00  0.00    +0.000 A 
ATOM     12  C   UNL     1       1.365   7.708  19.723  0.00  0.00    +0.000 A 
ATOM     13  C   UNL     1       2.341   6.789  19.323  0.00  0.00    +0.000 A 
ATOM     14  C   UNL     1       3.248   7.132  18.328  0.00  0.00    +0.000 A 
ATOM     15 CL   UNL     1       4.425   5.994  17.808  0.00  0.00    +0.000 Cl
ATOM     16  C   UNL     1       3.203   8.395  17.751  0.00  0.00    +0.000 A 
ATOM     17  C   UNL     1       2.236   9.326  18.160  0.00  0.00    +0.000 A 
ATOM     18 CL   UNL     1       2.352  10.889  17.415  0.00  0.00    +0.000 Cl
ENDBRANCH   7  11
BRANCH   9  19
ATOM     19  C   UNL     1      -1.353  11.588  22.189  0.00  0.00    +0.000 C 
ATOM     20  C   UNL     1      -1.074  10.552  23.275  0.00  0.00    +0.000 C 
ATOM     21  C   UNL     1      -0.649  12.910  22.569  0.00  0.00    +0.000 C 
ENDBRANCH   9  19
BRANCH   1  22
ATOM     22  N   UNL     1      -3.696  12.664  19.903  0.00  0.00    +0.000 N 
BRANCH  22  23
ATOM     23  C   UNL     1      -5.116  12.713  19.485  0.00  0.00    +0.000 C 
BRANCH  23  24
ATOM     24  C   UNL     1      -5.938  11.555  20.081  0.00  0.00    +0.000 C 
BRANCH  24  26
ATOM     25  C   UNL     1      -7.047   9.304  19.551  0.00  0.00    +0.000 C 
ATOM     26  C   UNL     1      -6.652  10.683  19.042  0.00  0.00    +0.000 C 
ENDBRANCH  24  26
ENDBRANCH  23  24
ENDBRANCH  22  23
BRANCH  22  27
ATOM     27  C   UNL     1      -3.145  13.852  20.579  0.00  0.00    +0.000 C 
BRANCH  27  28
ATOM     28  C   UNL     1      -4.153  14.838  21.174  0.00  0.00    +0.000 C 
BRANCH  28  29
ATOM     29  C   UNL     1      -4.442  14.752  22.673  0.00  0.00    +0.000 C 
ATOM     30  C   UNL     1      -4.423  13.341  23.242  0.00  0.00    +0.000 C 
ENDBRANCH  28  29
ENDBRANCH  27  28
ENDBRANCH  22  27
ENDBRANCH   1  22
TORSDOF 9
ENDMDL
MODEL 3
REMARK VINA RESULT:      -5.8      0.768      2.887
REMARK  Name = 
REMARK  14 active torsions:
REMARK  status: ('A' for Active; 'I' for Inactive)
REMARK    1  A    between atoms: C_1  and  C_2
REMARK    2  A    between atoms: C_2  and  C_3
REMARK    3  A    between atoms: C_3  and  C_4
REMARK    4  A    between atoms: C_4  and  N_5
REMARK    5  A    between atoms: N_5  and  C_6
REMARK    6  A    between atoms: N_5  and  C_10
REMARK    7  A    between atoms: C_6  and  C_7
REMARK    8  A    between atoms: C_7  and  C_8
REMARK    9  A    between atoms: C_8  and  C_9
REMARK   10  A    between atoms: C_12  and  C_13
REMARK   11  A    between atoms: C_16  and  C_17
REMARK   12  A    between atoms: N_26  and  C_27
REMARK   13  A    between atoms: C_27  and  C_28
REMARK   14  A    between atoms: C_27  and  C_29
REMARK                            x       y       z     vdW  Elec       q    Type
REMARK                         _______ _______ _______ _____ _____    ______ ____
ROOT
ATOM      1  C   UNL     1      -3.034  12.050  19.248  0.00  0.00    +0.000 A 
ATOM      2  C   UNL     1      -3.436  11.663  17.948  0.00  0.00    +0.000 A 
ATOM      3  C   UNL     1      -2.773  10.682  17.223  0.00  0.00    +0.000 A 
ATOM      4  C   UNL     1      -3.321  10.211  15.906  0.00  0.00    +0.000 C 
ATOM      5  N   UNL     1      -1.657  10.084  17.647  0.00  0.00    +0.000 NA
ATOM      6  C   UNL     1      -1.204  10.470  18.866  0.00  0.00    +0.000 A 
ATOM      7  C   UNL     1      -0.042  10.027  19.556  0.00  0.00    +0.000 A 
ATOM      8  N   UNL     1       0.054  10.674  20.720  0.00  0.00    +0.000 NA
ATOM      9  N   UNL     1      -1.093  11.375  20.851  0.00  0.00    +0.000 N 
ATOM     10  C   UNL     1      -1.849  11.409  19.688  0.00  0.00    +0.000 A 
ENDROOT
BRANCH   7  11
ATOM     11  C   UNL     1       1.004   9.086  19.129  0.00  0.00    +0.000 A 
ATOM     12  C   UNL     1       1.623   9.285  17.879  0.00  0.00    +0.000 A 
ATOM     13  C   UNL     1       2.674   8.468  17.450  0.00  0.00    +0.000 A 
ATOM     14  C   UNL     1       3.130   7.440  18.266  0.00  0.00    +0.000 A 
ATOM     15 CL   UNL     1       4.444   6.457  17.758  0.00  0.00    +0.000 Cl
ATOM     16  C   UNL     1       2.525   7.207  19.495  0.00  0.00    +0.000 A 
ATOM     17  C   UNL     1       1.460   8.013  19.923  0.00  0.00    +0.000 A 
ATOM     18 CL   UNL     1       0.747   7.554  21.438  0.00  0.00    +0.000 Cl
ENDBRANCH   7  11
BRANCH   9  19
ATOM     19  C   UNL     1      -1.326  11.969  22.170  0.00  0.00    +0.000 C 
ATOM     20  C   UNL     1      -1.167  10.955  23.300  0.00  0.00    +0.000 C 
ATOM     21  C   UNL     1      -0.422  13.187  22.461  0.00  0.00    +0.000 C 
ENDBRANCH   9  19
BRANCH   1  22
ATOM     22  N   UNL     1      -3.843  12.907  20.010  0.00  0.00    +0.000 N 
BRANCH  22  23
ATOM     23  C   UNL     1      -3.282  14.212  20.427  0.00  0.00    +0.000 C 
BRANCH  23  24
ATOM     24  C   UNL     1      -3.807  14.658  21.805  0.00  0.00    +0.000 C 
BRANCH  24  26
ATOM     25  C   UNL     1      -2.033  16.484  21.499  0.00  0.00    +0.000 C 
ATOM     26  C   UNL     1      -3.218  15.980  22.310  0.00  0.00    +0.000 C 
ENDBRANCH  24  26
ENDBRANCH  23  24
ENDBRANCH  22  23
BRANCH  22  27
ATOM     27  C   UNL     1      -4.847  12.285  20.892  0.00  0.00    +0.000 C 
BRANCH  27  28
ATOM     28  C   UNL     1      -6.315  12.460  20.499  0.00  0.00    +0.000 C 
BRANCH  28  29
ATOM     29  C   UNL     1      -6.795  11.810  19.201  0.00  0.00    +0.000 C 
ATOM     30  C   UNL     1      -7.524  12.751  18.254  0.00  0.00    +0.000 C 
ENDBRANCH  28  29
ENDBRANCH  27  28
ENDBRANCH  22  27
ENDBRANCH   1  22
TORSDOF 9
ENDMDL
MODEL 4
REMARK VINA RESULT:      -5.8      3.328      5.642
REMARK  Name = 
REMARK  14 active torsions:
REMARK  status: ('A' for Active; 'I' for Inactive)
REMARK    1  A    between atoms: C_1  and  C_2
REMARK    2  A    between atoms: C_2  and  C_3
REMARK    3  A    between atoms: C_3  and  C_4
REMARK    4  A    between atoms: C_4  and  N_5
REMARK    5  A    between atoms: N_5  and  C_6
REMARK    6  A    between atoms: N_5  and  C_10
REMARK    7  A    between atoms: C_6  and  C_7
REMARK    8  A    between atoms: C_7  and  C_8
REMARK    9  A    between atoms: C_8  and  C_9
REMARK   10  A    between atoms: C_12  and  C_13
REMARK   11  A    between atoms: C_16  and  C_17
REMARK   12  A    between atoms: N_26  and  C_27
REMARK   13  A    between atoms: C_27  and  C_28
REMARK   14  A    between atoms: C_27  and  C_29
REMARK                            x       y       z     vdW  Elec       q    Type
REMARK                         _______ _______ _______ _____ _____    ______ ____
ROOT
ATOM      1  C   UNL     1      -4.579  12.722  20.213  0.00  0.00    +0.000 A 
ATOM      2  C   UNL     1      -4.600  13.664  21.268  0.00  0.00    +0.000 A 
ATOM      3  C   UNL     1      -3.484  14.411  21.623  0.00  0.00    +0.000 A 
ATOM      4  C   UNL     1      -3.594  15.495  22.658  0.00  0.00    +0.000 C 
ATOM      5  N   UNL     1      -2.283  14.247  21.064  0.00  0.00    +0.000 NA
ATOM      6  C   UNL     1      -2.206  13.310  20.086  0.00  0.00    +0.000 A 
ATOM      7  C   UNL     1      -1.067  12.907  19.338  0.00  0.00    +0.000 A 
ATOM      8  N   UNL     1      -1.417  11.937  18.489  0.00  0.00    +0.000 NA
ATOM      9  N   UNL     1      -2.762  11.843  18.566  0.00  0.00    +0.000 N 
ATOM     10  C   UNL     1      -3.300  12.556  19.627  0.00  0.00    +0.000 A 
ENDROOT
BRANCH   7  11
ATOM     11  C   UNL     1       0.332  13.344  19.446  0.00  0.00    +0.000 A 
ATOM     12  C   UNL     1       0.735  14.503  18.753  0.00  0.00    +0.000 A 
ATOM     13  C   UNL     1       2.033  15.010  18.875  0.00  0.00    +0.000 A 
ATOM     14  C   UNL     1       2.951  14.370  19.698  0.00  0.00    +0.000 A 
ATOM     15 CL   UNL     1       4.536  15.009  19.878  0.00  0.00    +0.000 Cl
ATOM     16  C   UNL     1       2.590  13.213  20.377  0.00  0.00    +0.000 A 
ATOM     17  C   UNL     1       1.294  12.691  20.246  0.00  0.00    +0.000 A 
ATOM     18 CL   UNL     1       1.009  11.198  21.083  0.00  0.00    +0.000 Cl
ENDBRANCH   7  11
BRANCH   9  19
ATOM     19  C   UNL     1      -3.400  11.017  17.538  0.00  0.00    +0.000 C 
ATOM     20  C   UNL     1      -2.709  11.138  16.182  0.00  0.00    +0.000 C 
ATOM     21  C   UNL     1      -3.486   9.523  17.922  0.00  0.00    +0.000 C 
ENDBRANCH   9  19
BRANCH   1  22
ATOM     22  N   UNL     1      -5.774  12.132  19.773  0.00  0.00    +0.000 N 
BRANCH  22  23
ATOM     23  C   UNL     1      -6.278  12.489  18.428  0.00  0.00    +0.000 C 
BRANCH  23  24
ATOM     24  C   UNL     1      -7.330  13.612  18.479  0.00  0.00    +0.000 C 
BRANCH  24  26
ATOM     25  C   UNL     1      -7.040  15.174  16.467  0.00  0.00    +0.000 C 
ATOM     26  C   UNL     1      -6.837  14.968  17.961  0.00  0.00    +0.000 C 
ENDBRANCH  24  26
ENDBRANCH  23  24
ENDBRANCH  22  23
BRANCH  22  27
ATOM     27  C   UNL     1      -6.770  11.772  20.798  0.00  0.00    +0.000 C 
BRANCH  27  28
ATOM     28  C   UNL     1      -7.782  10.687  20.428  0.00  0.00    +0.000 C 
BRANCH  28  29
ATOM     29  C   UNL     1      -7.250   9.296  20.079  0.00  0.00    +0.000 C 
ATOM     30  C   UNL     1      -7.883   8.160  20.869  0.00  0.00    +0.000 C 
ENDBRANCH  28  29
ENDBRANCH  27  28
ENDBRANCH  22  27
ENDBRANCH   1  22
TORSDOF 9
ENDMDL
MODEL 5
REMARK VINA RESULT:      -5.8      2.612      4.685
REMARK  Name = 
REMARK  14 active torsions:
REMARK  status: ('A' for Active; 'I' for Inactive)
REMARK    1  A    between atoms: C_1  and  C_2
REMARK    2  A    between atoms: C_2  and  C_3
REMARK    3  A    between atoms: C_3  and  C_4
REMARK    4  A    between atoms: C_4  and  N_5
REMARK    5  A    between atoms: N_5  and  C_6
REMARK    6  A    between atoms: N_5  and  C_10
REMARK    7  A    between atoms: C_6  and  C_7
REMARK    8  A    between atoms: C_7  and  C_8
REMARK    9  A    between atoms: C_8  and  C_9
REMARK   10  A    between atoms: C_12  and  C_13
REMARK   11  A    between atoms: C_16  and  C_17
REMARK   12  A    between atoms: N_26  and  C_27
REMARK   13  A    between atoms: C_27  and  C_28
REMARK   14  A    between atoms: C_27  and  C_29
REMARK                            x       y       z     vdW  Elec       q    Type
REMARK                         _______ _______ _______ _____ _____    ______ ____
ROOT
ATOM      1  C   UNL     1       0.063  14.900  20.789  0.00  0.00    +0.000 A 
ATOM      2  C   UNL     1       1.424  15.233  20.593  0.00  0.00    +0.000 A 
ATOM      3  C   UNL     1       2.357  14.316  20.129  0.00  0.00    +0.000 A 
ATOM      4  C   UNL     1       3.758  14.754  19.808  0.00  0.00    +0.000 C 
ATOM      5  N   UNL     1       2.076  13.028  19.912  0.00  0.00    +0.000 NA
ATOM      6  C   UNL     1       0.793  12.654  20.145  0.00  0.00    +0.000 A 
ATOM      7  C   UNL     1       0.216  11.361  20.022  0.00  0.00    +0.000 A 
ATOM      8  N   UNL     1      -1.073  11.418  20.369  0.00  0.00    +0.000 NA
ATOM      9  N   UNL     1      -1.355  12.728  20.538  0.00  0.00    +0.000 N 
ATOM     10  C   UNL     1      -0.224  13.532  20.555  0.00  0.00    +0.000 A 
ENDROOT
BRANCH   7  11
ATOM     11  C   UNL     1       0.844  10.080  19.669  0.00  0.00    +0.000 A 
ATOM     12  C   UNL     1       1.235   9.864  18.333  0.00  0.00    +0.000 A 
ATOM     13  C   UNL     1       1.903   8.696  17.950  0.00  0.00    +0.000 A 
ATOM     14  C   UNL     1       2.199   7.725  18.899  0.00  0.00    +0.000 A 
ATOM     15 CL   UNL     1       3.051   6.305  18.439  0.00  0.00    +0.000 Cl
ATOM     16  C   UNL     1       1.807   7.900  20.220  0.00  0.00    +0.000 A 
ATOM     17  C   UNL     1       1.123   9.063  20.606  0.00  0.00    +0.000 A 
ATOM     18 CL   UNL     1       0.622   9.109  22.268  0.00  0.00    +0.000 Cl
ENDBRANCH   7  11
BRANCH   9  19
ATOM     19  C   UNL     1      -2.775  13.059  20.676  0.00  0.00    +0.000 C 
ATOM     20  C   UNL     1      -3.638  12.367  19.624  0.00  0.00    +0.000 C 
ATOM     21  C   UNL     1      -3.343  12.739  22.077  0.00  0.00    +0.000 C 
ENDBRANCH   9  19
BRANCH   1  22
ATOM     22  N   UNL     1      -0.874  15.905  21.077  0.00  0.00    +0.000 N 
BRANCH  22  23
ATOM     23  C   UNL     1      -1.329  16.055  22.478  0.00  0.00    +0.000 C 
BRANCH  23  24
ATOM     24  C   UNL     1      -0.688  15.014  23.414  0.00  0.00    +0.000 C 
BRANCH  24  26
ATOM     25  C   UNL     1      -1.289  15.633  25.829  0.00  0.00    +0.000 C 
ATOM     26  C   UNL     1      -1.518  14.685  24.660  0.00  0.00    +0.000 C 
ENDBRANCH  24  26
ENDBRANCH  23  24
ENDBRANCH  22  23
BRANCH  22  27
ATOM     27  C   UNL     1      -1.820  16.276  20.011  0.00  0.00    +0.000 C 
BRANCH  27  28
ATOM     28  C   UNL     1      -1.442  17.474  19.137  0.00  0.00    +0.000 C 
BRANCH  28  29
ATOM     29  C   UNL     1      -0.528  17.228  17.936  0.00  0.00    +0.000 C 
ATOM     30  C   UNL     1      -0.300  18.447  17.056  0.00  0.00    +0.000 C 
ENDBRANCH  28  29
ENDBRANCH  27  28
ENDBRANCH  22  27
ENDBRANCH   1  22
TORSDOF 9
ENDMDL
MODEL 6
REMARK VINA RESULT:      -5.7      3.530      7.433
REMARK  Name = 
REMARK  14 active torsions:
REMARK  status: ('A' for Active; 'I' for Inactive)
REMARK    1  A    between atoms: C_1  and  C_2
REMARK    2  A    between atoms: C_2  and  C_3
REMARK    3  A    between atoms: C_3  and  C_4
REMARK    4  A    between atoms: C_4  and  N_5
REMARK    5  A    between atoms: N_5  and  C_6
REMARK    6  A    between atoms: N_5  and  C_10
REMARK    7  A    between atoms: C_6  and  C_7
REMARK    8  A    between atoms: C_7  and  C_8
REMARK    9  A    between atoms: C_8  and  C_9
REMARK   10  A    between atoms: C_12  and  C_13
REMARK   11  A    between atoms: C_16  and  C_17
REMARK   12  A    between atoms: N_26  and  C_27
REMARK   13  A    between atoms: C_27  and  C_28
REMARK   14  A    between atoms: C_27  and  C_29
REMARK                            x       y       z     vdW  Elec       q    Type
REMARK                         _______ _______ _______ _____ _____    ______ ____
ROOT
ATOM      1  C   UNL     1      -0.206  12.001  19.232  0.00  0.00    +0.000 A 
ATOM      2  C   UNL     1      -0.195  13.189  18.464  0.00  0.00    +0.000 A 
ATOM      3  C   UNL     1      -0.290  14.449  19.039  0.00  0.00    +0.000 A 
ATOM      4  C   UNL     1      -0.136  15.682  18.195  0.00  0.00    +0.000 C 
ATOM      5  N   UNL     1      -0.485  14.647  20.346  0.00  0.00    +0.000 NA
ATOM      6  C   UNL     1      -0.560  13.529  21.110  0.00  0.00    +0.000 A 
ATOM      7  C   UNL     1      -0.781  13.433  22.511  0.00  0.00    +0.000 A 
ATOM      8  N   UNL     1      -0.808  12.146  22.866  0.00  0.00    +0.000 NA
ATOM      9  N   UNL     1      -0.443  11.450  21.768  0.00  0.00    +0.000 N 
ATOM     10  C   UNL     1      -0.413  12.223  20.616  0.00  0.00    +0.000 A 
ENDROOT
BRANCH   7  11
ATOM     11  C   UNL     1      -1.040  14.491  23.498  0.00  0.00    +0.000 A 
ATOM     12  C   UNL     1      -0.094  15.524  23.646  0.00  0.00    +0.000 A 
ATOM     13  C   UNL     1      -0.318  16.597  24.515  0.00  0.00    +0.000 A 
ATOM     14  C   UNL     1      -1.496  16.660  25.248  0.00  0.00    +0.000 A 
ATOM     15 CL   UNL     1      -1.791  17.994  26.289  0.00  0.00    +0.000 Cl
ATOM     16  C   UNL     1      -2.439  15.645  25.138  0.00  0.00    +0.000 A 
ATOM     17  C   UNL     1      -2.212  14.559  24.280  0.00  0.00    +0.000 A 
ATOM     18 CL   UNL     1      -3.434  13.326  24.308  0.00  0.00    +0.000 Cl
ENDBRANCH   7  11
BRANCH   9  19
ATOM     19  C   UNL     1      -0.156  10.029  21.983  0.00  0.00    +0.000 C 
ATOM     20  C   UNL     1       1.329   9.709  21.841  0.00  0.00    +0.000 C 
ATOM     21  C   UNL     1      -0.652   9.505  23.349  0.00  0.00    +0.000 C 
ENDBRANCH   9  19
BRANCH   1  22
ATOM     22  N   UNL     1       0.079  10.768  18.625  0.00  0.00    +0.000 N 
BRANCH  22  23
ATOM     23  C   UNL     1       1.498  10.413  18.394  0.00  0.00    +0.000 C 
BRANCH  23  24
ATOM     24  C   UNL     1       1.652   9.023  17.749  0.00  0.00    +0.000 C 
BRANCH  24  26
ATOM     25  C   UNL     1       3.236   7.015  17.939  0.00  0.00    +0.000 C 
ATOM     26  C   UNL     1       2.293   7.969  18.659  0.00  0.00    +0.000 C 
ENDBRANCH  24  26
ENDBRANCH  23  24
ENDBRANCH  22  23
BRANCH  22  27
ATOM     27  C   UNL     1      -0.918  10.229  17.683  0.00  0.00    +0.000 C 
BRANCH  27  28
ATOM     28  C   UNL     1      -2.375  10.216  18.151  0.00  0.00    +0.000 C 
BRANCH  28  29
ATOM     29  C   UNL     1      -3.372  11.119  17.425  0.00  0.00    +0.000 C 
ATOM     30  C   UNL     1      -4.799  11.034  17.946  0.00  0.00    +0.000 C 
ENDBRANCH  28  29
ENDBRANCH  27  28
ENDBRANCH  22  27
ENDBRANCH   1  22
TORSDOF 9
ENDMDL
MODEL 7
REMARK VINA RESULT:      -5.7      2.417      4.729
REMARK  Name = 
REMARK  14 active torsions:
REMARK  status: ('A' for Active; 'I' for Inactive)
REMARK    1  A    between atoms: C_1  and  C_2
REMARK    2  A    between atoms: C_2  and  C_3
REMARK    3  A    between atoms: C_3  and  C_4
REMARK    4  A    between atoms: C_4  and  N_5
REMARK    5  A    between atoms: N_5  and  C_6
REMARK    6  A    between atoms: N_5  and  C_10
REMARK    7  A    between atoms: C_6  and  C_7
REMARK    8  A    between atoms: C_7  and  C_8
REMARK    9  A    between atoms: C_8  and  C_9
REMARK   10  A    between atoms: C_12  and  C_13
REMARK   11  A    between atoms: C_16  and  C_17
REMARK   12  A    between atoms: N_26  and  C_27
REMARK   13  A    between atoms: C_27  and  C_28
REMARK   14  A    between atoms: C_27  and  C_29
REMARK                            x       y       z     vdW  Elec       q    Type
REMARK                         _______ _______ _______ _____ _____    ______ ____
ROOT
ATOM      1  C   UNL     1      -0.164  14.445  20.910  0.00  0.00    +0.000 A 
ATOM      2  C   UNL     1       1.196  14.754  21.146  0.00  0.00    +0.000 A 
ATOM      3  C   UNL     1       2.224  13.870  20.847  0.00  0.00    +0.000 A 
ATOM      4  C   UNL     1       3.658  14.297  20.988  0.00  0.00    +0.000 C 
ATOM      5  N   UNL     1       2.018  12.629  20.397  0.00  0.00    +0.000 NA
ATOM      6  C   UNL     1       0.723  12.273  20.212  0.00  0.00    +0.000 A 
ATOM      7  C   UNL     1       0.206  11.025  19.769  0.00  0.00    +0.000 A 
ATOM      8  N   UNL     1      -1.128  11.082  19.747  0.00  0.00    +0.000 NA
ATOM      9  N   UNL     1      -1.449  12.369  19.998  0.00  0.00    +0.000 N 
ATOM     10  C   UNL     1      -0.371  13.127  20.432  0.00  0.00    +0.000 A 
ENDROOT
BRANCH   7  11
ATOM     11  C   UNL     1       0.912   9.777  19.444  0.00  0.00    +0.000 A 
ATOM     12  C   UNL     1       1.324   9.560  18.114  0.00  0.00    +0.000 A 
ATOM     13  C   UNL     1       2.063   8.427  17.757  0.00  0.00    +0.000 A 
ATOM     14  C   UNL     1       2.408   7.492  18.725  0.00  0.00    +0.000 A 
ATOM     15 CL   UNL     1       3.345   6.118  18.297  0.00  0.00    +0.000 Cl
ATOM     16  C   UNL     1       1.997   7.668  20.041  0.00  0.00    +0.000 A 
ATOM     17  C   UNL     1       1.242   8.795  20.401  0.00  0.00    +0.000 A 
ATOM     18 CL   UNL     1       0.728   8.841  22.058  0.00  0.00    +0.000 Cl
ENDBRANCH   7  11
BRANCH   9  19
ATOM     19  C   UNL     1      -2.852  12.728  19.777  0.00  0.00    +0.000 C 
ATOM     20  C   UNL     1      -3.561  11.752  18.841  0.00  0.00    +0.000 C 
ATOM     21  C   UNL     1      -3.666  12.847  21.084  0.00  0.00    +0.000 C 
ENDBRANCH   9  19
BRANCH   1  22
ATOM     22  N   UNL     1      -1.147  15.437  21.053  0.00  0.00    +0.000 N 
BRANCH  22  23
ATOM     23  C   UNL     1      -1.533  16.217  19.856  0.00  0.00    +0.000 C 
BRANCH  23  24
ATOM     24  C   UNL     1      -0.342  16.461  18.911  0.00  0.00    +0.000 C 
BRANCH  24  26
ATOM     25  C   UNL     1      -1.573  18.616  18.263  0.00  0.00    +0.000 C 
ATOM     26  C   UNL     1      -0.589  17.532  17.843  0.00  0.00    +0.000 C 
ENDBRANCH  24  26
ENDBRANCH  23  24
ENDBRANCH  22  23
BRANCH  22  27
ATOM     27  C   UNL     1      -1.248  16.106  22.362  0.00  0.00    +0.000 C 
BRANCH  27  28
ATOM     28  C   UNL     1      -1.482  15.210  23.580  0.00  0.00    +0.000 C 
BRANCH  28  29
ATOM     29  C   UNL     1      -2.143  15.828  24.812  0.00  0.00    +0.000 C 
ATOM     30  C   UNL     1      -1.346  15.680  26.099  0.00  0.00    +0.000 C 
ENDBRANCH  28  29
ENDBRANCH  27  28
ENDBRANCH  22  27
ENDBRANCH   1  22
TORSDOF 9
ENDMDL
MODEL 8
REMARK VINA RESULT:      -5.7      1.738      2.461
REMARK  Name = 
REMARK  14 active torsions:
REMARK  status: ('A' for Active; 'I' for Inactive)
REMARK    1  A    between atoms: C_1  and  C_2
REMARK    2  A    between atoms: C_2  and  C_3
REMARK    3  A    between atoms: C_3  and  C_4
REMARK    4  A    between atoms: C_4  and  N_5
REMARK    5  A    between atoms: N_5  and  C_6
REMARK    6  A    between atoms: N_5  and  C_10
REMARK    7  A    between atoms: C_6  and  C_7
REMARK    8  A    between atoms: C_7  and  C_8
REMARK    9  A    between atoms: C_8  and  C_9
REMARK   10  A    between atoms: C_12  and  C_13
REMARK   11  A    between atoms: C_16  and  C_17
REMARK   12  A    between atoms: N_26  and  C_27
REMARK   13  A    between atoms: C_27  and  C_28
REMARK   14  A    between atoms: C_27  and  C_29
REMARK                            x       y       z     vdW  Elec       q    Type
REMARK                         _______ _______ _______ _____ _____    ______ ____
ROOT
ATOM      1  C   UNL     1      -2.285  12.291  19.785  0.00  0.00    +0.000 A 
ATOM      2  C   UNL     1      -2.609  11.987  18.442  0.00  0.00    +0.000 A 
ATOM      3  C   UNL     1      -2.061  10.904  17.769  0.00  0.00    +0.000 A 
ATOM      4  C   UNL     1      -2.540  10.544  16.391  0.00  0.00    +0.000 C 
ATOM      5  N   UNL     1      -1.123  10.112  18.294  0.00  0.00    +0.000 NA
ATOM      6  C   UNL     1      -0.740  10.405  19.562  0.00  0.00    +0.000 A 
ATOM      7  C   UNL     1       0.242   9.757  20.360  0.00  0.00    +0.000 A 
ATOM      8  N   UNL     1       0.328  10.373  21.541  0.00  0.00    +0.000 NA
ATOM      9  N   UNL     1      -0.680  11.271  21.567  0.00  0.00    +0.000 N 
ATOM     10  C   UNL     1      -1.290  11.444  20.332  0.00  0.00    +0.000 A 
ENDROOT
BRANCH   7  11
ATOM     11  C   UNL     1       1.140   8.643  20.024  0.00  0.00    +0.000 A 
ATOM     12  C   UNL     1       1.176   7.523  20.877  0.00  0.00    +0.000 A 
ATOM     13  C   UNL     1       1.955   6.401  20.574  0.00  0.00    +0.000 A 
ATOM     14  C   UNL     1       2.708   6.377  19.406  0.00  0.00    +0.000 A 
ATOM     15 CL   UNL     1       3.638   4.987  19.012  0.00  0.00    +0.000 Cl
ATOM     16  C   UNL     1       2.709   7.476  18.556  0.00  0.00    +0.000 A 
ATOM     17  C   UNL     1       1.942   8.609  18.864  0.00  0.00    +0.000 A 
ATOM     18 CL   UNL     1       2.106   9.936  17.758  0.00  0.00    +0.000 Cl
ENDBRANCH   7  11
BRANCH   9  19
ATOM     19  C   UNL     1      -0.943  11.894  22.866  0.00  0.00    +0.000 C 
ATOM     20  C   UNL     1      -0.619  13.386  22.873  0.00  0.00    +0.000 C 
ATOM     21  C   UNL     1      -2.394  11.696  23.357  0.00  0.00    +0.000 C 
ENDBRANCH   9  19
BRANCH   1  22
ATOM     22  N   UNL     1      -3.003  13.279  20.476  0.00  0.00    +0.000 N 
BRANCH  22  23
ATOM     23  C   UNL     1      -4.457  13.081  20.671  0.00  0.00    +0.000 C 
BRANCH  23  24
ATOM     24  C   UNL     1      -5.104  14.239  21.454  0.00  0.00    +0.000 C 
BRANCH  24  26
ATOM     25  C   UNL     1      -6.418  13.306  23.448  0.00  0.00    +0.000 C 
ATOM     26  C   UNL     1      -5.163  14.023  22.970  0.00  0.00    +0.000 C 
ENDBRANCH  24  26
ENDBRANCH  23  24
ENDBRANCH  22  23
BRANCH  22  27
ATOM     27  C   UNL     1      -2.513  14.665  20.380  0.00  0.00    +0.000 C 
BRANCH  27  28
ATOM     28  C   UNL     1      -1.114  14.865  19.793  0.00  0.00    +0.000 C 
BRANCH  28  29
ATOM     29  C   UNL     1      -0.560  16.288  19.723  0.00  0.00    +0.000 C 
ATOM     30  C   UNL     1      -0.607  16.918  18.339  0.00  0.00    +0.000 C 
ENDBRANCH  28  29
ENDBRANCH  27  28
ENDBRANCH  22  27
ENDBRANCH   1  22
TORSDOF 9
ENDMDL
MODEL 9
REMARK VINA RESULT:      -5.7      7.728     11.613
REMARK  Name = 
REMARK  14 active torsions:
REMARK  status: ('A' for Active; 'I' for Inactive)
REMARK    1  A    between atoms: C_1  and  C_2
REMARK    2  A    between atoms: C_2  and  C_3
REMARK    3  A    between atoms: C_3  and  C_4
REMARK    4  A    between atoms: C_4  and  N_5
REMARK    5  A    between atoms: N_5  and  C_6
REMARK    6  A    between atoms: N_5  and  C_10
REMARK    7  A    between atoms: C_6  and  C_7
REMARK    8  A    between atoms: C_7  and  C_8
REMARK    9  A    between atoms: C_8  and  C_9
REMARK   10  A    between atoms: C_12  and  C_13
REMARK   11  A    between atoms: C_16  and  C_17
REMARK   12  A    between atoms: N_26  and  C_27
REMARK   13  A    between atoms: C_27  and  C_28
REMARK   14  A    between atoms: C_27  and  C_29
REMARK                            x       y       z     vdW  Elec       q    Type
REMARK                         _______ _______ _______ _____ _____    ______ ____
ROOT
ATOM      1  C   UNL     1       7.852  13.463  21.793  0.00  0.00    +0.000 A 
ATOM      2  C   UNL     1       7.615  12.598  22.887  0.00  0.00    +0.000 A 
ATOM      3  C   UNL     1       6.375  12.499  23.504  0.00  0.00    +0.000 A 
ATOM      4  C   UNL     1       6.138  11.468  24.571  0.00  0.00    +0.000 C 
ATOM      5  N   UNL     1       5.330  13.266  23.179  0.00  0.00    +0.000 NA
ATOM      6  C   UNL     1       5.534  14.151  22.172  0.00  0.00    +0.000 A 
ATOM      7  C   UNL     1       4.623  15.099  21.633  0.00  0.00    +0.000 A 
ATOM      8  N   UNL     1       5.228  15.793  20.667  0.00  0.00    +0.000 NA
ATOM      9  N   UNL     1       6.424  15.197  20.473  0.00  0.00    +0.000 N 
ATOM     10  C   UNL     1       6.738  14.270  21.457  0.00  0.00    +0.000 A 
ENDROOT
BRANCH   7  11
ATOM     11  C   UNL     1       3.247  15.419  22.043  0.00  0.00    +0.000 A 
ATOM     12  C   UNL     1       3.032  16.537  22.872  0.00  0.00    +0.000 A 
ATOM     13  C   UNL     1       1.741  16.936  23.236  0.00  0.00    +0.000 A 
ATOM     14  C   UNL     1       0.641  16.226  22.770  0.00  0.00    +0.000 A 
ATOM     15 CL   UNL     1      -0.947  16.734  23.185  0.00  0.00    +0.000 Cl
ATOM     16  C   UNL     1       0.823  15.107  21.967  0.00  0.00    +0.000 A 
ATOM     17  C   UNL     1       2.116  14.693  21.613  0.00  0.00    +0.000 A 
ATOM     18 CL   UNL     1       2.196  13.233  20.679  0.00  0.00    +0.000 Cl
ENDBRANCH   7  11
BRANCH   9  19
ATOM     19  C   UNL     1       7.164  15.630  19.286  0.00  0.00    +0.000 C 
ATOM     20  C   UNL     1       6.991  14.670  18.111  0.00  0.00    +0.000 C 
ATOM     21  C   UNL     1       6.797  17.057  18.823  0.00  0.00    +0.000 C 
ENDBRANCH   9  19
BRANCH   1  22
ATOM     22  N   UNL     1       9.064  13.390  21.088  0.00  0.00    +0.000 N 
BRANCH  22  23
ATOM     23  C   UNL     1       9.440  12.096  20.474  0.00  0.00    +0.000 C 
BRANCH  23  24
ATOM     24  C   UNL     1      10.958  11.842  20.532  0.00  0.00    +0.000 C 
BRANCH  24  26
ATOM     25  C   UNL     1      10.703  11.889  17.981  0.00  0.00    +0.000 C 
ATOM     26  C   UNL     1      11.614  11.605  19.168  0.00  0.00    +0.000 C 
ENDBRANCH  24  26
ENDBRANCH  23  24
ENDBRANCH  22  23
BRANCH  22  27
ATOM     27  C   UNL     1      10.156  14.277  21.524  0.00  0.00    +0.000 C 
BRANCH  27  28
ATOM     28  C   UNL     1      10.449  15.496  20.646  0.00  0.00    +0.000 C 
BRANCH  28  29
ATOM     29  C   UNL     1      11.273  15.285  19.375  0.00  0.00    +0.000 C 
ATOM     30  C   UNL     1      10.631  15.830  18.108  0.00  0.00    +0.000 C 
ENDBRANCH  28  29
ENDBRANCH  27  28
ENDBRANCH  22  27
ENDBRANCH   1  22
TORSDOF 9
ENDMDL
