MODEL 1
REMARK VINA RESULT:      -8.1      0.000      0.000
REMARK  Name = 
REMARK  3 active torsions:
REMARK  status: ('A' for Active; 'I' for Inactive)
REMARK    1  A    between atoms: C_1  and  C_2
REMARK    2  A    between atoms: C_5  and  C_6
REMARK    3  A    between atoms: C_6  and  N_7
REMARK                            x       y       z     vdW  Elec       q    Type
REMARK                         _______ _______ _______ _____ _____    ______ ____
ROOT
ATOM      1  N   UNL     1       2.225   6.655  19.033  0.00  0.00    +0.000 N 
ATOM      2  C   UNL     1       3.130   5.831  18.347  0.00  0.00    +0.000 C 
ATOM      3  N   UNL     1       3.684   6.413  17.343  0.00  0.00    +0.000 NA
ATOM      4  C   UNL     1       4.861   6.129  16.567  0.00  0.00    +0.000 C 
ATOM      5  C   UNL     1       5.540   4.817  16.822  0.00  0.00    +0.000 C 
ATOM      6  C   UNL     1       5.971   4.564  18.282  0.00  0.00    +0.000 C 
ATOM      7  N   UNL     1       5.007   4.686  19.398  0.00  0.00    +0.000 NA
ATOM      8  C   UNL     1       3.595   4.407  19.013  0.00  0.00    +0.000 C 
ATOM      9  C   UNL     1       3.579   2.996  18.354  0.00  0.00    +0.000 C 
ATOM     10  C   UNL     1       2.242   2.491  17.861  0.00  0.00    +0.000 C 
ATOM     11  C   UNL     1       1.129   2.606  18.883  0.00  0.00    +0.000 C 
ATOM     12  C   UNL     1       1.266   3.750  19.889  0.00  0.00    +0.000 C 
ATOM     13  C   UNL     1       2.712   4.141  20.277  0.00  0.00    +0.000 C 
ATOM     14  H   UNL     1       1.843   6.367  19.922  0.00  0.00    +0.000 HD
ATOM     15  H   UNL     1       5.046   5.648  19.742  0.00  0.00    +0.000 HD
ENDROOT
BRANCH   1  16
ATOM     16  C   UNL     1       2.180   8.102  18.840  0.00  0.00    +0.000 C 
BRANCH  16  21
ATOM     17  C   UNL     1      -1.007  10.668  23.038  0.00  0.00    +0.000 C 
ATOM     18  C   UNL     1      -0.152  10.050  21.967  0.00  0.00    +0.000 A 
ATOM     19  C   UNL     1       0.003  10.657  20.718  0.00  0.00    +0.000 A 
ATOM     20  C   UNL     1       0.788  10.054  19.717  0.00  0.00    +0.000 A 
ATOM     21  C   UNL     1       1.437   8.832  19.955  0.00  0.00    +0.000 A 
ATOM     22  C   UNL     1       1.278   8.241  21.215  0.00  0.00    +0.000 A 
ATOM     23  C   UNL     1       0.498   8.836  22.206  0.00  0.00    +0.000 A 
ENDBRANCH  16  21
ENDBRANCH   1  16
TORSDOF 2
ENDMDL
MODEL 2
REMARK VINA RESULT:      -8.0      0.156      1.058
REMARK  Name = 
REMARK  3 active torsions:
REMARK  status: ('A' for Active; 'I' for Inactive)
REMARK    1  A    between atoms: C_1  and  C_2
REMARK    2  A    between atoms: C_5  and  C_6
REMARK    3  A    between atoms: C_6  and  N_7
REMARK                            x       y       z     vdW  Elec       q    Type
REMARK                         _______ _______ _______ _____ _____    ______ ____
ROOT
ATOM      1  N   UNL     1       2.227   6.604  19.162  0.00  0.00    +0.000 N 
ATOM      2  C   UNL     1       3.113   5.784  18.448  0.00  0.00    +0.000 C 
ATOM      3  N   UNL     1       3.651   6.375  17.441  0.00  0.00    +0.000 NA
ATOM      4  C   UNL     1       4.811   6.095  16.638  0.00  0.00    +0.000 C 
ATOM      5  C   UNL     1       5.487   4.776  16.863  0.00  0.00    +0.000 C 
ATOM      6  C   UNL     1       5.945   4.502  18.311  0.00  0.00    +0.000 C 
ATOM      7  N   UNL     1       5.004   4.615  19.448  0.00  0.00    +0.000 NA
ATOM      8  C   UNL     1       3.583   4.349  19.087  0.00  0.00    +0.000 C 
ATOM      9  C   UNL     1       3.545   2.946  18.411  0.00  0.00    +0.000 C 
ATOM     10  C   UNL     1       2.196   2.456  17.938  0.00  0.00    +0.000 C 
ATOM     11  C   UNL     1       1.104   2.565  18.983  0.00  0.00    +0.000 C 
ATOM     12  C   UNL     1       1.267   3.695  20.000  0.00  0.00    +0.000 C 
ATOM     13  C   UNL     1       2.723   4.072  20.364  0.00  0.00    +0.000 C 
ATOM     14  H   UNL     1       1.861   6.308  20.055  0.00  0.00    +0.000 HD
ATOM     15  H   UNL     1       5.055   5.572  19.803  0.00  0.00    +0.000 HD
ENDROOT
BRANCH   1  16
ATOM     16  C   UNL     1       2.187   8.054  18.989  0.00  0.00    +0.000 C 
BRANCH  16  21
ATOM     17  C   UNL     1      -1.037  10.996  22.902  0.00  0.00    +0.000 C 
ATOM     18  C   UNL     1      -0.248  10.202  21.898  0.00  0.00    +0.000 A 
ATOM     19  C   UNL     1       0.380   9.004  22.248  0.00  0.00    +0.000 A 
ATOM     20  C   UNL     1       1.134   8.283  21.303  0.00  0.00    +0.000 A 
ATOM     21  C   UNL     1       1.267   8.751  19.986  0.00  0.00    +0.000 A 
ATOM     22  C   UNL     1       0.624   9.950  19.649  0.00  0.00    +0.000 A 
ATOM     23  C   UNL     1      -0.121  10.665  20.585  0.00  0.00    +0.000 A 
ENDBRANCH  16  21
ENDBRANCH   1  16
TORSDOF 2
ENDMDL
MODEL 3
REMARK VINA RESULT:      -7.7      0.860      1.443
REMARK  Name = 
REMARK  3 active torsions:
REMARK  status: ('A' for Active; 'I' for Inactive)
REMARK    1  A    between atoms: C_1  and  C_2
REMARK    2  A    between atoms: C_5  and  C_6
REMARK    3  A    between atoms: C_6  and  N_7
REMARK                            x       y       z     vdW  Elec       q    Type
REMARK                         _______ _______ _______ _____ _____    ______ ____
ROOT
ATOM      1  N   UNL     1       2.531   6.710  18.443  0.00  0.00    +0.000 N 
ATOM      2  C   UNL     1       3.467   5.794  17.940  0.00  0.00    +0.000 C 
ATOM      3  N   UNL     1       4.136   6.251  16.941  0.00  0.00    +0.000 NA
ATOM      4  C   UNL     1       5.371   5.855  16.320  0.00  0.00    +0.000 C 
ATOM      5  C   UNL     1       5.974   4.561  16.776  0.00  0.00    +0.000 C 
ATOM      6  C   UNL     1       6.254   4.455  18.290  0.00  0.00    +0.000 C 
ATOM      7  N   UNL     1       5.192   4.720  19.286  0.00  0.00    +0.000 NA
ATOM      8  C   UNL     1       3.813   4.438  18.793  0.00  0.00    +0.000 C 
ATOM      9  C   UNL     1       3.809   2.966  18.286  0.00  0.00    +0.000 C 
ATOM     10  C   UNL     1       2.509   2.446  17.718  0.00  0.00    +0.000 C 
ATOM     11  C   UNL     1       1.308   2.699  18.606  0.00  0.00    +0.000 C 
ATOM     12  C   UNL     1       1.388   3.940  19.496  0.00  0.00    +0.000 C 
ATOM     13  C   UNL     1       2.804   4.332  19.983  0.00  0.00    +0.000 C 
ATOM     14  H   UNL     1       2.055   6.530  19.315  0.00  0.00    +0.000 HD
ATOM     15  H   UNL     1       5.232   5.712  19.530  0.00  0.00    +0.000 HD
ENDROOT
BRANCH   1  16
ATOM     16  C   UNL     1       2.558   8.129  18.098  0.00  0.00    +0.000 C 
BRANCH  16  21
ATOM     17  C   UNL     1      -1.188  11.571  21.010  0.00  0.00    +0.000 C 
ATOM     18  C   UNL     1      -0.263  10.647  20.269  0.00  0.00    +0.000 A 
ATOM     19  C   UNL     1       0.409   9.611  20.923  0.00  0.00    +0.000 A 
ATOM     20  C   UNL     1       1.290   8.768  20.220  0.00  0.00    +0.000 A 
ATOM     21  C   UNL     1       1.509   8.947  18.844  0.00  0.00    +0.000 A 
ATOM     22  C   UNL     1       0.821   9.985  18.203  0.00  0.00    +0.000 A 
ATOM     23  C   UNL     1      -0.050  10.822  18.899  0.00  0.00    +0.000 A 
ENDBRANCH  16  21
ENDBRANCH   1  16
TORSDOF 2
ENDMDL
MODEL 4
REMARK VINA RESULT:      -7.7      1.528      3.549
REMARK  Name = 
REMARK  3 active torsions:
REMARK  status: ('A' for Active; 'I' for Inactive)
REMARK    1  A    between atoms: C_1  and  C_2
REMARK    2  A    between atoms: C_5  and  C_6
REMARK    3  A    between atoms: C_6  and  N_7
REMARK                            x       y       z     vdW  Elec       q    Type
REMARK                         _______ _______ _______ _____ _____    ______ ____
ROOT
ATOM      1  N   UNL     1       2.402   6.899  19.991  0.00  0.00    +0.000 N 
ATOM      2  C   UNL     1       2.420   5.500  19.880  0.00  0.00    +0.000 C 
ATOM      3  N   UNL     1       1.839   4.906  20.862  0.00  0.00    +0.000 NA
ATOM      4  C   UNL     1       1.324   3.576  21.042  0.00  0.00    +0.000 C 
ATOM      5  C   UNL     1       1.637   2.578  19.968  0.00  0.00    +0.000 C 
ATOM      6  C   UNL     1       1.193   2.973  18.544  0.00  0.00    +0.000 C 
ATOM      7  N   UNL     1       1.590   4.268  17.948  0.00  0.00    +0.000 NA
ATOM      8  C   UNL     1       2.880   4.805  18.469  0.00  0.00    +0.000 C 
ATOM      9  C   UNL     1       3.948   3.692  18.257  0.00  0.00    +0.000 C 
ATOM     10  C   UNL     1       5.352   3.999  18.725  0.00  0.00    +0.000 C 
ATOM     11  C   UNL     1       5.880   5.335  18.241  0.00  0.00    +0.000 C 
ATOM     12  C   UNL     1       4.829   6.418  17.999  0.00  0.00    +0.000 C 
ATOM     13  C   UNL     1       3.442   5.921  17.528  0.00  0.00    +0.000 C 
ATOM     14  H   UNL     1       2.688   7.478  19.215  0.00  0.00    +0.000 HD
ATOM     15  H   UNL     1       0.863   4.951  18.171  0.00  0.00    +0.000 HD
ENDROOT
BRANCH   1  16
ATOM     16  C   UNL     1       1.526   7.600  20.926  0.00  0.00    +0.000 C 
BRANCH  16  21
ATOM     17  C   UNL     1      -0.987  12.373  18.631  0.00  0.00    +0.000 C 
ATOM     18  C   UNL     1      -0.295  11.177  19.223  0.00  0.00    +0.000 A 
ATOM     19  C   UNL     1       0.662  10.458  18.501  0.00  0.00    +0.000 A 
ATOM     20  C   UNL     1       1.284   9.326  19.060  0.00  0.00    +0.000 A 
ATOM     21  C   UNL     1       0.960   8.898  20.358  0.00  0.00    +0.000 A 
ATOM     22  C   UNL     1       0.004   9.635  21.070  0.00  0.00    +0.000 A 
ATOM     23  C   UNL     1      -0.614  10.754  20.516  0.00  0.00    +0.000 A 
ENDBRANCH  16  21
ENDBRANCH   1  16
TORSDOF 2
ENDMDL
MODEL 5
REMARK VINA RESULT:      -7.6      1.532      3.603
REMARK  Name = 
REMARK  3 active torsions:
REMARK  status: ('A' for Active; 'I' for Inactive)
REMARK    1  A    between atoms: C_1  and  C_2
REMARK    2  A    between atoms: C_5  and  C_6
REMARK    3  A    between atoms: C_6  and  N_7
REMARK                            x       y       z     vdW  Elec       q    Type
REMARK                         _______ _______ _______ _____ _____    ______ ____
ROOT
ATOM      1  N   UNL     1       2.429   6.942  19.964  0.00  0.00    +0.000 N 
ATOM      2  C   UNL     1       2.441   5.543  19.860  0.00  0.00    +0.000 C 
ATOM      3  N   UNL     1       1.864   4.956  20.848  0.00  0.00    +0.000 NA
ATOM      4  C   UNL     1       1.345   3.629  21.039  0.00  0.00    +0.000 C 
ATOM      5  C   UNL     1       1.647   2.624  19.968  0.00  0.00    +0.000 C 
ATOM      6  C   UNL     1       1.195   3.014  18.544  0.00  0.00    +0.000 C 
ATOM      7  N   UNL     1       1.594   4.304  17.940  0.00  0.00    +0.000 NA
ATOM      8  C   UNL     1       2.888   4.839  18.449  0.00  0.00    +0.000 C 
ATOM      9  C   UNL     1       3.951   3.721  18.236  0.00  0.00    +0.000 C 
ATOM     10  C   UNL     1       5.359   4.025  18.693  0.00  0.00    +0.000 C 
ATOM     11  C   UNL     1       5.890   5.356  18.199  0.00  0.00    +0.000 C 
ATOM     12  C   UNL     1       4.841   6.442  17.959  0.00  0.00    +0.000 C 
ATOM     13  C   UNL     1       3.448   5.948  17.499  0.00  0.00    +0.000 C 
ATOM     14  H   UNL     1       2.712   7.516  19.184  0.00  0.00    +0.000 HD
ATOM     15  H   UNL     1       0.870   4.991  18.164  0.00  0.00    +0.000 HD
ENDROOT
BRANCH   1  16
ATOM     16  C   UNL     1       1.561   7.651  20.901  0.00  0.00    +0.000 C 
BRANCH  16  21
ATOM     17  C   UNL     1      -0.646  12.598  18.659  0.00  0.00    +0.000 C 
ATOM     18  C   UNL     1      -0.129  11.306  19.229  0.00  0.00    +0.000 A 
ATOM     19  C   UNL     1      -0.513  10.865  20.498  0.00  0.00    +0.000 A 
ATOM     20  C   UNL     1      -0.003   9.665  21.029  0.00  0.00    +0.000 A 
ATOM     21  C   UNL     1       0.899   8.882  20.290  0.00  0.00    +0.000 A 
ATOM     22  C   UNL     1       1.267   9.334  19.016  0.00  0.00    +0.000 A 
ATOM     23  C   UNL     1       0.764  10.524  18.492  0.00  0.00    +0.000 A 
ENDBRANCH  16  21
ENDBRANCH   1  16
TORSDOF 2
ENDMDL
MODEL 6
REMARK VINA RESULT:      -7.4      1.466      3.595
REMARK  Name = 
REMARK  3 active torsions:
REMARK  status: ('A' for Active; 'I' for Inactive)
REMARK    1  A    between atoms: C_1  and  C_2
REMARK    2  A    between atoms: C_5  and  C_6
REMARK    3  A    between atoms: C_6  and  N_7
REMARK                            x       y       z     vdW  Elec       q    Type
REMARK                         _______ _______ _______ _____ _____    ______ ____
ROOT
ATOM      1  N   UNL     1       3.302   6.609  19.133  0.00  0.00    +0.000 N 
ATOM      2  C   UNL     1       3.786   5.296  19.037  0.00  0.00    +0.000 C 
ATOM      3  N   UNL     1       3.408   4.544  20.009  0.00  0.00    +0.000 NA
ATOM      4  C   UNL     1       3.359   3.118  20.190  0.00  0.00    +0.000 C 
ATOM      5  C   UNL     1       4.012   2.279  19.134  0.00  0.00    +0.000 C 
ATOM      6  C   UNL     1       3.501   2.503  17.695  0.00  0.00    +0.000 C 
ATOM      7  N   UNL     1       3.462   3.856  17.097  0.00  0.00    +0.000 NA
ATOM      8  C   UNL     1       4.486   4.791  17.644  0.00  0.00    +0.000 C 
ATOM      9  C   UNL     1       5.869   4.095  17.469  0.00  0.00    +0.000 C 
ATOM     10  C   UNL     1       7.078   4.850  17.969  0.00  0.00    +0.000 C 
ATOM     11  C   UNL     1       7.147   6.285  17.484  0.00  0.00    +0.000 C 
ATOM     12  C   UNL     1       5.803   6.958  17.206  0.00  0.00    +0.000 C 
ATOM     13  C   UNL     1       4.671   6.029  16.706  0.00  0.00    +0.000 C 
ATOM     14  H   UNL     1       3.400   7.250  18.359  0.00  0.00    +0.000 HD
ATOM     15  H   UNL     1       2.544   4.259  17.295  0.00  0.00    +0.000 HD
ENDROOT
BRANCH   1  16
ATOM     16  C   UNL     1       2.218   6.981  20.039  0.00  0.00    +0.000 C 
BRANCH  16  21
ATOM     17  C   UNL     1      -0.514  11.992  18.698  0.00  0.00    +0.000 C 
ATOM     18  C   UNL     1       0.235  10.733  19.040  0.00  0.00    +0.000 A 
ATOM     19  C   UNL     1       1.038  10.085  18.097  0.00  0.00    +0.000 A 
ATOM     20  C   UNL     1       1.714   8.895  18.425  0.00  0.00    +0.000 A 
ATOM     21  C   UNL     1       1.600   8.337  19.709  0.00  0.00    +0.000 A 
ATOM     22  C   UNL     1       0.799   9.004  20.644  0.00  0.00    +0.000 A 
ATOM     23  C   UNL     1       0.126  10.182  20.319  0.00  0.00    +0.000 A 
ENDBRANCH  16  21
ENDBRANCH   1  16
TORSDOF 2
ENDMDL
MODEL 7
REMARK VINA RESULT:      -7.3      1.493      3.704
REMARK  Name = 
REMARK  3 active torsions:
REMARK  status: ('A' for Active; 'I' for Inactive)
REMARK    1  A    between atoms: C_1  and  C_2
REMARK    2  A    between atoms: C_5  and  C_6
REMARK    3  A    between atoms: C_6  and  N_7
REMARK                            x       y       z     vdW  Elec       q    Type
REMARK                         _______ _______ _______ _____ _____    ______ ____
ROOT
ATOM      1  N   UNL     1       3.293   6.603  19.040  0.00  0.00    +0.000 N 
ATOM      2  C   UNL     1       3.799   5.296  18.981  0.00  0.00    +0.000 C 
ATOM      3  N   UNL     1       3.412   4.558  19.961  0.00  0.00    +0.000 NA
ATOM      4  C   UNL     1       3.380   3.136  20.170  0.00  0.00    +0.000 C 
ATOM      5  C   UNL     1       4.071   2.286  19.146  0.00  0.00    +0.000 C 
ATOM      6  C   UNL     1       3.588   2.472  17.692  0.00  0.00    +0.000 C 
ATOM      7  N   UNL     1       3.542   3.812  17.065  0.00  0.00    +0.000 NA
ATOM      8  C   UNL     1       4.539   4.774  17.615  0.00  0.00    +0.000 C 
ATOM      9  C   UNL     1       5.936   4.097  17.486  0.00  0.00    +0.000 C 
ATOM     10  C   UNL     1       7.121   4.882  17.996  0.00  0.00    +0.000 C 
ATOM     11  C   UNL     1       7.179   6.308  17.484  0.00  0.00    +0.000 C 
ATOM     12  C   UNL     1       5.831   6.954  17.163  0.00  0.00    +0.000 C 
ATOM     13  C   UNL     1       4.726   5.996  16.656  0.00  0.00    +0.000 C 
ATOM     14  H   UNL     1       3.399   7.230  18.256  0.00  0.00    +0.000 HD
ATOM     15  H   UNL     1       2.613   4.205  17.234  0.00  0.00    +0.000 HD
ENDROOT
BRANCH   1  16
ATOM     16  C   UNL     1       2.184   6.976  19.914  0.00  0.00    +0.000 C 
BRANCH  16  21
ATOM     17  C   UNL     1       0.340  12.422  18.770  0.00  0.00    +0.000 C 
ATOM     18  C   UNL     1       0.760  11.008  19.063  0.00  0.00    +0.000 A 
ATOM     19  C   UNL     1       0.506  10.416  20.303  0.00  0.00    +0.000 A 
ATOM     20  C   UNL     1       0.927   9.099  20.571  0.00  0.00    +0.000 A 
ATOM     21  C   UNL     1       1.606   8.352  19.596  0.00  0.00    +0.000 A 
ATOM     22  C   UNL     1       1.845   8.958  18.355  0.00  0.00    +0.000 A 
ATOM     23  C   UNL     1       1.432  10.263  18.090  0.00  0.00    +0.000 A 
ENDBRANCH  16  21
ENDBRANCH   1  16
TORSDOF 2
ENDMDL
MODEL 8
REMARK VINA RESULT:      -7.2      1.420      1.726
REMARK  Name = 
REMARK  3 active torsions:
REMARK  status: ('A' for Active; 'I' for Inactive)
REMARK    1  A    between atoms: C_1  and  C_2
REMARK    2  A    between atoms: C_5  and  C_6
REMARK    3  A    between atoms: C_6  and  N_7
REMARK                            x       y       z     vdW  Elec       q    Type
REMARK                         _______ _______ _______ _____ _____    ______ ____
ROOT
ATOM      1  N   UNL     1       2.243   7.234  18.661  0.00  0.00    +0.000 N 
ATOM      2  C   UNL     1       3.121   6.186  18.347  0.00  0.00    +0.000 C 
ATOM      3  N   UNL     1       3.761   6.374  17.247  0.00  0.00    +0.000 NA
ATOM      4  C   UNL     1       4.952   5.792  16.689  0.00  0.00    +0.000 C 
ATOM      5  C   UNL     1       5.526   4.607  17.406  0.00  0.00    +0.000 C 
ATOM      6  C   UNL     1       5.868   4.832  18.894  0.00  0.00    +0.000 C 
ATOM      7  N   UNL     1       4.862   5.363  19.841  0.00  0.00    +0.000 NA
ATOM      8  C   UNL     1       3.454   5.043  19.473  0.00  0.00    +0.000 C 
ATOM      9  C   UNL     1       3.372   3.495  19.314  0.00  0.00    +0.000 C 
ATOM     10  C   UNL     1       2.030   2.922  18.925  0.00  0.00    +0.000 C 
ATOM     11  C   UNL     1       0.879   3.425  19.774  0.00  0.00    +0.000 C 
ATOM     12  C   UNL     1       1.046   4.829  20.355  0.00  0.00    +0.000 C 
ATOM     13  C   UNL     1       2.496   5.254  20.691  0.00  0.00    +0.000 C 
ATOM     14  H   UNL     1       1.800   7.278  19.567  0.00  0.00    +0.000 HD
ATOM     15  H   UNL     1       4.951   6.382  19.851  0.00  0.00    +0.000 HD
ENDROOT
BRANCH   1  16
ATOM     16  C   UNL     1       2.308   8.536  18.002  0.00  0.00    +0.000 C 
BRANCH  16  21
ATOM     17  C   UNL     1      -2.115  11.874  19.917  0.00  0.00    +0.000 C 
ATOM     18  C   UNL     1      -0.973  11.053  19.384  0.00  0.00    +0.000 A 
ATOM     19  C   UNL     1      -1.087  10.336  18.191  0.00  0.00    +0.000 A 
ATOM     20  C   UNL     1      -0.017   9.553  17.716  0.00  0.00    +0.000 A 
ATOM     21  C   UNL     1       1.190   9.481  18.432  0.00  0.00    +0.000 A 
ATOM     22  C   UNL     1       1.289  10.213  19.622  0.00  0.00    +0.000 A 
ATOM     23  C   UNL     1       0.229  10.986  20.094  0.00  0.00    +0.000 A 
ENDBRANCH  16  21
ENDBRANCH   1  16
TORSDOF 2
ENDMDL
MODEL 9
REMARK VINA RESULT:      -7.0      1.233      1.874
REMARK  Name = 
REMARK  3 active torsions:
REMARK  status: ('A' for Active; 'I' for Inactive)
REMARK    1  A    between atoms: C_1  and  C_2
REMARK    2  A    between atoms: C_5  and  C_6
REMARK    3  A    between atoms: C_6  and  N_7
REMARK                            x       y       z     vdW  Elec       q    Type
REMARK                         _______ _______ _______ _____ _____    ______ ____
ROOT
ATOM      1  N   UNL     1       2.314   6.794  19.833  0.00  0.00    +0.000 N 
ATOM      2  C   UNL     1       2.992   5.960  18.930  0.00  0.00    +0.000 C 
ATOM      3  N   UNL     1       3.481   6.595  17.924  0.00  0.00    +0.000 NA
ATOM      4  C   UNL     1       4.490   6.272  16.952  0.00  0.00    +0.000 C 
ATOM      5  C   UNL     1       5.005   4.864  16.954  0.00  0.00    +0.000 C 
ATOM      6  C   UNL     1       5.591   4.372  18.294  0.00  0.00    +0.000 C 
ATOM      7  N   UNL     1       4.814   4.465  19.551  0.00  0.00    +0.000 NA
ATOM      8  C   UNL     1       3.337   4.416  19.356  0.00  0.00    +0.000 C 
ATOM      9  C   UNL     1       3.033   3.115  18.555  0.00  0.00    +0.000 C 
ATOM     10  C   UNL     1       1.584   2.848  18.218  0.00  0.00    +0.000 C 
ATOM     11  C   UNL     1       0.648   2.966  19.404  0.00  0.00    +0.000 C 
ATOM     12  C   UNL     1       1.080   3.944  20.498  0.00  0.00    +0.000 C 
ATOM     13  C   UNL     1       2.606   4.098  20.702  0.00  0.00    +0.000 C 
ATOM     14  H   UNL     1       2.020   6.443  20.733  0.00  0.00    +0.000 HD
ATOM     15  H   UNL     1       5.035   5.362  19.989  0.00  0.00    +0.000 HD
ENDROOT
BRANCH   1  16
ATOM     16  C   UNL     1       2.449   8.248  19.811  0.00  0.00    +0.000 C 
BRANCH  16  21
ATOM     17  C   UNL     1      -2.352  11.355  18.521  0.00  0.00    +0.000 C 
ATOM     18  C   UNL     1      -1.153  10.516  18.868  0.00  0.00    +0.000 A 
ATOM     19  C   UNL     1      -0.834  10.217  20.195  0.00  0.00    +0.000 A 
ATOM     20  C   UNL     1       0.305   9.450  20.505  0.00  0.00    +0.000 A 
ATOM     21  C   UNL     1       1.142   8.965  19.486  0.00  0.00    +0.000 A 
ATOM     22  C   UNL     1       0.802   9.268  18.161  0.00  0.00    +0.000 A 
ATOM     23  C   UNL     1      -0.325  10.030  17.853  0.00  0.00    +0.000 A 
ENDBRANCH  16  21
ENDBRANCH   1  16
TORSDOF 2
ENDMDL
