MODEL 1
REMARK VINA RESULT:      -7.1      0.000      0.000
REMARK  Name = 
REMARK  9 active torsions:
REMARK  status: ('A' for Active; 'I' for Inactive)
REMARK    1  A    between atoms: C_1  and  O_2
REMARK    2  A    between atoms: O_2  and  C_3
REMARK    3  A    between atoms: C_3  and  C_4
REMARK    4  A    between atoms: C_4  and  C_5
REMARK    5  A    between atoms: C_4  and  N_6
REMARK    6  A    between atoms: C_7  and  C_9
REMARK    7  A    between atoms: C_11  and  C_12
REMARK    8  A    between atoms: C_16  and  O_17
REMARK    9  A    between atoms: O_17  and  C_18
REMARK                            x       y       z     vdW  Elec       q    Type
REMARK                         _______ _______ _______ _____ _____    ______ ____
ROOT
ATOM      1  C   UNL     1       5.554   5.416  15.564  0.00  0.00    +0.000 A 
ATOM      2  C   UNL     1       4.843   4.654  16.522  0.00  0.00    +0.000 A 
ATOM      3  C   UNL     1       4.226   5.576  17.334  0.00  0.00    +0.000 A 
ATOM      4  O   UNL     1       4.510   6.823  16.856  0.00  0.00    +0.000 OA
ATOM      5  N   UNL     1       5.340   6.731  15.749  0.00  0.00    +0.000 NA
ENDROOT
BRANCH   3   6
ATOM      6  C   UNL     1       3.415   5.489  18.544  0.00  0.00    +0.000 A 
ATOM      7  C   UNL     1       2.664   6.575  19.014  0.00  0.00    +0.000 A 
ATOM      8  C   UNL     1       1.934   6.475  20.202  0.00  0.00    +0.000 A 
ATOM      9  C   UNL     1       1.951   5.289  20.933  0.00  0.00    +0.000 A 
ATOM     10  C   UNL     1       2.686   4.191  20.483  0.00  0.00    +0.000 A 
ATOM     11  C   UNL     1       3.406   4.297  19.291  0.00  0.00    +0.000 A 
BRANCH  10  12
ATOM     12  O   UNL     1       2.631   3.088  21.290  0.00  0.00    +0.000 OA
ATOM     13  C   UNL     1       1.338   2.613  21.643  0.00  0.00    +0.000 C 
ENDBRANCH  10  12
ENDBRANCH   3   6
BRANCH   1  15
ATOM     14  N   UNL     1       5.802   4.091  13.585  0.00  0.00    +0.000 N 
ATOM     15  C   UNL     1       6.430   4.896  14.513  0.00  0.00    +0.000 C 
ATOM     16  O   UNL     1       7.624   5.172  14.465  0.00  0.00    +0.000 OA
ATOM     17  H   UNL     1       4.825   3.872  13.755  0.00  0.00    +0.000 HD
BRANCH  14  18
ATOM     18  C   UNL     1       6.516   3.474  12.474  0.00  0.00    +0.000 C 
ATOM     19  C   UNL     1       7.194   4.549  11.627  0.00  0.00    +0.000 C 
BRANCH  18  20
ATOM     20  C   UNL     1       5.591   2.589  11.620  0.00  0.00    +0.000 C 
BRANCH  20  22
ATOM     21  C   UNL     1       3.712   3.541  10.547  0.00  0.00    +0.000 C 
ATOM     22  O   UNL     1       4.238   3.031  11.764  0.00  0.00    +0.000 OA
ENDBRANCH  20  22
ENDBRANCH  18  20
ENDBRANCH  14  18
ENDBRANCH   1  15
TORSDOF 6
ENDMDL
MODEL 2
REMARK VINA RESULT:      -6.9      2.029      7.511
REMARK  Name = 
REMARK  9 active torsions:
REMARK  status: ('A' for Active; 'I' for Inactive)
REMARK    1  A    between atoms: C_1  and  O_2
REMARK    2  A    between atoms: O_2  and  C_3
REMARK    3  A    between atoms: C_3  and  C_4
REMARK    4  A    between atoms: C_4  and  C_5
REMARK    5  A    between atoms: C_4  and  N_6
REMARK    6  A    between atoms: C_7  and  C_9
REMARK    7  A    between atoms: C_11  and  C_12
REMARK    8  A    between atoms: C_16  and  O_17
REMARK    9  A    between atoms: O_17  and  C_18
REMARK                            x       y       z     vdW  Elec       q    Type
REMARK                         _______ _______ _______ _____ _____    ______ ____
ROOT
ATOM      1  C   UNL     1       4.887   4.986  18.060  0.00  0.00    +0.000 A 
ATOM      2  C   UNL     1       4.626   4.652  16.709  0.00  0.00    +0.000 A 
ATOM      3  C   UNL     1       5.853   4.667  16.088  0.00  0.00    +0.000 A 
ATOM      4  O   UNL     1       6.804   4.944  17.029  0.00  0.00    +0.000 OA
ATOM      5  N   UNL     1       6.207   5.145  18.264  0.00  0.00    +0.000 NA
ENDROOT
BRANCH   3   6
ATOM      6  C   UNL     1       6.301   4.495  14.710  0.00  0.00    +0.000 A 
ATOM      7  C   UNL     1       7.406   5.187  14.196  0.00  0.00    +0.000 A 
ATOM      8  C   UNL     1       7.783   5.036  12.859  0.00  0.00    +0.000 A 
ATOM      9  C   UNL     1       7.055   4.192  12.021  0.00  0.00    +0.000 A 
ATOM     10  C   UNL     1       5.955   3.487  12.510  0.00  0.00    +0.000 A 
ATOM     11  C   UNL     1       5.590   3.638  13.850  0.00  0.00    +0.000 A 
BRANCH  10  12
ATOM     12  O   UNL     1       5.317   2.699  11.592  0.00  0.00    +0.000 OA
ATOM     13  C   UNL     1       4.011   3.103  11.195  0.00  0.00    +0.000 C 
ENDBRANCH  10  12
ENDBRANCH   3   6
BRANCH   1  15
ATOM     14  N   UNL     1       3.426   3.996  19.678  0.00  0.00    +0.000 N 
ATOM     15  C   UNL     1       3.894   5.167  19.120  0.00  0.00    +0.000 C 
ATOM     16  O   UNL     1       3.525   6.279  19.483  0.00  0.00    +0.000 OA
ATOM     17  H   UNL     1       3.746   3.128  19.258  0.00  0.00    +0.000 HD
BRANCH  14  18
ATOM     18  C   UNL     1       2.426   3.979  20.738  0.00  0.00    +0.000 C 
ATOM     19  C   UNL     1       2.621   2.748  21.622  0.00  0.00    +0.000 C 
BRANCH  18  20
ATOM     20  C   UNL     1       0.994   4.043  20.176  0.00  0.00    +0.000 C 
BRANCH  20  22
ATOM     21  C   UNL     1       0.629   2.211  18.729  0.00  0.00    +0.000 C 
ATOM     22  O   UNL     1       0.990   3.582  18.823  0.00  0.00    +0.000 OA
ENDBRANCH  20  22
ENDBRANCH  18  20
ENDBRANCH  14  18
ENDBRANCH   1  15
TORSDOF 6
ENDMDL
MODEL 3
REMARK VINA RESULT:      -6.9      1.107      1.115
REMARK  Name = 
REMARK  9 active torsions:
REMARK  status: ('A' for Active; 'I' for Inactive)
REMARK    1  A    between atoms: C_1  and  O_2
REMARK    2  A    between atoms: O_2  and  C_3
REMARK    3  A    between atoms: C_3  and  C_4
REMARK    4  A    between atoms: C_4  and  C_5
REMARK    5  A    between atoms: C_4  and  N_6
REMARK    6  A    between atoms: C_7  and  C_9
REMARK    7  A    between atoms: C_11  and  C_12
REMARK    8  A    between atoms: C_16  and  O_17
REMARK    9  A    between atoms: O_17  and  C_18
REMARK                            x       y       z     vdW  Elec       q    Type
REMARK                         _______ _______ _______ _____ _____    ______ ____
ROOT
ATOM      1  C   UNL     1       6.321   4.840  16.066  0.00  0.00    +0.000 A 
ATOM      2  C   UNL     1       5.031   5.349  16.352  0.00  0.00    +0.000 A 
ATOM      3  C   UNL     1       4.903   5.263  17.719  0.00  0.00    +0.000 A 
ATOM      4  O   UNL     1       6.073   4.777  18.228  0.00  0.00    +0.000 OA
ATOM      5  N   UNL     1       6.964   4.509  17.200  0.00  0.00    +0.000 NA
ENDROOT
BRANCH   3   6
ATOM      6  C   UNL     1       3.823   5.536  18.661  0.00  0.00    +0.000 A 
ATOM      7  C   UNL     1       3.125   6.752  18.660  0.00  0.00    +0.000 A 
ATOM      8  C   UNL     1       2.126   7.002  19.605  0.00  0.00    +0.000 A 
ATOM      9  C   UNL     1       1.818   6.038  20.564  0.00  0.00    +0.000 A 
ATOM     10  C   UNL     1       2.493   4.817  20.583  0.00  0.00    +0.000 A 
ATOM     11  C   UNL     1       3.485   4.572  19.629  0.00  0.00    +0.000 A 
BRANCH  10  12
ATOM     12  O   UNL     1       2.108   3.958  21.575  0.00  0.00    +0.000 OA
ATOM     13  C   UNL     1       1.816   2.620  21.189  0.00  0.00    +0.000 C 
ENDBRANCH  10  12
ENDBRANCH   3   6
BRANCH   1  15
ATOM     14  N   UNL     1       6.241   3.758  13.931  0.00  0.00    +0.000 N 
ATOM     15  C   UNL     1       6.909   4.655  14.738  0.00  0.00    +0.000 C 
ATOM     16  O   UNL     1       7.910   5.267  14.379  0.00  0.00    +0.000 OA
ATOM     17  H   UNL     1       5.463   3.257  14.350  0.00  0.00    +0.000 HD
BRANCH  14  18
ATOM     18  C   UNL     1       6.685   3.439  12.581  0.00  0.00    +0.000 C 
ATOM     19  C   UNL     1       7.128   4.711  11.861  0.00  0.00    +0.000 C 
BRANCH  18  20
ATOM     20  C   UNL     1       5.602   2.692  11.782  0.00  0.00    +0.000 C 
BRANCH  20  22
ATOM     21  C   UNL     1       3.555   3.206  10.719  0.00  0.00    +0.000 C 
ATOM     22  O   UNL     1       4.366   3.406  11.867  0.00  0.00    +0.000 OA
ENDBRANCH  20  22
ENDBRANCH  18  20
ENDBRANCH  14  18
ENDBRANCH   1  15
TORSDOF 6
ENDMDL
MODEL 4
REMARK VINA RESULT:      -6.9      1.563      2.226
REMARK  Name = 
REMARK  9 active torsions:
REMARK  status: ('A' for Active; 'I' for Inactive)
REMARK    1  A    between atoms: C_1  and  O_2
REMARK    2  A    between atoms: O_2  and  C_3
REMARK    3  A    between atoms: C_3  and  C_4
REMARK    4  A    between atoms: C_4  and  C_5
REMARK    5  A    between atoms: C_4  and  N_6
REMARK    6  A    between atoms: C_7  and  C_9
REMARK    7  A    between atoms: C_11  and  C_12
REMARK    8  A    between atoms: C_16  and  O_17
REMARK    9  A    between atoms: O_17  and  C_18
REMARK                            x       y       z     vdW  Elec       q    Type
REMARK                         _______ _______ _______ _____ _____    ______ ____
ROOT
ATOM      1  C   UNL     1       6.474   4.492  16.282  0.00  0.00    +0.000 A 
ATOM      2  C   UNL     1       5.116   4.465  16.683  0.00  0.00    +0.000 A 
ATOM      3  C   UNL     1       5.146   4.391  18.056  0.00  0.00    +0.000 A 
ATOM      4  O   UNL     1       6.451   4.425  18.458  0.00  0.00    +0.000 OA
ATOM      5  N   UNL     1       7.287   4.487  17.353  0.00  0.00    +0.000 NA
ENDROOT
BRANCH   3   6
ATOM      6  C   UNL     1       4.127   4.255  19.093  0.00  0.00    +0.000 A 
ATOM      7  C   UNL     1       3.869   3.031  19.724  0.00  0.00    +0.000 A 
ATOM      8  C   UNL     1       2.855   2.922  20.680  0.00  0.00    +0.000 A 
ATOM      9  C   UNL     1       2.088   4.038  21.012  0.00  0.00    +0.000 A 
ATOM     10  C   UNL     1       2.330   5.270  20.403  0.00  0.00    +0.000 A 
ATOM     11  C   UNL     1       3.350   5.371  19.454  0.00  0.00    +0.000 A 
BRANCH  10  12
ATOM     12  O   UNL     1       1.507   6.286  20.804  0.00  0.00    +0.000 OA
ATOM     13  C   UNL     1       1.843   7.597  20.365  0.00  0.00    +0.000 C 
ENDBRANCH  10  12
ENDBRANCH   3   6
BRANCH   1  15
ATOM     14  N   UNL     1       6.356   3.602  14.062  0.00  0.00    +0.000 N 
ATOM     15  C   UNL     1       6.975   4.500  14.906  0.00  0.00    +0.000 C 
ATOM     16  O   UNL     1       7.867   5.260  14.542  0.00  0.00    +0.000 OA
ATOM     17  H   UNL     1       5.677   2.973  14.480  0.00  0.00    +0.000 HD
BRANCH  14  18
ATOM     18  C   UNL     1       6.729   3.461  12.661  0.00  0.00    +0.000 C 
ATOM     19  C   UNL     1       7.063   4.828  12.068  0.00  0.00    +0.000 C 
BRANCH  18  20
ATOM     20  C   UNL     1       5.634   2.749  11.845  0.00  0.00    +0.000 C 
BRANCH  20  22
ATOM     21  C   UNL     1       3.558   3.187  10.804  0.00  0.00    +0.000 C 
ATOM     22  O   UNL     1       4.438   3.533  11.864  0.00  0.00    +0.000 OA
ENDBRANCH  20  22
ENDBRANCH  18  20
ENDBRANCH  14  18
ENDBRANCH   1  15
TORSDOF 6
ENDMDL
MODEL 5
REMARK VINA RESULT:      -6.9      5.867      8.036
REMARK  Name = 
REMARK  9 active torsions:
REMARK  status: ('A' for Active; 'I' for Inactive)
REMARK    1  A    between atoms: C_1  and  O_2
REMARK    2  A    between atoms: O_2  and  C_3
REMARK    3  A    between atoms: C_3  and  C_4
REMARK    4  A    between atoms: C_4  and  C_5
REMARK    5  A    between atoms: C_4  and  N_6
REMARK    6  A    between atoms: C_7  and  C_9
REMARK    7  A    between atoms: C_11  and  C_12
REMARK    8  A    between atoms: C_16  and  O_17
REMARK    9  A    between atoms: O_17  and  C_18
REMARK                            x       y       z     vdW  Elec       q    Type
REMARK                         _______ _______ _______ _____ _____    ______ ____
ROOT
ATOM      1  C   UNL     1       7.078   7.383  17.596  0.00  0.00    +0.000 A 
ATOM      2  C   UNL     1       7.384   8.761  17.481  0.00  0.00    +0.000 A 
ATOM      3  C   UNL     1       8.419   8.977  18.360  0.00  0.00    +0.000 A 
ATOM      4  O   UNL     1       8.749   7.783  18.933  0.00  0.00    +0.000 OA
ATOM      5  N   UNL     1       7.914   6.781  18.461  0.00  0.00    +0.000 NA
ENDROOT
BRANCH   3   6
ATOM      6  C   UNL     1       9.156  10.159  18.797  0.00  0.00    +0.000 A 
ATOM      7  C   UNL     1       9.324  10.469  20.153  0.00  0.00    +0.000 A 
ATOM      8  C   UNL     1       9.996  11.633  20.540  0.00  0.00    +0.000 A 
ATOM      9  C   UNL     1      10.502  12.499  19.572  0.00  0.00    +0.000 A 
ATOM     10  C   UNL     1      10.354  12.209  18.215  0.00  0.00    +0.000 A 
ATOM     11  C   UNL     1       9.688  11.040  17.838  0.00  0.00    +0.000 A 
BRANCH  10  12
ATOM     12  O   UNL     1      10.885  13.137  17.363  0.00  0.00    +0.000 OA
ATOM     13  C   UNL     1      10.592  14.502  17.637  0.00  0.00    +0.000 C 
ENDBRANCH  10  12
ENDBRANCH   3   6
BRANCH   1  15
ATOM     14  N   UNL     1       5.127   6.004  17.748  0.00  0.00    +0.000 N 
ATOM     15  C   UNL     1       5.998   6.671  16.911  0.00  0.00    +0.000 C 
ATOM     16  O   UNL     1       5.880   6.685  15.690  0.00  0.00    +0.000 OA
ATOM     17  H   UNL     1       5.353   6.001  18.738  0.00  0.00    +0.000 HD
BRANCH  14  18
ATOM     18  C   UNL     1       3.998   5.231  17.246  0.00  0.00    +0.000 C 
ATOM     19  C   UNL     1       2.757   5.508  18.092  0.00  0.00    +0.000 C 
BRANCH  18  20
ATOM     20  C   UNL     1       4.313   3.726  17.190  0.00  0.00    +0.000 C 
BRANCH  20  22
ATOM     21  C   UNL     1       3.532   1.909  18.483  0.00  0.00    +0.000 C 
ATOM     22  O   UNL     1       4.197   3.164  18.500  0.00  0.00    +0.000 OA
ENDBRANCH  20  22
ENDBRANCH  18  20
ENDBRANCH  14  18
ENDBRANCH   1  15
TORSDOF 6
ENDMDL
MODEL 6
REMARK VINA RESULT:      -6.8      5.832      8.140
REMARK  Name = 
REMARK  9 active torsions:
REMARK  status: ('A' for Active; 'I' for Inactive)
REMARK    1  A    between atoms: C_1  and  O_2
REMARK    2  A    between atoms: O_2  and  C_3
REMARK    3  A    between atoms: C_3  and  C_4
REMARK    4  A    between atoms: C_4  and  C_5
REMARK    5  A    between atoms: C_4  and  N_6
REMARK    6  A    between atoms: C_7  and  C_9
REMARK    7  A    between atoms: C_11  and  C_12
REMARK    8  A    between atoms: C_16  and  O_17
REMARK    9  A    between atoms: O_17  and  C_18
REMARK                            x       y       z     vdW  Elec       q    Type
REMARK                         _______ _______ _______ _____ _____    ______ ____
ROOT
ATOM      1  C   UNL     1       7.479   6.942  17.790  0.00  0.00    +0.000 A 
ATOM      2  C   UNL     1       8.313   7.573  18.745  0.00  0.00    +0.000 A 
ATOM      3  C   UNL     1       8.427   8.877  18.322  0.00  0.00    +0.000 A 
ATOM      4  O   UNL     1       7.661   9.031  17.202  0.00  0.00    +0.000 OA
ATOM      5  N   UNL     1       7.066   7.825  16.863  0.00  0.00    +0.000 NA
ENDROOT
BRANCH   3   6
ATOM      6  C   UNL     1       9.185  10.036  18.783  0.00  0.00    +0.000 A 
ATOM      7  C   UNL     1       9.307  10.350  20.143  0.00  0.00    +0.000 A 
ATOM      8  C   UNL     1      10.000  11.494  20.551  0.00  0.00    +0.000 A 
ATOM      9  C   UNL     1      10.575  12.336  19.600  0.00  0.00    +0.000 A 
ATOM     10  C   UNL     1      10.473  12.041  18.240  0.00  0.00    +0.000 A 
ATOM     11  C   UNL     1       9.785  10.892  17.842  0.00  0.00    +0.000 A 
BRANCH  10  12
ATOM     12  O   UNL     1      11.070  12.945  17.405  0.00  0.00    +0.000 OA
ATOM     13  C   UNL     1      11.449  14.193  17.975  0.00  0.00    +0.000 C 
ENDBRANCH  10  12
ENDBRANCH   3   6
BRANCH   1  15
ATOM     14  N   UNL     1       5.775   5.275  18.001  0.00  0.00    +0.000 N 
ATOM     15  C   UNL     1       7.109   5.527  17.757  0.00  0.00    +0.000 C 
ATOM     16  O   UNL     1       7.927   4.645  17.517  0.00  0.00    +0.000 OA
ATOM     17  H   UNL     1       5.197   6.070  18.255  0.00  0.00    +0.000 HD
BRANCH  14  18
ATOM     18  C   UNL     1       5.224   3.926  18.020  0.00  0.00    +0.000 C 
ATOM     19  C   UNL     1       4.162   3.778  16.932  0.00  0.00    +0.000 C 
BRANCH  18  20
ATOM     20  C   UNL     1       4.662   3.555  19.405  0.00  0.00    +0.000 C 
BRANCH  20  22
ATOM     21  C   UNL     1       2.490   3.298  20.299  0.00  0.00    +0.000 C 
ATOM     22  O   UNL     1       3.380   2.940  19.252  0.00  0.00    +0.000 OA
ENDBRANCH  20  22
ENDBRANCH  18  20
ENDBRANCH  14  18
ENDBRANCH   1  15
TORSDOF 6
ENDMDL
MODEL 7
REMARK VINA RESULT:      -6.7      2.422      3.213
REMARK  Name = 
REMARK  9 active torsions:
REMARK  status: ('A' for Active; 'I' for Inactive)
REMARK    1  A    between atoms: C_1  and  O_2
REMARK    2  A    between atoms: O_2  and  C_3
REMARK    3  A    between atoms: C_3  and  C_4
REMARK    4  A    between atoms: C_4  and  C_5
REMARK    5  A    between atoms: C_4  and  N_6
REMARK    6  A    between atoms: C_7  and  C_9
REMARK    7  A    between atoms: C_11  and  C_12
REMARK    8  A    between atoms: C_16  and  O_17
REMARK    9  A    between atoms: O_17  and  C_18
REMARK                            x       y       z     vdW  Elec       q    Type
REMARK                         _______ _______ _______ _____ _____    ______ ____
ROOT
ATOM      1  C   UNL     1       4.709   5.065  16.811  0.00  0.00    +0.000 A 
ATOM      2  C   UNL     1       4.515   6.416  17.189  0.00  0.00    +0.000 A 
ATOM      3  C   UNL     1       3.328   6.431  17.884  0.00  0.00    +0.000 A 
ATOM      4  O   UNL     1       2.863   5.149  17.963  0.00  0.00    +0.000 OA
ATOM      5  N   UNL     1       3.721   4.290  17.292  0.00  0.00    +0.000 NA
ENDROOT
BRANCH   3   6
ATOM      6  C   UNL     1       2.508   7.481  18.480  0.00  0.00    +0.000 A 
ATOM      7  C   UNL     1       2.069   8.589  17.743  0.00  0.00    +0.000 A 
ATOM      8  C   UNL     1       1.324   9.601  18.353  0.00  0.00    +0.000 A 
ATOM      9  C   UNL     1       1.013   9.516  19.709  0.00  0.00    +0.000 A 
ATOM     10  C   UNL     1       1.432   8.420  20.464  0.00  0.00    +0.000 A 
ATOM     11  C   UNL     1       2.170   7.408  19.844  0.00  0.00    +0.000 A 
BRANCH  10  12
ATOM     12  O   UNL     1       1.073   8.454  21.783  0.00  0.00    +0.000 OA
ATOM     13  C   UNL     1       0.389   9.617  22.234  0.00  0.00    +0.000 C 
ENDBRANCH  10  12
ENDBRANCH   3   6
BRANCH   1  15
ATOM     14  N   UNL     1       5.539   4.502  14.637  0.00  0.00    +0.000 N 
ATOM     15  C   UNL     1       5.801   4.539  15.991  0.00  0.00    +0.000 C 
ATOM     16  O   UNL     1       6.866   4.176  16.480  0.00  0.00    +0.000 OA
ATOM     17  H   UNL     1       4.602   4.764  14.344  0.00  0.00    +0.000 HD
BRANCH  14  18
ATOM     18  C   UNL     1       6.503   4.000  13.667  0.00  0.00    +0.000 C 
ATOM     19  C   UNL     1       7.472   5.112  13.268  0.00  0.00    +0.000 C 
BRANCH  18  20
ATOM     20  C   UNL     1       5.812   3.391  12.433  0.00  0.00    +0.000 C 
BRANCH  20  22
ATOM     21  C   UNL     1       6.208   1.372  11.272  0.00  0.00    +0.000 C 
ATOM     22  O   UNL     1       6.755   2.613  11.691  0.00  0.00    +0.000 OA
ENDBRANCH  20  22
ENDBRANCH  18  20
ENDBRANCH  14  18
ENDBRANCH   1  15
TORSDOF 6
ENDMDL
MODEL 8
REMARK VINA RESULT:      -6.7      1.564      2.438
REMARK  Name = 
REMARK  9 active torsions:
REMARK  status: ('A' for Active; 'I' for Inactive)
REMARK    1  A    between atoms: C_1  and  O_2
REMARK    2  A    between atoms: O_2  and  C_3
REMARK    3  A    between atoms: C_3  and  C_4
REMARK    4  A    between atoms: C_4  and  C_5
REMARK    5  A    between atoms: C_4  and  N_6
REMARK    6  A    between atoms: C_7  and  C_9
REMARK    7  A    between atoms: C_11  and  C_12
REMARK    8  A    between atoms: C_16  and  O_17
REMARK    9  A    between atoms: O_17  and  C_18
REMARK                            x       y       z     vdW  Elec       q    Type
REMARK                         _______ _______ _______ _____ _____    ______ ____
ROOT
ATOM      1  C   UNL     1       5.979   4.694  15.695  0.00  0.00    +0.000 A 
ATOM      2  C   UNL     1       4.713   4.413  16.264  0.00  0.00    +0.000 A 
ATOM      3  C   UNL     1       4.862   4.648  17.611  0.00  0.00    +0.000 A 
ATOM      4  O   UNL     1       6.133   5.095  17.829  0.00  0.00    +0.000 OA
ATOM      5  N   UNL     1       6.838   5.126  16.635  0.00  0.00    +0.000 NA
ENDROOT
BRANCH   3   6
ATOM      6  C   UNL     1       3.997   4.487  18.776  0.00  0.00    +0.000 A 
ATOM      7  C   UNL     1       3.851   3.255  19.428  0.00  0.00    +0.000 A 
ATOM      8  C   UNL     1       2.980   3.122  20.513  0.00  0.00    +0.000 A 
ATOM      9  C   UNL     1       2.244   4.220  20.955  0.00  0.00    +0.000 A 
ATOM     10  C   UNL     1       2.377   5.459  20.327  0.00  0.00    +0.000 A 
ATOM     11  C   UNL     1       3.255   5.586  19.248  0.00  0.00    +0.000 A 
BRANCH  10  12
ATOM     12  O   UNL     1       1.597   6.457  20.844  0.00  0.00    +0.000 OA
ATOM     13  C   UNL     1       1.753   7.753  20.279  0.00  0.00    +0.000 C 
ENDBRANCH  10  12
ENDBRANCH   3   6
BRANCH   1  15
ATOM     14  N   UNL     1       5.514   3.722  13.557  0.00  0.00    +0.000 N 
ATOM     15  C   UNL     1       6.357   4.531  14.290  0.00  0.00    +0.000 C 
ATOM     16  O   UNL     1       7.340   5.087  13.812  0.00  0.00    +0.000 OA
ATOM     17  H   UNL     1       4.768   3.257  14.065  0.00  0.00    +0.000 HD
BRANCH  14  18
ATOM     18  C   UNL     1       5.737   3.435  12.146  0.00  0.00    +0.000 C 
ATOM     19  C   UNL     1       4.400   3.320  11.417  0.00  0.00    +0.000 C 
BRANCH  18  20
ATOM     20  C   UNL     1       6.594   2.172  11.946  0.00  0.00    +0.000 C 
BRANCH  20  22
ATOM     21  C   UNL     1       6.153  -0.054  11.287  0.00  0.00    +0.000 C 
ATOM     22  O   UNL     1       5.974   1.320  10.979  0.00  0.00    +0.000 OA
ENDBRANCH  20  22
ENDBRANCH  18  20
ENDBRANCH  14  18
ENDBRANCH   1  15
TORSDOF 6
ENDMDL
MODEL 9
REMARK VINA RESULT:      -6.7      1.977      7.628
REMARK  Name = 
REMARK  9 active torsions:
REMARK  status: ('A' for Active; 'I' for Inactive)
REMARK    1  A    between atoms: C_1  and  O_2
REMARK    2  A    between atoms: O_2  and  C_3
REMARK    3  A    between atoms: C_3  and  C_4
REMARK    4  A    between atoms: C_4  and  C_5
REMARK    5  A    between atoms: C_4  and  N_6
REMARK    6  A    between atoms: C_7  and  C_9
REMARK    7  A    between atoms: C_11  and  C_12
REMARK    8  A    between atoms: C_16  and  O_17
REMARK    9  A    between atoms: O_17  and  C_18
REMARK                            x       y       z     vdW  Elec       q    Type
REMARK                         _______ _______ _______ _____ _____    ______ ____
ROOT
ATOM      1  C   UNL     1       5.775   4.584  17.986  0.00  0.00    +0.000 A 
ATOM      2  C   UNL     1       5.309   4.420  16.659  0.00  0.00    +0.000 A 
ATOM      3  C   UNL     1       6.439   4.405  15.877  0.00  0.00    +0.000 A 
ATOM      4  O   UNL     1       7.527   4.502  16.696  0.00  0.00    +0.000 OA
ATOM      5  N   UNL     1       7.119   4.616  18.017  0.00  0.00    +0.000 NA
ENDROOT
BRANCH   3   6
ATOM      6  C   UNL     1       6.685   4.347  14.439  0.00  0.00    +0.000 A 
ATOM      7  C   UNL     1       7.654   5.146  13.818  0.00  0.00    +0.000 A 
ATOM      8  C   UNL     1       7.834   5.102  12.433  0.00  0.00    +0.000 A 
ATOM      9  C   UNL     1       7.042   4.259  11.654  0.00  0.00    +0.000 A 
ATOM     10  C   UNL     1       6.074   3.448  12.249  0.00  0.00    +0.000 A 
ATOM     11  C   UNL     1       5.907   3.493  13.635  0.00  0.00    +0.000 A 
BRANCH  10  12
ATOM     12  O   UNL     1       5.355   2.673  11.381  0.00  0.00    +0.000 OA
ATOM     13  C   UNL     1       4.028   3.093  11.092  0.00  0.00    +0.000 C 
ENDBRANCH  10  12
ENDBRANCH   3   6
BRANCH   1  15
ATOM     14  N   UNL     1       3.770   5.414  18.996  0.00  0.00    +0.000 N 
ATOM     15  C   UNL     1       4.951   4.728  19.187  0.00  0.00    +0.000 C 
ATOM     16  O   UNL     1       5.289   4.260  20.269  0.00  0.00    +0.000 OA
ATOM     17  H   UNL     1       3.618   5.818  18.077  0.00  0.00    +0.000 HD
BRANCH  14  18
ATOM     18  C   UNL     1       2.827   5.665  20.079  0.00  0.00    +0.000 C 
ATOM     19  C   UNL     1       1.801   4.536  20.151  0.00  0.00    +0.000 C 
BRANCH  18  20
ATOM     20  C   UNL     1       2.141   7.036  19.935  0.00  0.00    +0.000 C 
BRANCH  20  22
ATOM     21  C   UNL     1       1.758   8.754  18.359  0.00  0.00    +0.000 C 
ATOM     22  O   UNL     1       2.603   7.681  18.745  0.00  0.00    +0.000 OA
ENDBRANCH  20  22
ENDBRANCH  18  20
ENDBRANCH  14  18
ENDBRANCH   1  15
TORSDOF 6
ENDMDL
