MODEL 1
REMARK VINA RESULT:      -7.3      0.000      0.000
REMARK  Name = 
REMARK  4 active torsions:
REMARK  status: ('A' for Active; 'I' for Inactive)
REMARK    1  A    between atoms: C_2  and  O_3
REMARK    2  A    between atoms: C_2  and  C_4
REMARK    3  A    between atoms: N_6  and  C_7
REMARK    4  A    between atoms: N_26  and  O_27
REMARK                            x       y       z     vdW  Elec       q    Type
REMARK                         _______ _______ _______ _____ _____    ______ ____
ROOT
ATOM      1  C   UNL     1      -3.021  10.581  16.351  0.00  0.00    +0.000 A 
ATOM      2  C   UNL     1      -1.870  10.306  16.973  0.00  0.00    +0.000 A 
ATOM      3  N   UNL     1      -1.493  10.660  18.260  0.00  0.00    +0.000 N 
ATOM      4  C   UNL     1      -2.396  11.486  19.060  0.00  0.00    +0.000 A 
ATOM      5  C   UNL     1      -2.157  12.020  20.377  0.00  0.00    +0.000 A 
ATOM      6  C   UNL     1      -3.189  12.789  21.062  0.00  0.00    +0.000 A 
ATOM      7  C   UNL     1      -4.396  13.039  20.374  0.00  0.00    +0.000 A 
ATOM      8  F   UNL     1      -5.383  13.739  20.960  0.00  0.00    +0.000 F 
ATOM      9  C   UNL     1      -4.618  12.592  19.095  0.00  0.00    +0.000 A 
ATOM     10  C   UNL     1      -3.648  11.812  18.464  0.00  0.00    +0.000 A 
ATOM     11  C   UNL     1      -4.006  11.347  17.107  0.00  0.00    +0.000 A 
ATOM     12  O   UNL     1      -5.101  11.603  16.585  0.00  0.00    +0.000 OA
ATOM     13  N   UNL     1      -3.132  13.306  22.380  0.00  0.00    +0.000 N 
ATOM     14  C   UNL     1      -3.212  14.781  22.463  0.00  0.00    +0.000 C 
ATOM     15  C   UNL     1      -1.742  15.149  22.317  0.00  0.00    +0.000 C 
ATOM     16  C   UNL     1      -1.050  14.106  23.226  0.00  0.00    +0.000 C 
ATOM     17  C   UNL     1      -2.097  12.962  23.362  0.00  0.00    +0.000 C 
ATOM     18  C   UNL     1      -1.783  11.484  23.382  0.00  0.00    +0.000 C 
ATOM     19  C   UNL     1      -0.829  11.068  22.302  0.00  0.00    +0.000 C 
ATOM     20  N   UNL     1      -0.081  10.003  22.379  0.00  0.00    +0.000 NA
ATOM     21  C   UNL     1      -0.804  11.897  21.038  0.00  0.00    +0.000 C 
ENDROOT
BRANCH   3  22
ATOM     22  C   UNL     1      -0.188  10.122  18.724  0.00  0.00    +0.000 C 
ATOM     23  C   UNL     1       0.943   9.505  17.934  0.00  0.00    +0.000 C 
ATOM     24  C   UNL     1       1.063  10.923  18.384  0.00  0.00    +0.000 C 
ENDBRANCH   3  22
BRANCH   1  26
ATOM     25  O   UNL     1      -2.316   9.963  14.168  0.00  0.00    +0.000 OA
ATOM     26  C   UNL     1      -3.227  10.107  14.970  0.00  0.00    +0.000 C 
BRANCH  26  27
ATOM     27  O   UNL     1      -4.511   9.823  14.662  0.00  0.00    +0.000 OA
ATOM     28  H   UNL     1      -5.175  10.258  15.259  0.00  0.00    +0.000 HD
ENDBRANCH  26  27
ENDBRANCH   1  26
BRANCH  20  29
ATOM     29  O   UNL     1      -0.299   9.313  23.582  0.00  0.00    +0.000 OA
ATOM     30  H   UNL     1       0.478   8.729  23.649  0.00  0.00    +0.000 HD
ENDBRANCH  20  29
TORSDOF 4
ENDMDL
MODEL 2
REMARK VINA RESULT:      -6.9      2.990      6.022
REMARK  Name = 
REMARK  4 active torsions:
REMARK  status: ('A' for Active; 'I' for Inactive)
REMARK    1  A    between atoms: C_2  and  O_3
REMARK    2  A    between atoms: C_2  and  C_4
REMARK    3  A    between atoms: N_6  and  C_7
REMARK    4  A    between atoms: N_26  and  O_27
REMARK                            x       y       z     vdW  Elec       q    Type
REMARK                         _______ _______ _______ _____ _____    ______ ____
ROOT
ATOM      1  C   UNL     1      -0.385  11.979  20.730  0.00  0.00    +0.000 A 
ATOM      2  C   UNL     1      -1.259  12.441  21.629  0.00  0.00    +0.000 A 
ATOM      3  N   UNL     1      -2.629  12.600  21.479  0.00  0.00    +0.000 N 
ATOM      4  C   UNL     1      -3.238  12.302  20.184  0.00  0.00    +0.000 A 
ATOM      5  C   UNL     1      -4.618  12.476  19.806  0.00  0.00    +0.000 A 
ATOM      6  C   UNL     1      -5.078  12.079  18.480  0.00  0.00    +0.000 A 
ATOM      7  C   UNL     1      -4.122  11.579  17.570  0.00  0.00    +0.000 A 
ATOM      8  F   UNL     1      -4.491  11.194  16.335  0.00  0.00    +0.000 F 
ATOM      9  C   UNL     1      -2.792  11.464  17.891  0.00  0.00    +0.000 A 
ATOM     10  C   UNL     1      -2.367  11.796  19.177  0.00  0.00    +0.000 A 
ATOM     11  C   UNL     1      -0.924  11.594  19.430  0.00  0.00    +0.000 A 
ATOM     12  O   UNL     1      -0.158  11.133  18.572  0.00  0.00    +0.000 OA
ATOM     13  N   UNL     1      -6.408  12.114  17.994  0.00  0.00    +0.000 N 
ATOM     14  C   UNL     1      -6.613  13.012  16.836  0.00  0.00    +0.000 C 
ATOM     15  C   UNL     1      -6.901  14.326  17.549  0.00  0.00    +0.000 C 
ATOM     16  C   UNL     1      -7.852  13.882  18.686  0.00  0.00    +0.000 C 
ATOM     17  C   UNL     1      -7.591  12.355  18.830  0.00  0.00    +0.000 C 
ATOM     18  C   UNL     1      -7.545  11.592  20.134  0.00  0.00    +0.000 C 
ATOM     19  C   UNL     1      -6.721  12.271  21.187  0.00  0.00    +0.000 C 
ATOM     20  N   UNL     1      -6.888  12.072  22.465  0.00  0.00    +0.000 NA
ATOM     21  C   UNL     1      -5.600  13.170  20.721  0.00  0.00    +0.000 C 
ENDROOT
BRANCH   3  22
ATOM     22  C   UNL     1      -3.366  13.039  22.692  0.00  0.00    +0.000 C 
ATOM     23  C   UNL     1      -2.844  13.571  24.006  0.00  0.00    +0.000 C 
ATOM     24  C   UNL     1      -3.387  14.530  23.001  0.00  0.00    +0.000 C 
ENDBRANCH   3  22
BRANCH   1  26
ATOM     25  O   UNL     1       1.808  12.835  21.050  0.00  0.00    +0.000 OA
ATOM     26  C   UNL     1       1.042  11.885  21.093  0.00  0.00    +0.000 C 
BRANCH  26  27
ATOM     27  O   UNL     1       1.436  10.658  21.496  0.00  0.00    +0.000 OA
ATOM     28  H   UNL     1       1.835  10.640  22.407  0.00  0.00    +0.000 HD
ENDBRANCH  26  27
ENDBRANCH   1  26
BRANCH  20  29
ATOM     29  O   UNL     1      -7.914  11.145  22.706  0.00  0.00    +0.000 OA
ATOM     30  H   UNL     1      -8.261  10.958  21.814  0.00  0.00    +0.000 HD
ENDBRANCH  20  29
TORSDOF 4
ENDMDL
MODEL 3
REMARK VINA RESULT:      -6.9      2.878      4.826
REMARK  Name = 
REMARK  4 active torsions:
REMARK  status: ('A' for Active; 'I' for Inactive)
REMARK    1  A    between atoms: C_2  and  O_3
REMARK    2  A    between atoms: C_2  and  C_4
REMARK    3  A    between atoms: N_6  and  C_7
REMARK    4  A    between atoms: N_26  and  O_27
REMARK                            x       y       z     vdW  Elec       q    Type
REMARK                         _______ _______ _______ _____ _____    ______ ____
ROOT
ATOM      1  C   UNL     1      -0.701  10.573  18.980  0.00  0.00    +0.000 A 
ATOM      2  C   UNL     1      -0.935  11.166  20.155  0.00  0.00    +0.000 A 
ATOM      3  N   UNL     1      -2.094  11.808  20.568  0.00  0.00    +0.000 N 
ATOM      4  C   UNL     1      -3.204  11.937  19.627  0.00  0.00    +0.000 A 
ATOM      5  C   UNL     1      -4.450  12.629  19.835  0.00  0.00    +0.000 A 
ATOM      6  C   UNL     1      -5.483  12.621  18.805  0.00  0.00    +0.000 A 
ATOM      7  C   UNL     1      -5.200  11.966  17.588  0.00  0.00    +0.000 A 
ATOM      8  F   UNL     1      -6.117  11.922  16.606  0.00  0.00    +0.000 F 
ATOM      9  C   UNL     1      -3.995  11.353  17.347  0.00  0.00    +0.000 A 
ATOM     10  C   UNL     1      -3.030  11.320  18.355  0.00  0.00    +0.000 A 
ATOM     11  C   UNL     1      -1.787  10.598  18.006  0.00  0.00    +0.000 A 
ATOM     12  O   UNL     1      -1.630  10.037  16.913  0.00  0.00    +0.000 OA
ATOM     13  N   UNL     1      -6.781  13.183  18.895  0.00  0.00    +0.000 N 
ATOM     14  C   UNL     1      -7.048  14.262  17.918  0.00  0.00    +0.000 C 
ATOM     15  C   UNL     1      -6.533  15.470  18.686  0.00  0.00    +0.000 C 
ATOM     16  C   UNL     1      -7.084  15.215  20.109  0.00  0.00    +0.000 C 
ATOM     17  C   UNL     1      -7.383  13.688  20.136  0.00  0.00    +0.000 C 
ATOM     18  C   UNL     1      -7.145  12.768  21.311  0.00  0.00    +0.000 C 
ATOM     19  C   UNL     1      -5.798  12.955  21.945  0.00  0.00    +0.000 C 
ATOM     20  N   UNL     1      -5.539  12.634  23.182  0.00  0.00    +0.000 NA
ATOM     21  C   UNL     1      -4.682  13.473  21.068  0.00  0.00    +0.000 C 
ENDROOT
BRANCH   3  22
ATOM     22  C   UNL     1      -2.103  12.284  21.975  0.00  0.00    +0.000 C 
ATOM     23  C   UNL     1      -1.033  12.194  23.038  0.00  0.00    +0.000 C 
ATOM     24  C   UNL     1      -1.230  13.485  22.316  0.00  0.00    +0.000 C 
ENDBRANCH   3  22
BRANCH   1  26
ATOM     25  O   UNL     1       1.117   9.136  19.506  0.00  0.00    +0.000 OA
ATOM     26  C   UNL     1       0.609   9.940  18.739  0.00  0.00    +0.000 C 
BRANCH  26  27
ATOM     27  O   UNL     1       1.204  10.308  17.584  0.00  0.00    +0.000 OA
ATOM     28  H   UNL     1       0.908   9.785  16.792  0.00  0.00    +0.000 HD
ENDBRANCH  26  27
ENDBRANCH   1  26
BRANCH  20  29
ATOM     29  O   UNL     1      -6.669  12.092  23.815  0.00  0.00    +0.000 OA
ATOM     30  H   UNL     1      -6.617  12.459  24.717  0.00  0.00    +0.000 HD
ENDBRANCH  20  29
TORSDOF 4
ENDMDL
MODEL 4
REMARK VINA RESULT:      -6.6      3.220      6.294
REMARK  Name = 
REMARK  4 active torsions:
REMARK  status: ('A' for Active; 'I' for Inactive)
REMARK    1  A    between atoms: C_2  and  O_3
REMARK    2  A    between atoms: C_2  and  C_4
REMARK    3  A    between atoms: N_6  and  C_7
REMARK    4  A    between atoms: N_26  and  O_27
REMARK                            x       y       z     vdW  Elec       q    Type
REMARK                         _______ _______ _______ _____ _____    ______ ____
ROOT
ATOM      1  C   UNL     1      -0.284  13.300  21.142  0.00  0.00    +0.000 A 
ATOM      2  C   UNL     1      -1.261  13.717  21.953  0.00  0.00    +0.000 A 
ATOM      3  N   UNL     1      -2.630  13.566  21.784  0.00  0.00    +0.000 N 
ATOM      4  C   UNL     1      -3.126  12.937  20.562  0.00  0.00    +0.000 A 
ATOM      5  C   UNL     1      -4.500  12.759  20.166  0.00  0.00    +0.000 A 
ATOM      6  C   UNL     1      -4.830  12.060  18.929  0.00  0.00    +0.000 A 
ATOM      7  C   UNL     1      -3.766  11.620  18.113  0.00  0.00    +0.000 A 
ATOM      8  F   UNL     1      -4.011  10.966  16.964  0.00  0.00    +0.000 F 
ATOM      9  C   UNL     1      -2.450  11.835  18.443  0.00  0.00    +0.000 A 
ATOM     10  C   UNL     1      -2.140  12.457  19.653  0.00  0.00    +0.000 A 
ATOM     11  C   UNL     1      -0.695  12.600  19.929  0.00  0.00    +0.000 A 
ATOM     12  O   UNL     1       0.174  12.168  19.159  0.00  0.00    +0.000 OA
ATOM     13  N   UNL     1      -6.125  11.740  18.451  0.00  0.00    +0.000 N 
ATOM     14  C   UNL     1      -6.472  12.370  17.158  0.00  0.00    +0.000 C 
ATOM     15  C   UNL     1      -7.040  13.698  17.637  0.00  0.00    +0.000 C 
ATOM     16  C   UNL     1      -7.916  13.266  18.837  0.00  0.00    +0.000 C 
ATOM     17  C   UNL     1      -7.356  11.871  19.239  0.00  0.00    +0.000 C 
ATOM     18  C   UNL     1      -7.197  11.363  20.653  0.00  0.00    +0.000 C 
ATOM     19  C   UNL     1      -6.560  12.364  21.571  0.00  0.00    +0.000 C 
ATOM     20  N   UNL     1      -6.721  12.352  22.866  0.00  0.00    +0.000 NA
ATOM     21  C   UNL     1      -5.630  13.382  20.954  0.00  0.00    +0.000 C 
ENDROOT
BRANCH   3  22
ATOM     22  C   UNL     1      -3.477  14.042  22.908  0.00  0.00    +0.000 C 
ATOM     23  C   UNL     1      -3.080  14.643  24.236  0.00  0.00    +0.000 C 
ATOM     24  C   UNL     1      -3.551  15.545  23.145  0.00  0.00    +0.000 C 
ENDBRANCH   3  22
BRANCH   1  26
ATOM     25  O   UNL     1       1.476  14.543  22.143  0.00  0.00    +0.000 OA
ATOM     26  C   UNL     1       1.120  13.561  21.509  0.00  0.00    +0.000 C 
BRANCH  26  27
ATOM     27  O   UNL     1       1.990  12.612  21.101  0.00  0.00    +0.000 OA
ATOM     28  H   UNL     1       1.661  12.060  20.343  0.00  0.00    +0.000 HD
ENDBRANCH  26  27
ENDBRANCH   1  26
BRANCH  20  29
ATOM     29  O   UNL     1      -7.547  11.289  23.266  0.00  0.00    +0.000 OA
ATOM     30  H   UNL     1      -6.948  10.726  23.791  0.00  0.00    +0.000 HD
ENDBRANCH  20  29
TORSDOF 4
ENDMDL
MODEL 5
REMARK VINA RESULT:      -6.5      2.513      5.215
REMARK  Name = 
REMARK  4 active torsions:
REMARK  status: ('A' for Active; 'I' for Inactive)
REMARK    1  A    between atoms: C_2  and  O_3
REMARK    2  A    between atoms: C_2  and  C_4
REMARK    3  A    between atoms: N_6  and  C_7
REMARK    4  A    between atoms: N_26  and  O_27
REMARK                            x       y       z     vdW  Elec       q    Type
REMARK                         _______ _______ _______ _____ _____    ______ ____
ROOT
ATOM      1  C   UNL     1      -0.241  10.619  18.784  0.00  0.00    +0.000 A 
ATOM      2  C   UNL     1      -1.278  10.416  17.965  0.00  0.00    +0.000 A 
ATOM      3  N   UNL     1      -2.559  10.937  18.070  0.00  0.00    +0.000 N 
ATOM      4  C   UNL     1      -2.894  11.765  19.226  0.00  0.00    +0.000 A 
ATOM      5  C   UNL     1      -4.178  12.330  19.554  0.00  0.00    +0.000 A 
ATOM      6  C   UNL     1      -4.334  13.183  20.728  0.00  0.00    +0.000 A 
ATOM      7  C   UNL     1      -3.207  13.385  21.554  0.00  0.00    +0.000 A 
ATOM      8  F   UNL     1      -3.292  14.165  22.645  0.00  0.00    +0.000 F 
ATOM      9  C   UNL     1      -1.991  12.805  21.291  0.00  0.00    +0.000 A 
ATOM     10  C   UNL     1      -1.834  12.033  20.139  0.00  0.00    +0.000 A 
ATOM     11  C   UNL     1      -0.474  11.492  19.930  0.00  0.00    +0.000 A 
ATOM     12  O   UNL     1       0.463  11.735  20.704  0.00  0.00    +0.000 OA
ATOM     13  N   UNL     1      -5.505  13.870  21.132  0.00  0.00    +0.000 N 
ATOM     14  C   UNL     1      -6.034  13.454  22.450  0.00  0.00    +0.000 C 
ATOM     15  C   UNL     1      -6.927  12.292  22.039  0.00  0.00    +0.000 C 
ATOM     16  C   UNL     1      -7.631  12.849  20.779  0.00  0.00    +0.000 C 
ATOM     17  C   UNL     1      -6.711  14.011  20.307  0.00  0.00    +0.000 C 
ATOM     18  C   UNL     1      -6.393  14.351  18.869  0.00  0.00    +0.000 C 
ATOM     19  C   UNL     1      -6.029  13.151  18.046  0.00  0.00    +0.000 C 
ATOM     20  N   UNL     1      -6.155  13.108  16.748  0.00  0.00    +0.000 NA
ATOM     21  C   UNL     1      -5.417  11.972  18.767  0.00  0.00    +0.000 C 
ENDROOT
BRANCH   3  22
ATOM     22  C   UNL     1      -3.480  10.619  16.947  0.00  0.00    +0.000 C 
ATOM     23  C   UNL     1      -3.428  11.043  15.499  0.00  0.00    +0.000 C 
ATOM     24  C   UNL     1      -2.972   9.672  15.868  0.00  0.00    +0.000 C 
ENDBRANCH   3  22
BRANCH   1  26
ATOM     25  O   UNL     1       1.440   8.965  19.069  0.00  0.00    +0.000 OA
ATOM     26  C   UNL     1       1.049   9.968  18.491  0.00  0.00    +0.000 C 
BRANCH  26  27
ATOM     27  O   UNL     1       1.766  10.561  17.512  0.00  0.00    +0.000 OA
ATOM     28  H   UNL     1       1.373  10.458  16.604  0.00  0.00    +0.000 HD
ENDBRANCH  26  27
ENDBRANCH   1  26
BRANCH  20  29
ATOM     29  O   UNL     1      -6.658  14.318  16.246  0.00  0.00    +0.000 OA
ATOM     30  H   UNL     1      -7.476  14.048  15.790  0.00  0.00    +0.000 HD
ENDBRANCH  20  29
TORSDOF 4
ENDMDL
MODEL 6
REMARK VINA RESULT:      -6.5      2.683      4.928
REMARK  Name = 
REMARK  4 active torsions:
REMARK  status: ('A' for Active; 'I' for Inactive)
REMARK    1  A    between atoms: C_2  and  O_3
REMARK    2  A    between atoms: C_2  and  C_4
REMARK    3  A    between atoms: N_6  and  C_7
REMARK    4  A    between atoms: N_26  and  O_27
REMARK                            x       y       z     vdW  Elec       q    Type
REMARK                         _______ _______ _______ _____ _____    ______ ____
ROOT
ATOM      1  C   UNL     1       0.215  10.981  19.023  0.00  0.00    +0.000 A 
ATOM      2  C   UNL     1      -1.027  10.997  18.531  0.00  0.00    +0.000 A 
ATOM      3  N   UNL     1      -2.156  11.578  19.091  0.00  0.00    +0.000 N 
ATOM      4  C   UNL     1      -2.049  12.209  20.405  0.00  0.00    +0.000 A 
ATOM      5  C   UNL     1      -3.112  12.794  21.182  0.00  0.00    +0.000 A 
ATOM      6  C   UNL     1      -2.827  13.434  22.462  0.00  0.00    +0.000 A 
ATOM      7  C   UNL     1      -1.497  13.409  22.934  0.00  0.00    +0.000 A 
ATOM      8  F   UNL     1      -1.177  13.988  24.104  0.00  0.00    +0.000 F 
ATOM      9  C   UNL     1      -0.482  12.803  22.236  0.00  0.00    +0.000 A 
ATOM     10  C   UNL     1      -0.750  12.238  20.988  0.00  0.00    +0.000 A 
ATOM     11  C   UNL     1       0.421  11.650  20.304  0.00  0.00    +0.000 A 
ATOM     12  O   UNL     1       1.561  11.688  20.788  0.00  0.00    +0.000 OA
ATOM     13  N   UNL     1      -3.747  14.117  23.296  0.00  0.00    +0.000 N 
ATOM     14  C   UNL     1      -3.925  13.512  24.634  0.00  0.00    +0.000 C 
ATOM     15  C   UNL     1      -5.028  12.505  24.341  0.00  0.00    +0.000 C 
ATOM     16  C   UNL     1      -5.991  13.323  23.447  0.00  0.00    +0.000 C 
ATOM     17  C   UNL     1      -5.112  14.485  22.900  0.00  0.00    +0.000 C 
ATOM     18  C   UNL     1      -5.178  15.051  21.500  0.00  0.00    +0.000 C 
ATOM     19  C   UNL     1      -5.205  13.993  20.437  0.00  0.00    +0.000 C 
ATOM     20  N   UNL     1      -5.698  14.189  19.245  0.00  0.00    +0.000 NA
ATOM     21  C   UNL     1      -4.556  12.666  20.757  0.00  0.00    +0.000 C 
ENDROOT
BRANCH   3  22
ATOM     22  C   UNL     1      -3.388  11.528  18.262  0.00  0.00    +0.000 C 
ATOM     23  C   UNL     1      -3.566  11.154  16.809  0.00  0.00    +0.000 C 
ATOM     24  C   UNL     1      -3.910  10.154  17.861  0.00  0.00    +0.000 C 
ENDBRANCH   3  22
BRANCH   1  26
ATOM     25  O   UNL     1       1.264   9.113  17.996  0.00  0.00    +0.000 OA
ATOM     26  C   UNL     1       1.284  10.305  18.264  0.00  0.00    +0.000 C 
BRANCH  26  27
ATOM     27  O   UNL     1       2.288  11.116  17.870  0.00  0.00    +0.000 OA
ATOM     28  H   UNL     1       2.756  10.810  17.048  0.00  0.00    +0.000 HD
ENDBRANCH  26  27
ENDBRANCH   1  26
BRANCH  20  29
ATOM     29  O   UNL     1      -6.177  15.501  19.102  0.00  0.00    +0.000 OA
ATOM     30  H   UNL     1      -7.038  15.476  19.558  0.00  0.00    +0.000 HD
ENDBRANCH  20  29
TORSDOF 4
ENDMDL
MODEL 7
REMARK VINA RESULT:      -6.4      2.539      4.908
REMARK  Name = 
REMARK  4 active torsions:
REMARK  status: ('A' for Active; 'I' for Inactive)
REMARK    1  A    between atoms: C_2  and  O_3
REMARK    2  A    between atoms: C_2  and  C_4
REMARK    3  A    between atoms: N_6  and  C_7
REMARK    4  A    between atoms: N_26  and  O_27
REMARK                            x       y       z     vdW  Elec       q    Type
REMARK                         _______ _______ _______ _____ _____    ______ ____
ROOT
ATOM      1  C   UNL     1      -5.524  12.466  18.350  0.00  0.00    +0.000 A 
ATOM      2  C   UNL     1      -5.168  12.940  19.548  0.00  0.00    +0.000 A 
ATOM      3  N   UNL     1      -3.958  12.769  20.205  0.00  0.00    +0.000 N 
ATOM      4  C   UNL     1      -2.933  11.929  19.591  0.00  0.00    +0.000 A 
ATOM      5  C   UNL     1      -1.652  11.567  20.144  0.00  0.00    +0.000 A 
ATOM      6  C   UNL     1      -0.716  10.755  19.374  0.00  0.00    +0.000 A 
ATOM      7  C   UNL     1      -1.127  10.293  18.106  0.00  0.00    +0.000 A 
ATOM      8  F   UNL     1      -0.303   9.545  17.351  0.00  0.00    +0.000 F 
ATOM      9  C   UNL     1      -2.367  10.575  17.588  0.00  0.00    +0.000 A 
ATOM     10  C   UNL     1      -3.238  11.395  18.306  0.00  0.00    +0.000 A 
ATOM     11  C   UNL     1      -4.529  11.671  17.638  0.00  0.00    +0.000 A 
ATOM     12  O   UNL     1      -4.800  11.233  16.511  0.00  0.00    +0.000 OA
ATOM     13  N   UNL     1       0.601  10.389  19.748  0.00  0.00    +0.000 N 
ATOM     14  C   UNL     1       0.813   8.932  19.889  0.00  0.00    +0.000 C 
ATOM     15  C   UNL     1       0.406   8.728  21.341  0.00  0.00    +0.000 C 
ATOM     16  C   UNL     1       1.073   9.936  22.042  0.00  0.00    +0.000 C 
ATOM     17  C   UNL     1       1.326  10.954  20.893  0.00  0.00    +0.000 C 
ATOM     18  C   UNL     1       1.166  12.453  20.998  0.00  0.00    +0.000 C 
ATOM     19  C   UNL     1      -0.112  12.865  21.666  0.00  0.00    +0.000 C 
ATOM     20  N   UNL     1      -0.270  14.015  22.262  0.00  0.00    +0.000 NA
ATOM     21  C   UNL     1      -1.286  11.919  21.567  0.00  0.00    +0.000 C 
ENDROOT
BRANCH   3  22
ATOM     22  C   UNL     1      -3.809  13.504  21.487  0.00  0.00    +0.000 C 
ATOM     23  C   UNL     1      -4.807  14.351  22.243  0.00  0.00    +0.000 C 
ATOM     24  C   UNL     1      -4.547  12.955  22.702  0.00  0.00    +0.000 C 
ENDBRANCH   3  22
BRANCH   1  26
ATOM     25  O   UNL     1      -7.853  12.901  18.538  0.00  0.00    +0.000 OA
ATOM     26  C   UNL     1      -6.870  12.766  17.825  0.00  0.00    +0.000 C 
BRANCH  26  27
ATOM     27  O   UNL     1      -6.929  12.900  16.482  0.00  0.00    +0.000 OA
ATOM     28  H   UNL     1      -6.253  12.361  15.992  0.00  0.00    +0.000 HD
ENDBRANCH  26  27
ENDBRANCH   1  26
BRANCH  20  29
ATOM     29  O   UNL     1       0.894  14.795  22.181  0.00  0.00    +0.000 OA
ATOM     30  H   UNL     1       0.556  15.678  21.945  0.00  0.00    +0.000 HD
ENDBRANCH  20  29
TORSDOF 4
ENDMDL
MODEL 8
REMARK VINA RESULT:      -6.3      2.624      3.998
REMARK  Name = 
REMARK  4 active torsions:
REMARK  status: ('A' for Active; 'I' for Inactive)
REMARK    1  A    between atoms: C_2  and  O_3
REMARK    2  A    between atoms: C_2  and  C_4
REMARK    3  A    between atoms: N_6  and  C_7
REMARK    4  A    between atoms: N_26  and  O_27
REMARK                            x       y       z     vdW  Elec       q    Type
REMARK                         _______ _______ _______ _____ _____    ______ ____
ROOT
ATOM      1  C   UNL     1      -5.630  12.018  19.103  0.00  0.00    +0.000 A 
ATOM      2  C   UNL     1      -4.738  11.474  18.270  0.00  0.00    +0.000 A 
ATOM      3  N   UNL     1      -3.355  11.487  18.378  0.00  0.00    +0.000 N 
ATOM      4  C   UNL     1      -2.738  12.219  19.482  0.00  0.00    +0.000 A 
ATOM      5  C   UNL     1      -1.331  12.416  19.723  0.00  0.00    +0.000 A 
ATOM      6  C   UNL     1      -0.877  13.135  20.908  0.00  0.00    +0.000 A 
ATOM      7  C   UNL     1      -1.854  13.676  21.770  0.00  0.00    +0.000 A 
ATOM      8  F   UNL     1      -1.492  14.344  22.879  0.00  0.00    +0.000 F 
ATOM      9  C   UNL     1      -3.199  13.553  21.524  0.00  0.00    +0.000 A 
ATOM     10  C   UNL     1      -3.629  12.819  20.418  0.00  0.00    +0.000 A 
ATOM     11  C   UNL     1      -5.097  12.713  20.270  0.00  0.00    +0.000 A 
ATOM     12  O   UNL     1      -5.883  13.209  21.089  0.00  0.00    +0.000 OA
ATOM     13  N   UNL     1       0.464  13.337  21.319  0.00  0.00    +0.000 N 
ATOM     14  C   UNL     1       0.880  14.756  21.374  0.00  0.00    +0.000 C 
ATOM     15  C   UNL     1       1.349  14.965  19.941  0.00  0.00    +0.000 C 
ATOM     16  C   UNL     1       2.149  13.671  19.665  0.00  0.00    +0.000 C 
ATOM     17  C   UNL     1       1.625  12.661  20.727  0.00  0.00    +0.000 C 
ATOM     18  C   UNL     1       1.382  11.188  20.492  0.00  0.00    +0.000 C 
ATOM     19  C   UNL     1       0.631  10.908  19.224  0.00  0.00    +0.000 C 
ATOM     20  N   UNL     1       0.694   9.769  18.592  0.00  0.00    +0.000 NA
ATOM     21  C   UNL     1      -0.295  11.986  18.711  0.00  0.00    +0.000 C 
ENDROOT
BRANCH   3  22
ATOM     22  C   UNL     1      -2.619  10.704  17.351  0.00  0.00    +0.000 C 
ATOM     23  C   UNL     1      -3.140   9.784  16.273  0.00  0.00    +0.000 C 
ATOM     24  C   UNL     1      -2.725  11.169  15.905  0.00  0.00    +0.000 C 
ENDBRANCH   3  22
BRANCH   1  26
ATOM     25  O   UNL     1      -7.609  12.440  17.858  0.00  0.00    +0.000 OA
ATOM     26  C   UNL     1      -7.069  11.889  18.806  0.00  0.00    +0.000 C 
BRANCH  26  27
ATOM     27  O   UNL     1      -7.747  11.093  19.660  0.00  0.00    +0.000 OA
ATOM     28  H   UNL     1      -8.637  11.448  19.924  0.00  0.00    +0.000 HD
ENDBRANCH  26  27
ENDBRANCH   1  26
BRANCH  20  29
ATOM     29  O   UNL     1       1.534   8.863  19.259  0.00  0.00    +0.000 OA
ATOM     30  H   UNL     1       0.961   8.502  19.961  0.00  0.00    +0.000 HD
ENDBRANCH  20  29
TORSDOF 4
ENDMDL
MODEL 9
REMARK VINA RESULT:      -6.2      3.265      6.451
REMARK  Name = 
REMARK  4 active torsions:
REMARK  status: ('A' for Active; 'I' for Inactive)
REMARK    1  A    between atoms: C_2  and  O_3
REMARK    2  A    between atoms: C_2  and  C_4
REMARK    3  A    between atoms: N_6  and  C_7
REMARK    4  A    between atoms: N_26  and  O_27
REMARK                            x       y       z     vdW  Elec       q    Type
REMARK                         _______ _______ _______ _____ _____    ______ ____
ROOT
ATOM      1  C   UNL     1      -5.799  13.152  23.123  0.00  0.00    +0.000 A 
ATOM      2  C   UNL     1      -5.878  13.289  21.796  0.00  0.00    +0.000 A 
ATOM      3  N   UNL     1      -4.912  12.979  20.850  0.00  0.00    +0.000 N 
ATOM      4  C   UNL     1      -3.608  12.499  21.301  0.00  0.00    +0.000 A 
ATOM      5  C   UNL     1      -2.457  12.200  20.487  0.00  0.00    +0.000 A 
ATOM      6  C   UNL     1      -1.238  11.677  21.093  0.00  0.00    +0.000 A 
ATOM      7  C   UNL     1      -1.206  11.530  22.497  0.00  0.00    +0.000 A 
ATOM      8  F   UNL     1      -0.110  11.048  23.108  0.00  0.00    +0.000 F 
ATOM      9  C   UNL     1      -2.271  11.868  23.295  0.00  0.00    +0.000 A 
ATOM     10  C   UNL     1      -3.452  12.318  22.705  0.00  0.00    +0.000 A 
ATOM     11  C   UNL     1      -4.550  12.613  23.652  0.00  0.00    +0.000 A 
ATOM     12  O   UNL     1      -4.437  12.439  24.874  0.00  0.00    +0.000 OA
ATOM     13  N   UNL     1      -0.062  11.263  20.420  0.00  0.00    +0.000 N 
ATOM     14  C   UNL     1       1.147  12.044  20.765  0.00  0.00    +0.000 C 
ATOM     15  C   UNL     1       1.041  13.182  19.760  0.00  0.00    +0.000 C 
ATOM     16  C   UNL     1       0.633  12.440  18.465  0.00  0.00    +0.000 C 
ATOM     17  C   UNL     1       0.045  11.089  18.966  0.00  0.00    +0.000 C 
ATOM     18  C   UNL     1      -1.153  10.381  18.377  0.00  0.00    +0.000 C 
ATOM     19  C   UNL     1      -2.318  11.295  18.135  0.00  0.00    +0.000 C 
ATOM     20  N   UNL     1      -3.252  11.046  17.259  0.00  0.00    +0.000 NA
ATOM     21  C   UNL     1      -2.436  12.520  19.011  0.00  0.00    +0.000 C 
ENDROOT
BRANCH   3  22
ATOM     22  C   UNL     1      -5.322  13.140  19.431  0.00  0.00    +0.000 C 
ATOM     23  C   UNL     1      -6.340  12.371  18.621  0.00  0.00    +0.000 C 
ATOM     24  C   UNL     1      -6.708  13.713  19.160  0.00  0.00    +0.000 C 
ENDBRANCH   3  22
BRANCH   1  26
ATOM     25  O   UNL     1      -7.915  12.818  24.150  0.00  0.00    +0.000 OA
ATOM     26  C   UNL     1      -6.949  13.541  23.960  0.00  0.00    +0.000 C 
BRANCH  26  27
ATOM     27  O   UNL     1      -6.843  14.766  24.521  0.00  0.00    +0.000 OA
ATOM     28  H   UNL     1      -7.704  15.260  24.578  0.00  0.00    +0.000 HD
ENDBRANCH  26  27
ENDBRANCH   1  26
BRANCH  20  29
ATOM     29  O   UNL     1      -3.022   9.827  16.601  0.00  0.00    +0.000 OA
ATOM     30  H   UNL     1      -2.050   9.753  16.602  0.00  0.00    +0.000 HD
ENDBRANCH  20  29
TORSDOF 4
ENDMDL
