MODEL 1
REMARK VINA RESULT:      -6.5      0.000      0.000
REMARK  Name = 
REMARK  21 active torsions:
REMARK  status: ('A' for Active; 'I' for Inactive)
REMARK    1  A    between atoms: CE_1  and  SD_2
REMARK    2  A    between atoms: SD_2  and  CG_3
REMARK    3  A    between atoms: CG_3  and  CB_4
REMARK    4  A    between atoms: CB_4  and  CA_5
REMARK    5  A    between atoms: CA_5  and  N_6
REMARK    6  A    between atoms: CA_5  and  C_30
REMARK    7  A    between atoms: N_6  and  C_7
REMARK    8  A    between atoms: C_7  and  C_8
REMARK    9  A    between atoms: C_8  and  C_9
REMARK   10  A    between atoms: C_8  and  N_16
REMARK   11  A    between atoms: C_9  and  C_10
REMARK   12  A    between atoms: C_17  and  C_19
REMARK   13  A    between atoms: C_19  and  N_20
REMARK   14  A    between atoms: C_19  and  C_27
REMARK   15  A    between atoms: C_21  and  C_23
REMARK   16  A    between atoms: C_23  and  N_24
REMARK   17  A    between atoms: C_23  and  C_25
REMARK   18  A    between atoms: C_25  and  S_26
REMARK   19  A    between atoms: C_27  and  C_28
REMARK   20  A    between atoms: C_27  and  C_29
REMARK   21  A    between atoms: C_30  and  OXT_32
REMARK                            x       y       z     vdW  Elec       q    Type
REMARK                         _______ _______ _______ _____ _____    ______ ____
ROOT
ATOM      1  C   UNK A   0       3.179   6.550  18.458  0.00  0.00    +0.000 C 
ENDROOT
BRANCH   1   2
ATOM      2  N   UNK A   0       2.482   7.645  19.138  0.00  0.00    +0.000 N 
ATOM      3  C   UNK A   0       1.813   8.715  18.553  0.00  0.00    +0.000 C 
ATOM      4  O   UNK A   0       1.672   8.847  17.339  0.00  0.00    +0.000 OA
ATOM      5  H   UNK A   0       2.141   7.406  20.058  0.00  0.00    +0.000 HD
BRANCH   3   6
ATOM      6  C   UNK A   0       1.092   9.650  19.574  0.00  0.00    +0.000 C 
BRANCH   6   7
ATOM      7  N   UNK A   0      -0.137  10.133  18.946  0.00  0.00    +0.000 N 
ATOM      8  C   UNK A   0      -0.328  11.476  18.703  0.00  0.00    +0.000 C 
ATOM      9  O   UNK A   0       0.487  12.331  19.071  0.00  0.00    +0.000 OA
ATOM     10  H   UNK A   0      -0.774   9.459  18.529  0.00  0.00    +0.000 HD
BRANCH   8  11
ATOM     11  C   UNK A   0      -1.624  11.867  17.981  0.00  0.00    +0.000 C 
BRANCH  11  12
ATOM     12  N   UNK A   0      -1.850  10.922  16.861  0.00  0.00    +0.000 NA
ATOM     13  H   UNK A   0      -2.853  10.872  16.669  0.00  0.00    +0.000 HD
ATOM     14  H   UNK A   0      -1.583   9.979  17.145  0.00  0.00    +0.000 HD
ENDBRANCH  11  12
BRANCH  11  15
ATOM     15  C   UNK A   0      -2.787  11.799  18.990  0.00  0.00    +0.000 C 
BRANCH  15  16
ATOM     16  S   UNK A   0      -4.394  11.502  18.164  0.00  0.00    +0.000 S 
ATOM     17  H   UNK A   0      -3.907  11.494  16.908  0.00  0.00    +0.000 HD
ENDBRANCH  15  16
ENDBRANCH  11  15
ENDBRANCH   8  11
ENDBRANCH   6   7
BRANCH   6  18
ATOM     18  C   UNK A   0       0.871   9.015  20.981  0.00  0.00    +0.000 C 
ATOM     19  C   UNK A   0       0.769  10.083  22.078  0.00  0.00    +0.000 C 
ATOM     20  C   UNK A   0      -0.359   8.104  21.057  0.00  0.00    +0.000 C 
ENDBRANCH   6  18
ENDBRANCH   3   6
ENDBRANCH   1   2
BRANCH   1  21
ATOM     21  C   UNK A   0       2.217   5.384  18.118  0.00  0.00    +0.000 C 
BRANCH  21  22
ATOM     22  C   UNK A   0       2.192   4.293  19.171  0.00  0.00    +0.000 A 
ATOM     23  C   UNK A   0       1.120   4.145  20.066  0.00  0.00    +0.000 A 
ATOM     24  C   UNK A   0       1.229   3.279  21.160  0.00  0.00    +0.000 A 
ATOM     25  C   UNK A   0       2.388   2.528  21.346  0.00  0.00    +0.000 A 
ATOM     26  C   UNK A   0       3.416   2.598  20.410  0.00  0.00    +0.000 A 
ATOM     27  C   UNK A   0       3.316   3.469  19.327  0.00  0.00    +0.000 A 
ENDBRANCH  21  22
ENDBRANCH   1  21
BRANCH   1  28
ATOM     28  C   UNK A   0       4.023   7.019  17.253  0.00  0.00    +0.000 C 
BRANCH  28  29
ATOM     29  N   MET A   1       5.463   7.004  17.581  0.00  0.00    +0.000 NA
ATOM     30  H   MET A   1       5.579   7.307  18.549  0.00  0.00    +0.000 HD
BRANCH  29  31
ATOM     31  CA  MET A   1       6.040   5.651  17.420  0.00  0.00    +0.000 C 
BRANCH  31  32
ATOM     32  C   MET A   1       7.398   5.533  18.136  0.00  0.00    +0.000 C 
ATOM     33  O   MET A   1       7.972   4.478  18.371  0.00  0.00    +0.000 OA
BRANCH  32  34
ATOM     34  OXT MET A   1       7.895   6.728  18.539  0.00  0.00    +0.000 OA
ATOM     35  HXT MET A   1       7.458   7.079  19.344  0.00  0.00    +0.000 HD
ENDBRANCH  32  34
ENDBRANCH  31  32
BRANCH  31  36
ATOM     36  CB  MET A   1       6.222   5.403  15.915  0.00  0.00    +0.000 C 
BRANCH  36  37
ATOM     37  CG  MET A   1       5.871   3.991  15.442  0.00  0.00    +0.000 C 
BRANCH  37  39
ATOM     38  CE  MET A   1       7.463   4.943  13.406  0.00  0.00    +0.000 C 
ATOM     39  SD  MET A   1       6.065   3.823  13.639  0.00  0.00    +0.000 S 
ENDBRANCH  37  39
ENDBRANCH  36  37
ENDBRANCH  31  36
ENDBRANCH  29  31
ENDBRANCH  28  29
ENDBRANCH   1  28
TORSDOF 18
ENDMDL
MODEL 2
REMARK VINA RESULT:      -6.5      2.419      8.108
REMARK  Name = 
REMARK  21 active torsions:
REMARK  status: ('A' for Active; 'I' for Inactive)
REMARK    1  A    between atoms: CE_1  and  SD_2
REMARK    2  A    between atoms: SD_2  and  CG_3
REMARK    3  A    between atoms: CG_3  and  CB_4
REMARK    4  A    between atoms: CB_4  and  CA_5
REMARK    5  A    between atoms: CA_5  and  N_6
REMARK    6  A    between atoms: CA_5  and  C_30
REMARK    7  A    between atoms: N_6  and  C_7
REMARK    8  A    between atoms: C_7  and  C_8
REMARK    9  A    between atoms: C_8  and  C_9
REMARK   10  A    between atoms: C_8  and  N_16
REMARK   11  A    between atoms: C_9  and  C_10
REMARK   12  A    between atoms: C_17  and  C_19
REMARK   13  A    between atoms: C_19  and  N_20
REMARK   14  A    between atoms: C_19  and  C_27
REMARK   15  A    between atoms: C_21  and  C_23
REMARK   16  A    between atoms: C_23  and  N_24
REMARK   17  A    between atoms: C_23  and  C_25
REMARK   18  A    between atoms: C_25  and  S_26
REMARK   19  A    between atoms: C_27  and  C_28
REMARK   20  A    between atoms: C_27  and  C_29
REMARK   21  A    between atoms: C_30  and  OXT_32
REMARK                            x       y       z     vdW  Elec       q    Type
REMARK                         _______ _______ _______ _____ _____    ______ ____
ROOT
ATOM      1  C   UNK A   0       2.712   6.963  18.606  0.00  0.00    +0.000 C 
ENDROOT
BRANCH   1   2
ATOM      2  N   UNK A   0       4.108   6.641  18.296  0.00  0.00    +0.000 N 
ATOM      3  C   UNK A   0       4.584   5.565  17.556  0.00  0.00    +0.000 C 
ATOM      4  O   UNK A   0       3.854   4.747  16.999  0.00  0.00    +0.000 OA
ATOM      5  H   UNK A   0       4.723   7.442  18.291  0.00  0.00    +0.000 HD
BRANCH   3   6
ATOM      6  C   UNK A   0       6.128   5.578  17.334  0.00  0.00    +0.000 C 
BRANCH   6   7
ATOM      7  N   UNK A   0       6.372   5.745  15.901  0.00  0.00    +0.000 N 
ATOM      8  C   UNK A   0       6.477   4.652  15.068  0.00  0.00    +0.000 C 
ATOM      9  O   UNK A   0       6.449   3.494  15.500  0.00  0.00    +0.000 OA
ATOM     10  H   UNK A   0       6.288   6.673  15.492  0.00  0.00    +0.000 HD
BRANCH   8  11
ATOM     11  C   UNK A   0       6.668   4.943  13.573  0.00  0.00    +0.000 C 
BRANCH  11  12
ATOM     12  N   UNK A   0       7.981   5.600  13.378  0.00  0.00    +0.000 NA
ATOM     13  H   UNK A   0       8.576   5.394  14.184  0.00  0.00    +0.000 HD
ATOM     14  H   UNK A   0       7.864   6.614  13.383  0.00  0.00    +0.000 HD
ENDBRANCH  11  12
BRANCH  11  15
ATOM     15  C   UNK A   0       6.608   3.610  12.803  0.00  0.00    +0.000 C 
BRANCH  15  16
ATOM     16  S   UNK A   0       4.985   3.358  11.993  0.00  0.00    +0.000 S 
ATOM     17  H   UNK A   0       4.944   2.023  12.176  0.00  0.00    +0.000 HD
ENDBRANCH  15  16
ENDBRANCH  11  15
ENDBRANCH   8  11
ENDBRANCH   6   7
BRANCH   6  18
ATOM     18  C   UNK A   0       6.896   6.601  18.225  0.00  0.00    +0.000 C 
ATOM     19  C   UNK A   0       7.914   5.907  19.140  0.00  0.00    +0.000 C 
ATOM     20  C   UNK A   0       7.612   7.696  17.426  0.00  0.00    +0.000 C 
ENDBRANCH   6  18
ENDBRANCH   3   6
ENDBRANCH   1   2
BRANCH   1  21
ATOM     21  C   UNK A   0       2.324   6.508  20.035  0.00  0.00    +0.000 C 
BRANCH  21  22
ATOM     22  C   UNK A   0       2.047   5.021  20.144  0.00  0.00    +0.000 A 
ATOM     23  C   UNK A   0       1.377   4.312  19.134  0.00  0.00    +0.000 A 
ATOM     24  C   UNK A   0       0.941   3.002  19.362  0.00  0.00    +0.000 A 
ATOM     25  C   UNK A   0       1.205   2.378  20.580  0.00  0.00    +0.000 A 
ATOM     26  C   UNK A   0       1.952   3.042  21.550  0.00  0.00    +0.000 A 
ATOM     27  C   UNK A   0       2.375   4.352  21.331  0.00  0.00    +0.000 A 
ENDBRANCH  21  22
ENDBRANCH   1  21
BRANCH   1  28
ATOM     28  C   UNK A   0       2.347   8.434  18.311  0.00  0.00    +0.000 C 
BRANCH  28  29
ATOM     29  N   MET A   1       1.284   8.906  19.222  0.00  0.00    +0.000 NA
ATOM     30  H   MET A   1       1.529   8.634  20.175  0.00  0.00    +0.000 HD
BRANCH  29  31
ATOM     31  CA  MET A   1       1.128  10.375  19.158  0.00  0.00    +0.000 C 
BRANCH  31  32
ATOM     32  C   MET A   1      -0.340  10.773  18.920  0.00  0.00    +0.000 C 
ATOM     33  O   MET A   1      -1.223  10.718  19.766  0.00  0.00    +0.000 OA
BRANCH  32  34
ATOM     34  OXT MET A   1      -0.590  11.153  17.643  0.00  0.00    +0.000 OA
ATOM     35  HXT MET A   1      -0.538  10.414  17.000  0.00  0.00    +0.000 HD
ENDBRANCH  32  34
ENDBRANCH  31  32
BRANCH  31  36
ATOM     36  CB  MET A   1       1.999  10.881  17.997  0.00  0.00    +0.000 C 
BRANCH  36  37
ATOM     37  CG  MET A   1       2.541  12.302  18.163  0.00  0.00    +0.000 C 
BRANCH  37  39
ATOM     38  CE  MET A   1       2.006  14.754  19.298  0.00  0.00    +0.000 C 
ATOM     39  SD  MET A   1       2.068  13.013  19.772  0.00  0.00    +0.000 S 
ENDBRANCH  37  39
ENDBRANCH  36  37
ENDBRANCH  31  36
ENDBRANCH  29  31
ENDBRANCH  28  29
ENDBRANCH   1  28
TORSDOF 18
ENDMDL
MODEL 3
REMARK VINA RESULT:      -6.4      1.199      1.564
REMARK  Name = 
REMARK  21 active torsions:
REMARK  status: ('A' for Active; 'I' for Inactive)
REMARK    1  A    between atoms: CE_1  and  SD_2
REMARK    2  A    between atoms: SD_2  and  CG_3
REMARK    3  A    between atoms: CG_3  and  CB_4
REMARK    4  A    between atoms: CB_4  and  CA_5
REMARK    5  A    between atoms: CA_5  and  N_6
REMARK    6  A    between atoms: CA_5  and  C_30
REMARK    7  A    between atoms: N_6  and  C_7
REMARK    8  A    between atoms: C_7  and  C_8
REMARK    9  A    between atoms: C_8  and  C_9
REMARK   10  A    between atoms: C_8  and  N_16
REMARK   11  A    between atoms: C_9  and  C_10
REMARK   12  A    between atoms: C_17  and  C_19
REMARK   13  A    between atoms: C_19  and  N_20
REMARK   14  A    between atoms: C_19  and  C_27
REMARK   15  A    between atoms: C_21  and  C_23
REMARK   16  A    between atoms: C_23  and  N_24
REMARK   17  A    between atoms: C_23  and  C_25
REMARK   18  A    between atoms: C_25  and  S_26
REMARK   19  A    between atoms: C_27  and  C_28
REMARK   20  A    between atoms: C_27  and  C_29
REMARK   21  A    between atoms: C_30  and  OXT_32
REMARK                            x       y       z     vdW  Elec       q    Type
REMARK                         _______ _______ _______ _____ _____    ______ ____
ROOT
ATOM      1  C   UNK A   0       3.067   6.791  18.502  0.00  0.00    +0.000 C 
ENDROOT
BRANCH   1   2
ATOM      2  N   UNK A   0       2.425   7.792  19.358  0.00  0.00    +0.000 N 
ATOM      3  C   UNK A   0       1.610   8.847  18.963  0.00  0.00    +0.000 C 
ATOM      4  O   UNK A   0       1.268   9.042  17.798  0.00  0.00    +0.000 OA
ATOM      5  H   UNK A   0       2.252   7.476  20.302  0.00  0.00    +0.000 HD
BRANCH   3   6
ATOM      6  C   UNK A   0       1.010   9.667  20.148  0.00  0.00    +0.000 C 
BRANCH   6   7
ATOM      7  N   UNK A   0      -0.133  10.421  19.635  0.00  0.00    +0.000 N 
ATOM      8  C   UNK A   0      -0.034  11.772  19.380  0.00  0.00    +0.000 C 
ATOM      9  O   UNK A   0       0.989  12.415  19.643  0.00  0.00    +0.000 OA
ATOM     10  H   UNK A   0      -0.948   9.913  19.301  0.00  0.00    +0.000 HD
BRANCH   8  11
ATOM     11  C   UNK A   0      -1.273  12.451  18.782  0.00  0.00    +0.000 C 
BRANCH  11  12
ATOM     12  N   UNK A   0      -0.862  13.730  18.156  0.00  0.00    +0.000 NA
ATOM     13  H   UNK A   0      -0.903  13.628  17.139  0.00  0.00    +0.000 HD
ATOM     14  H   UNK A   0       0.119  13.919  18.368  0.00  0.00    +0.000 HD
ENDBRANCH  11  12
BRANCH  11  15
ATOM     15  C   UNK A   0      -1.892  11.507  17.732  0.00  0.00    +0.000 C 
BRANCH  15  16
ATOM     16  S   UNK A   0      -3.705  11.351  17.935  0.00  0.00    +0.000 S 
ATOM     17  H   UNK A   0      -3.753  10.019  17.737  0.00  0.00    +0.000 HD
ENDBRANCH  15  16
ENDBRANCH  11  15
ENDBRANCH   8  11
ENDBRANCH   6   7
BRANCH   6  18
ATOM     18  C   UNK A   0       0.685   8.819  21.415  0.00  0.00    +0.000 C 
ATOM     19  C   UNK A   0       0.648   9.682  22.684  0.00  0.00    +0.000 C 
ATOM     20  C   UNK A   0      -0.627   8.034  21.310  0.00  0.00    +0.000 C 
ENDBRANCH   6  18
ENDBRANCH   3   6
ENDBRANCH   1   2
BRANCH   1  21
ATOM     21  C   UNK A   0       2.023   5.878  17.810  0.00  0.00    +0.000 C 
BRANCH  21  22
ATOM     22  C   UNK A   0       2.068   4.439  18.285  0.00  0.00    +0.000 A 
ATOM     23  C   UNK A   0       2.577   3.404  17.484  0.00  0.00    +0.000 A 
ATOM     24  C   UNK A   0       2.398   2.068  17.859  0.00  0.00    +0.000 A 
ATOM     25  C   UNK A   0       1.747   1.757  19.051  0.00  0.00    +0.000 A 
ATOM     26  C   UNK A   0       1.324   2.779  19.896  0.00  0.00    +0.000 A 
ATOM     27  C   UNK A   0       1.489   4.110  19.519  0.00  0.00    +0.000 A 
ENDBRANCH  21  22
ENDBRANCH   1  21
BRANCH   1  28
ATOM     28  C   UNK A   0       4.097   7.396  17.524  0.00  0.00    +0.000 C 
BRANCH  28  29
ATOM     29  N   MET A   1       4.774   6.334  16.750  0.00  0.00    +0.000 NA
ATOM     30  H   MET A   1       5.186   6.753  15.915  0.00  0.00    +0.000 HD
BRANCH  29  31
ATOM     31  CA  MET A   1       5.837   5.681  17.545  0.00  0.00    +0.000 C 
BRANCH  31  32
ATOM     32  C   MET A   1       7.039   6.621  17.753  0.00  0.00    +0.000 C 
ATOM     33  O   MET A   1       7.327   7.557  17.019  0.00  0.00    +0.000 OA
BRANCH  32  34
ATOM     34  OXT MET A   1       7.801   6.284  18.822  0.00  0.00    +0.000 OA
ATOM     35  HXT MET A   1       8.247   5.416  18.722  0.00  0.00    +0.000 HD
ENDBRANCH  32  34
ENDBRANCH  31  32
BRANCH  31  36
ATOM     36  CB  MET A   1       6.284   4.428  16.776  0.00  0.00    +0.000 C 
BRANCH  36  37
ATOM     37  CG  MET A   1       6.802   4.686  15.359  0.00  0.00    +0.000 C 
BRANCH  37  39
ATOM     38  CE  MET A   1       6.819   3.925  12.711  0.00  0.00    +0.000 C 
ATOM     39  SD  MET A   1       5.670   4.011  14.102  0.00  0.00    +0.000 S 
ENDBRANCH  37  39
ENDBRANCH  36  37
ENDBRANCH  31  36
ENDBRANCH  29  31
ENDBRANCH  28  29
ENDBRANCH   1  28
TORSDOF 18
ENDMDL
MODEL 4
REMARK VINA RESULT:      -6.4      2.287      8.102
REMARK  Name = 
REMARK  21 active torsions:
REMARK  status: ('A' for Active; 'I' for Inactive)
REMARK    1  A    between atoms: CE_1  and  SD_2
REMARK    2  A    between atoms: SD_2  and  CG_3
REMARK    3  A    between atoms: CG_3  and  CB_4
REMARK    4  A    between atoms: CB_4  and  CA_5
REMARK    5  A    between atoms: CA_5  and  N_6
REMARK    6  A    between atoms: CA_5  and  C_30
REMARK    7  A    between atoms: N_6  and  C_7
REMARK    8  A    between atoms: C_7  and  C_8
REMARK    9  A    between atoms: C_8  and  C_9
REMARK   10  A    between atoms: C_8  and  N_16
REMARK   11  A    between atoms: C_9  and  C_10
REMARK   12  A    between atoms: C_17  and  C_19
REMARK   13  A    between atoms: C_19  and  N_20
REMARK   14  A    between atoms: C_19  and  C_27
REMARK   15  A    between atoms: C_21  and  C_23
REMARK   16  A    between atoms: C_23  and  N_24
REMARK   17  A    between atoms: C_23  and  C_25
REMARK   18  A    between atoms: C_25  and  S_26
REMARK   19  A    between atoms: C_27  and  C_28
REMARK   20  A    between atoms: C_27  and  C_29
REMARK   21  A    between atoms: C_30  and  OXT_32
REMARK                            x       y       z     vdW  Elec       q    Type
REMARK                         _______ _______ _______ _____ _____    ______ ____
ROOT
ATOM      1  C   UNK A   0       2.475   6.495  19.093  0.00  0.00    +0.000 C 
ENDROOT
BRANCH   1   2
ATOM      2  N   UNK A   0       3.813   6.094  18.649  0.00  0.00    +0.000 N 
ATOM      3  C   UNK A   0       4.455   6.450  17.469  0.00  0.00    +0.000 C 
ATOM      4  O   UNK A   0       3.979   7.226  16.643  0.00  0.00    +0.000 OA
ATOM      5  H   UNK A   0       4.445   5.867  19.404  0.00  0.00    +0.000 HD
BRANCH   3   6
ATOM      6  C   UNK A   0       5.921   5.925  17.358  0.00  0.00    +0.000 C 
BRANCH   6   7
ATOM      7  N   UNK A   0       6.293   5.935  15.944  0.00  0.00    +0.000 N 
ATOM      8  C   UNK A   0       6.223   4.787  15.185  0.00  0.00    +0.000 C 
ATOM      9  O   UNK A   0       5.920   3.693  15.677  0.00  0.00    +0.000 OA
ATOM     10  H   UNK A   0       6.436   6.828  15.479  0.00  0.00    +0.000 HD
BRANCH   8  11
ATOM     11  C   UNK A   0       6.574   4.924  13.697  0.00  0.00    +0.000 C 
BRANCH  11  12
ATOM     12  N   UNK A   0       7.936   5.494  13.579  0.00  0.00    +0.000 NA
ATOM     13  H   UNK A   0       8.580   4.754  13.288  0.00  0.00    +0.000 HD
ATOM     14  H   UNK A   0       8.267   5.793  14.497  0.00  0.00    +0.000 HD
ENDBRANCH  11  12
BRANCH  11  15
ATOM     15  C   UNK A   0       6.512   3.527  13.048  0.00  0.00    +0.000 C 
BRANCH  15  16
ATOM     16  S   UNK A   0       5.022   3.322  12.004  0.00  0.00    +0.000 S 
ATOM     17  H   UNK A   0       5.186   2.003  11.782  0.00  0.00    +0.000 HD
ENDBRANCH  15  16
ENDBRANCH  11  15
ENDBRANCH   8  11
ENDBRANCH   6   7
BRANCH   6  18
ATOM     18  C   UNK A   0       6.938   6.664  18.281  0.00  0.00    +0.000 C 
ATOM     19  C   UNK A   0       7.934   5.690  18.924  0.00  0.00    +0.000 C 
ATOM     20  C   UNK A   0       7.719   7.774  17.569  0.00  0.00    +0.000 C 
ENDBRANCH   6  18
ENDBRANCH   3   6
ENDBRANCH   1   2
BRANCH   1  21
ATOM     21  C   UNK A   0       1.955   5.587  20.236  0.00  0.00    +0.000 C 
BRANCH  21  22
ATOM     22  C   UNK A   0       1.960   4.111  19.886  0.00  0.00    +0.000 A 
ATOM     23  C   UNK A   0       3.121   3.327  19.979  0.00  0.00    +0.000 A 
ATOM     24  C   UNK A   0       3.145   2.036  19.440  0.00  0.00    +0.000 A 
ATOM     25  C   UNK A   0       2.003   1.505  18.842  0.00  0.00    +0.000 A 
ATOM     26  C   UNK A   0       0.822   2.241  18.831  0.00  0.00    +0.000 A 
ATOM     27  C   UNK A   0       0.798   3.532  19.356  0.00  0.00    +0.000 A 
ENDBRANCH  21  22
ENDBRANCH   1  21
BRANCH   1  28
ATOM     28  C   UNK A   0       2.365   8.002  19.410  0.00  0.00    +0.000 C 
BRANCH  28  29
ATOM     29  N   MET A   1       1.549   8.696  18.392  0.00  0.00    +0.000 NA
ATOM     30  H   MET A   1       0.849   8.044  18.037  0.00  0.00    +0.000 HD
BRANCH  29  31
ATOM     31  CA  MET A   1       0.871   9.882  18.959  0.00  0.00    +0.000 C 
BRANCH  31  32
ATOM     32  C   MET A   1       1.587  11.183  18.555  0.00  0.00    +0.000 C 
ATOM     33  O   MET A   1       1.516  12.238  19.171  0.00  0.00    +0.000 OA
BRANCH  32  34
ATOM     34  OXT MET A   1       2.283  11.072  17.396  0.00  0.00    +0.000 OA
ATOM     35  HXT MET A   1       3.255  11.105  17.523  0.00  0.00    +0.000 HD
ENDBRANCH  32  34
ENDBRANCH  31  32
BRANCH  31  36
ATOM     36  CB  MET A   1       0.884   9.734  20.488  0.00  0.00    +0.000 C 
BRANCH  36  37
ATOM     37  CG  MET A   1      -0.494   9.608  21.141  0.00  0.00    +0.000 C 
BRANCH  37  39
ATOM     38  CE  MET A   1      -1.435  11.342  23.064  0.00  0.00    +0.000 C 
ATOM     39  SD  MET A   1      -0.405   9.863  22.943  0.00  0.00    +0.000 S 
ENDBRANCH  37  39
ENDBRANCH  36  37
ENDBRANCH  31  36
ENDBRANCH  29  31
ENDBRANCH  28  29
ENDBRANCH   1  28
TORSDOF 18
ENDMDL
MODEL 5
REMARK VINA RESULT:      -6.4      2.156      8.022
REMARK  Name = 
REMARK  21 active torsions:
REMARK  status: ('A' for Active; 'I' for Inactive)
REMARK    1  A    between atoms: CE_1  and  SD_2
REMARK    2  A    between atoms: SD_2  and  CG_3
REMARK    3  A    between atoms: CG_3  and  CB_4
REMARK    4  A    between atoms: CB_4  and  CA_5
REMARK    5  A    between atoms: CA_5  and  N_6
REMARK    6  A    between atoms: CA_5  and  C_30
REMARK    7  A    between atoms: N_6  and  C_7
REMARK    8  A    between atoms: C_7  and  C_8
REMARK    9  A    between atoms: C_8  and  C_9
REMARK   10  A    between atoms: C_8  and  N_16
REMARK   11  A    between atoms: C_9  and  C_10
REMARK   12  A    between atoms: C_17  and  C_19
REMARK   13  A    between atoms: C_19  and  N_20
REMARK   14  A    between atoms: C_19  and  C_27
REMARK   15  A    between atoms: C_21  and  C_23
REMARK   16  A    between atoms: C_23  and  N_24
REMARK   17  A    between atoms: C_23  and  C_25
REMARK   18  A    between atoms: C_25  and  S_26
REMARK   19  A    between atoms: C_27  and  C_28
REMARK   20  A    between atoms: C_27  and  C_29
REMARK   21  A    between atoms: C_30  and  OXT_32
REMARK                            x       y       z     vdW  Elec       q    Type
REMARK                         _______ _______ _______ _____ _____    ______ ____
ROOT
ATOM      1  C   UNK A   0       2.563   6.805  18.391  0.00  0.00    +0.000 C 
ENDROOT
BRANCH   1   2
ATOM      2  N   UNK A   0       3.971   6.522  18.103  0.00  0.00    +0.000 N 
ATOM      3  C   UNK A   0       4.500   5.387  17.497  0.00  0.00    +0.000 C 
ATOM      4  O   UNK A   0       3.812   4.468  17.059  0.00  0.00    +0.000 OA
ATOM      5  H   UNK A   0       4.541   7.348  17.987  0.00  0.00    +0.000 HD
BRANCH   3   6
ATOM      6  C   UNK A   0       6.039   5.456  17.250  0.00  0.00    +0.000 C 
BRANCH   6   7
ATOM      7  N   UNK A   0       6.254   5.648  15.816  0.00  0.00    +0.000 N 
ATOM      8  C   UNK A   0       6.404   4.570  14.971  0.00  0.00    +0.000 C 
ATOM      9  O   UNK A   0       6.441   3.408  15.392  0.00  0.00    +0.000 OA
ATOM     10  H   UNK A   0       6.116   6.574  15.418  0.00  0.00    +0.000 HD
BRANCH   8  11
ATOM     11  C   UNK A   0       6.558   4.884  13.477  0.00  0.00    +0.000 C 
BRANCH  11  12
ATOM     12  N   UNK A   0       7.860   5.559  13.263  0.00  0.00    +0.000 NA
ATOM     13  H   UNK A   0       8.292   5.739  14.172  0.00  0.00    +0.000 HD
ATOM     14  H   UNK A   0       7.708   6.480  12.851  0.00  0.00    +0.000 HD
ENDBRANCH  11  12
BRANCH  11  15
ATOM     15  C   UNK A   0       6.497   3.561  12.689  0.00  0.00    +0.000 C 
BRANCH  15  16
ATOM     16  S   UNK A   0       4.892   3.348  11.832  0.00  0.00    +0.000 S 
ATOM     17  H   UNK A   0       4.368   4.526  12.223  0.00  0.00    +0.000 HD
ENDBRANCH  15  16
ENDBRANCH  11  15
ENDBRANCH   8  11
ENDBRANCH   6   7
BRANCH   6  18
ATOM     18  C   UNK A   0       6.787   6.493  18.142  0.00  0.00    +0.000 C 
ATOM     19  C   UNK A   0       7.764   5.812  19.111  0.00  0.00    +0.000 C 
ATOM     20  C   UNK A   0       7.542   7.559  17.342  0.00  0.00    +0.000 C 
ENDBRANCH   6  18
ENDBRANCH   3   6
ENDBRANCH   1   2
BRANCH   1  21
ATOM     21  C   UNK A   0       2.216   6.529  19.876  0.00  0.00    +0.000 C 
BRANCH  21  22
ATOM     22  C   UNK A   0       1.864   5.081  20.157  0.00  0.00    +0.000 A 
ATOM     23  C   UNK A   0       2.246   4.438  21.345  0.00  0.00    +0.000 A 
ATOM     24  C   UNK A   0       2.103   3.052  21.474  0.00  0.00    +0.000 A 
ATOM     25  C   UNK A   0       1.544   2.306  20.438  0.00  0.00    +0.000 A 
ATOM     26  C   UNK A   0       1.076   2.949  19.296  0.00  0.00    +0.000 A 
ATOM     27  C   UNK A   0       1.229   4.328  19.159  0.00  0.00    +0.000 A 
ENDBRANCH  21  22
ENDBRANCH   1  21
BRANCH   1  28
ATOM     28  C   UNK A   0       2.110   8.199  17.905  0.00  0.00    +0.000 C 
BRANCH  28  29
ATOM     29  N   MET A   1       2.252   9.203  18.980  0.00  0.00    +0.000 NA
ATOM     30  H   MET A   1       3.092   9.755  18.800  0.00  0.00    +0.000 HD
BRANCH  29  31
ATOM     31  CA  MET A   1       1.079  10.101  19.041  0.00  0.00    +0.000 C 
BRANCH  31  32
ATOM     32  C   MET A   1       0.473  10.136  20.456  0.00  0.00    +0.000 C 
ATOM     33  O   MET A   1      -0.523  10.774  20.772  0.00  0.00    +0.000 OA
BRANCH  32  34
ATOM     34  OXT MET A   1       1.186   9.420  21.360  0.00  0.00    +0.000 OA
ATOM     35  HXT MET A   1       1.468   8.542  21.025  0.00  0.00    +0.000 HD
ENDBRANCH  32  34
ENDBRANCH  31  32
BRANCH  31  36
ATOM     36  CB  MET A   1       0.038   9.568  18.043  0.00  0.00    +0.000 C 
BRANCH  36  37
ATOM     37  CG  MET A   1      -1.011  10.587  17.593  0.00  0.00    +0.000 C 
BRANCH  37  39
ATOM     38  CE  MET A   1      -3.763  10.671  17.701  0.00  0.00    +0.000 C 
ATOM     39  SD  MET A   1      -2.455   9.769  16.842  0.00  0.00    +0.000 S 
ENDBRANCH  37  39
ENDBRANCH  36  37
ENDBRANCH  31  36
ENDBRANCH  29  31
ENDBRANCH  28  29
ENDBRANCH   1  28
TORSDOF 18
ENDMDL
MODEL 6
REMARK VINA RESULT:      -6.4      2.922      3.533
REMARK  Name = 
REMARK  21 active torsions:
REMARK  status: ('A' for Active; 'I' for Inactive)
REMARK    1  A    between atoms: CE_1  and  SD_2
REMARK    2  A    between atoms: SD_2  and  CG_3
REMARK    3  A    between atoms: CG_3  and  CB_4
REMARK    4  A    between atoms: CB_4  and  CA_5
REMARK    5  A    between atoms: CA_5  and  N_6
REMARK    6  A    between atoms: CA_5  and  C_30
REMARK    7  A    between atoms: N_6  and  C_7
REMARK    8  A    between atoms: C_7  and  C_8
REMARK    9  A    between atoms: C_8  and  C_9
REMARK   10  A    between atoms: C_8  and  N_16
REMARK   11  A    between atoms: C_9  and  C_10
REMARK   12  A    between atoms: C_17  and  C_19
REMARK   13  A    between atoms: C_19  and  N_20
REMARK   14  A    between atoms: C_19  and  C_27
REMARK   15  A    between atoms: C_21  and  C_23
REMARK   16  A    between atoms: C_23  and  N_24
REMARK   17  A    between atoms: C_23  and  C_25
REMARK   18  A    between atoms: C_25  and  S_26
REMARK   19  A    between atoms: C_27  and  C_28
REMARK   20  A    between atoms: C_27  and  C_29
REMARK   21  A    between atoms: C_30  and  OXT_32
REMARK                            x       y       z     vdW  Elec       q    Type
REMARK                         _______ _______ _______ _____ _____    ______ ____
ROOT
ATOM      1  C   UNK A   0       2.948   6.915  18.639  0.00  0.00    +0.000 C 
ENDROOT
BRANCH   1   2
ATOM      2  N   UNK A   0       2.245   8.116  19.099  0.00  0.00    +0.000 N 
ATOM      3  C   UNK A   0       1.855   9.212  18.338  0.00  0.00    +0.000 C 
ATOM      4  O   UNK A   0       2.011   9.285  17.121  0.00  0.00    +0.000 OA
ATOM      5  H   UNK A   0       1.678   7.969  19.923  0.00  0.00    +0.000 HD
BRANCH   3   6
ATOM      6  C   UNK A   0       1.032  10.276  19.130  0.00  0.00    +0.000 C 
BRANCH   6   7
ATOM      7  N   UNK A   0       1.448  11.599  18.664  0.00  0.00    +0.000 N 
ATOM      8  C   UNK A   0       1.874  12.562  19.553  0.00  0.00    +0.000 C 
ATOM      9  O   UNK A   0       1.851  12.380  20.776  0.00  0.00    +0.000 OA
ATOM     10  H   UNK A   0       1.589  11.748  17.668  0.00  0.00    +0.000 HD
BRANCH   8  11
ATOM     11  C   UNK A   0       2.349  13.891  18.951  0.00  0.00    +0.000 C 
BRANCH  11  12
ATOM     12  N   UNK A   0       2.933  13.628  17.615  0.00  0.00    +0.000 NA
ATOM     13  H   UNK A   0       3.938  13.813  17.651  0.00  0.00    +0.000 HD
ATOM     14  H   UNK A   0       2.561  14.296  16.938  0.00  0.00    +0.000 HD
ENDBRANCH  11  12
BRANCH  11  15
ATOM     15  C   UNK A   0       1.139  14.838  18.838  0.00  0.00    +0.000 C 
BRANCH  15  16
ATOM     16  S   UNK A   0       1.526  16.520  19.450  0.00  0.00    +0.000 S 
ATOM     17  H   UNK A   0       2.835  16.292  19.669  0.00  0.00    +0.000 HD
ENDBRANCH  15  16
ENDBRANCH  11  15
ENDBRANCH   8  11
ENDBRANCH   6   7
BRANCH   6  18
ATOM     18  C   UNK A   0      -0.510  10.053  19.092  0.00  0.00    +0.000 C 
ATOM     19  C   UNK A   0      -1.253  11.059  19.982  0.00  0.00    +0.000 C 
ATOM     20  C   UNK A   0      -1.104  10.106  17.680  0.00  0.00    +0.000 C 
ENDBRANCH   6  18
ENDBRANCH   3   6
ENDBRANCH   1   2
BRANCH   1  21
ATOM     21  C   UNK A   0       1.977   5.895  17.994  0.00  0.00    +0.000 C 
BRANCH  21  22
ATOM     22  C   UNK A   0       1.816   4.619  18.797  0.00  0.00    +0.000 A 
ATOM     23  C   UNK A   0       1.552   3.383  18.188  0.00  0.00    +0.000 A 
ATOM     24  C   UNK A   0       1.189   2.276  18.964  0.00  0.00    +0.000 A 
ATOM     25  C   UNK A   0       1.127   2.385  20.352  0.00  0.00    +0.000 A 
ATOM     26  C   UNK A   0       1.480   3.582  20.969  0.00  0.00    +0.000 A 
ATOM     27  C   UNK A   0       1.829   4.689  20.197  0.00  0.00    +0.000 A 
ENDBRANCH  21  22
ENDBRANCH   1  21
BRANCH   1  28
ATOM     28  C   UNK A   0       4.179   7.229  17.762  0.00  0.00    +0.000 C 
BRANCH  28  29
ATOM     29  N   MET A   1       5.211   6.182  17.909  0.00  0.00    +0.000 NA
ATOM     30  H   MET A   1       4.794   5.280  17.677  0.00  0.00    +0.000 HD
BRANCH  29  31
ATOM     31  CA  MET A   1       6.365   6.431  17.019  0.00  0.00    +0.000 C 
BRANCH  31  32
ATOM     32  C   MET A   1       6.892   5.120  16.406  0.00  0.00    +0.000 C 
ATOM     33  O   MET A   1       7.676   5.055  15.467  0.00  0.00    +0.000 OA
BRANCH  32  34
ATOM     34  OXT MET A   1       6.361   4.012  16.978  0.00  0.00    +0.000 OA
ATOM     35  HXT MET A   1       6.317   4.063  17.956  0.00  0.00    +0.000 HD
ENDBRANCH  32  34
ENDBRANCH  31  32
BRANCH  31  36
ATOM     36  CB  MET A   1       7.467   7.089  17.864  0.00  0.00    +0.000 C 
BRANCH  36  37
ATOM     37  CG  MET A   1       7.738   8.561  17.546  0.00  0.00    +0.000 C 
BRANCH  37  39
ATOM     38  CE  MET A   1       8.919  10.988  18.096  0.00  0.00    +0.000 C 
ATOM     39  SD  MET A   1       8.842   9.318  18.781  0.00  0.00    +0.000 S 
ENDBRANCH  37  39
ENDBRANCH  36  37
ENDBRANCH  31  36
ENDBRANCH  29  31
ENDBRANCH  28  29
ENDBRANCH   1  28
TORSDOF 18
ENDMDL
MODEL 7
REMARK VINA RESULT:      -6.4      1.989      2.340
REMARK  Name = 
REMARK  21 active torsions:
REMARK  status: ('A' for Active; 'I' for Inactive)
REMARK    1  A    between atoms: CE_1  and  SD_2
REMARK    2  A    between atoms: SD_2  and  CG_3
REMARK    3  A    between atoms: CG_3  and  CB_4
REMARK    4  A    between atoms: CB_4  and  CA_5
REMARK    5  A    between atoms: CA_5  and  N_6
REMARK    6  A    between atoms: CA_5  and  C_30
REMARK    7  A    between atoms: N_6  and  C_7
REMARK    8  A    between atoms: C_7  and  C_8
REMARK    9  A    between atoms: C_8  and  C_9
REMARK   10  A    between atoms: C_8  and  N_16
REMARK   11  A    between atoms: C_9  and  C_10
REMARK   12  A    between atoms: C_17  and  C_19
REMARK   13  A    between atoms: C_19  and  N_20
REMARK   14  A    between atoms: C_19  and  C_27
REMARK   15  A    between atoms: C_21  and  C_23
REMARK   16  A    between atoms: C_23  and  N_24
REMARK   17  A    between atoms: C_23  and  C_25
REMARK   18  A    between atoms: C_25  and  S_26
REMARK   19  A    between atoms: C_27  and  C_28
REMARK   20  A    between atoms: C_27  and  C_29
REMARK   21  A    between atoms: C_30  and  OXT_32
REMARK                            x       y       z     vdW  Elec       q    Type
REMARK                         _______ _______ _______ _____ _____    ______ ____
ROOT
ATOM      1  C   UNK A   0       2.914   6.981  18.519  0.00  0.00    +0.000 C 
ENDROOT
BRANCH   1   2
ATOM      2  N   UNK A   0       2.041   8.057  18.995  0.00  0.00    +0.000 N 
ATOM      3  C   UNK A   0       1.733   9.248  18.346  0.00  0.00    +0.000 C 
ATOM      4  O   UNK A   0       2.131   9.529  17.217  0.00  0.00    +0.000 OA
ATOM      5  H   UNK A   0       1.329   7.752  19.644  0.00  0.00    +0.000 HD
BRANCH   3   6
ATOM      6  C   UNK A   0       0.686  10.130  19.095  0.00  0.00    +0.000 C 
BRANCH   6   7
ATOM      7  N   UNK A   0      -0.622   9.880  18.491  0.00  0.00    +0.000 N 
ATOM      8  C   UNK A   0      -1.420  10.923  18.072  0.00  0.00    +0.000 C 
ATOM      9  O   UNK A   0      -1.104  12.104  18.257  0.00  0.00    +0.000 OA
ATOM     10  H   UNK A   0      -0.865   8.931  18.219  0.00  0.00    +0.000 HD
BRANCH   8  11
ATOM     11  C   UNK A   0      -2.743  10.546  17.393  0.00  0.00    +0.000 C 
BRANCH  11  12
ATOM     12  N   UNK A   0      -3.865  11.013  18.240  0.00  0.00    +0.000 NA
ATOM     13  H   UNK A   0      -4.592  10.294  18.251  0.00  0.00    +0.000 HD
ATOM     14  H   UNK A   0      -4.303  11.831  17.814  0.00  0.00    +0.000 HD
ENDBRANCH  11  12
BRANCH  11  15
ATOM     15  C   UNK A   0      -2.792  11.220  16.007  0.00  0.00    +0.000 C 
BRANCH  15  16
ATOM     16  S   UNK A   0      -3.268  10.042  14.689  0.00  0.00    +0.000 S 
ATOM     17  H   UNK A   0      -2.546  10.626  13.712  0.00  0.00    +0.000 HD
ENDBRANCH  15  16
ENDBRANCH  11  15
ENDBRANCH   8  11
ENDBRANCH   6   7
BRANCH   6  18
ATOM     18  C   UNK A   0       0.703   9.968  20.646  0.00  0.00    +0.000 C 
ATOM     19  C   UNK A   0       0.533  11.316  21.360  0.00  0.00    +0.000 C 
ATOM     20  C   UNK A   0      -0.352   8.990  21.173  0.00  0.00    +0.000 C 
ENDBRANCH   6  18
ENDBRANCH   3   6
ENDBRANCH   1   2
BRANCH   1  21
ATOM     21  C   UNK A   0       2.100   5.740  18.073  0.00  0.00    +0.000 C 
BRANCH  21  22
ATOM     22  C   UNK A   0       1.717   4.823  19.218  0.00  0.00    +0.000 A 
ATOM     23  C   UNK A   0       2.167   5.039  20.529  0.00  0.00    +0.000 A 
ATOM     24  C   UNK A   0       1.983   4.058  21.510  0.00  0.00    +0.000 A 
ATOM     25  C   UNK A   0       1.314   2.875  21.199  0.00  0.00    +0.000 A 
ATOM     26  C   UNK A   0       0.781   2.694  19.926  0.00  0.00    +0.000 A 
ATOM     27  C   UNK A   0       0.975   3.665  18.944  0.00  0.00    +0.000 A 
ENDBRANCH  21  22
ENDBRANCH   1  21
BRANCH   1  28
ATOM     28  C   UNK A   0       3.942   7.450  17.467  0.00  0.00    +0.000 C 
BRANCH  28  29
ATOM     29  N   MET A   1       4.764   6.318  16.993  0.00  0.00    +0.000 NA
ATOM     30  H   MET A   1       5.302   6.625  16.182  0.00  0.00    +0.000 HD
BRANCH  29  31
ATOM     31  CA  MET A   1       5.690   5.845  18.044  0.00  0.00    +0.000 C 
BRANCH  31  32
ATOM     32  C   MET A   1       7.144   6.243  17.730  0.00  0.00    +0.000 C 
ATOM     33  O   MET A   1       7.997   6.490  18.573  0.00  0.00    +0.000 OA
BRANCH  32  34
ATOM     34  OXT MET A   1       7.394   6.349  16.402  0.00  0.00    +0.000 OA
ATOM     35  HXT MET A   1       6.581   6.403  15.857  0.00  0.00    +0.000 HD
ENDBRANCH  32  34
ENDBRANCH  31  32
BRANCH  31  36
ATOM     36  CB  MET A   1       5.573   4.314  18.108  0.00  0.00    +0.000 C 
BRANCH  36  37
ATOM     37  CG  MET A   1       5.150   3.750  19.466  0.00  0.00    +0.000 C 
BRANCH  37  39
ATOM     38  CE  MET A   1       3.837   2.208  17.599  0.00  0.00    +0.000 C 
ATOM     39  SD  MET A   1       4.426   2.087  19.302  0.00  0.00    +0.000 S 
ENDBRANCH  37  39
ENDBRANCH  36  37
ENDBRANCH  31  36
ENDBRANCH  29  31
ENDBRANCH  28  29
ENDBRANCH   1  28
TORSDOF 18
ENDMDL
MODEL 8
REMARK VINA RESULT:      -6.4      1.319      1.502
REMARK  Name = 
REMARK  21 active torsions:
REMARK  status: ('A' for Active; 'I' for Inactive)
REMARK    1  A    between atoms: CE_1  and  SD_2
REMARK    2  A    between atoms: SD_2  and  CG_3
REMARK    3  A    between atoms: CG_3  and  CB_4
REMARK    4  A    between atoms: CB_4  and  CA_5
REMARK    5  A    between atoms: CA_5  and  N_6
REMARK    6  A    between atoms: CA_5  and  C_30
REMARK    7  A    between atoms: N_6  and  C_7
REMARK    8  A    between atoms: C_7  and  C_8
REMARK    9  A    between atoms: C_8  and  C_9
REMARK   10  A    between atoms: C_8  and  N_16
REMARK   11  A    between atoms: C_9  and  C_10
REMARK   12  A    between atoms: C_17  and  C_19
REMARK   13  A    between atoms: C_19  and  N_20
REMARK   14  A    between atoms: C_19  and  C_27
REMARK   15  A    between atoms: C_21  and  C_23
REMARK   16  A    between atoms: C_23  and  N_24
REMARK   17  A    between atoms: C_23  and  C_25
REMARK   18  A    between atoms: C_25  and  S_26
REMARK   19  A    between atoms: C_27  and  C_28
REMARK   20  A    between atoms: C_27  and  C_29
REMARK   21  A    between atoms: C_30  and  OXT_32
REMARK                            x       y       z     vdW  Elec       q    Type
REMARK                         _______ _______ _______ _____ _____    ______ ____
ROOT
ATOM      1  C   UNK A   0       2.644   6.857  18.919  0.00  0.00    +0.000 C 
ENDROOT
BRANCH   1   2
ATOM      2  N   UNK A   0       1.969   8.124  19.210  0.00  0.00    +0.000 N 
ATOM      3  C   UNK A   0       1.711   9.168  18.328  0.00  0.00    +0.000 C 
ATOM      4  O   UNK A   0       1.980   9.128  17.130  0.00  0.00    +0.000 OA
ATOM      5  H   UNK A   0       1.323   8.077  19.985  0.00  0.00    +0.000 HD
BRANCH   3   6
ATOM      6  C   UNK A   0       0.880  10.335  18.949  0.00  0.00    +0.000 C 
BRANCH   6   7
ATOM      7  N   UNK A   0      -0.432  10.342  18.301  0.00  0.00    +0.000 N 
ATOM      8  C   UNK A   0      -1.035  11.526  17.936  0.00  0.00    +0.000 C 
ATOM      9  O   UNK A   0      -0.537  12.625  18.206  0.00  0.00    +0.000 OA
ATOM     10  H   UNK A   0      -0.818   9.464  17.963  0.00  0.00    +0.000 HD
BRANCH   8  11
ATOM     11  C   UNK A   0      -2.380  11.415  17.206  0.00  0.00    +0.000 C 
BRANCH  11  12
ATOM     12  N   UNK A   0      -2.123  11.144  15.772  0.00  0.00    +0.000 NA
ATOM     13  H   UNK A   0      -2.722  10.373  15.469  0.00  0.00    +0.000 HD
ATOM     14  H   UNK A   0      -1.168  10.807  15.649  0.00  0.00    +0.000 HD
ENDBRANCH  11  12
BRANCH  11  15
ATOM     15  C   UNK A   0      -3.188  10.265  17.838  0.00  0.00    +0.000 C 
BRANCH  15  16
ATOM     16  S   UNK A   0      -4.936  10.731  18.121  0.00  0.00    +0.000 S 
ATOM     17  H   UNK A   0      -5.383   9.477  18.330  0.00  0.00    +0.000 HD
ENDBRANCH  15  16
ENDBRANCH  11  15
ENDBRANCH   8  11
ENDBRANCH   6   7
BRANCH   6  18
ATOM     18  C   UNK A   0       0.813  10.317  20.506  0.00  0.00    +0.000 C 
ATOM     19  C   UNK A   0       0.970  11.724  21.099  0.00  0.00    +0.000 C 
ATOM     20  C   UNK A   0      -0.470   9.686  21.058  0.00  0.00    +0.000 C 
ENDBRANCH   6  18
ENDBRANCH   3   6
ENDBRANCH   1   2
BRANCH   1  21
ATOM     21  C   UNK A   0       1.835   5.996  17.916  0.00  0.00    +0.000 C 
BRANCH  21  22
ATOM     22  C   UNK A   0       1.758   4.531  18.299  0.00  0.00    +0.000 A 
ATOM     23  C   UNK A   0       1.215   4.107  19.522  0.00  0.00    +0.000 A 
ATOM     24  C   UNK A   0       1.363   2.780  19.938  0.00  0.00    +0.000 A 
ATOM     25  C   UNK A   0       2.015   1.858  19.121  0.00  0.00    +0.000 A 
ATOM     26  C   UNK A   0       2.472   2.249  17.865  0.00  0.00    +0.000 A 
ATOM     27  C   UNK A   0       2.338   3.574  17.454  0.00  0.00    +0.000 A 
ENDBRANCH  21  22
ENDBRANCH   1  21
BRANCH   1  28
ATOM     28  C   UNK A   0       4.125   7.032  18.520  0.00  0.00    +0.000 C 
BRANCH  28  29
ATOM     29  N   MET A   1       4.306   6.836  17.067  0.00  0.00    +0.000 NA
ATOM     30  H   MET A   1       4.549   7.734  16.646  0.00  0.00    +0.000 HD
BRANCH  29  31
ATOM     31  CA  MET A   1       5.377   5.857  16.783  0.00  0.00    +0.000 C 
BRANCH  31  32
ATOM     32  C   MET A   1       6.760   6.410  17.173  0.00  0.00    +0.000 C 
ATOM     33  O   MET A   1       7.229   7.465  16.767  0.00  0.00    +0.000 OA
BRANCH  32  34
ATOM     34  OXT MET A   1       7.456   5.581  17.990  0.00  0.00    +0.000 OA
ATOM     35  HXT MET A   1       7.482   4.654  17.671  0.00  0.00    +0.000 HD
ENDBRANCH  32  34
ENDBRANCH  31  32
BRANCH  31  36
ATOM     36  CB  MET A   1       5.343   5.559  15.276  0.00  0.00    +0.000 C 
BRANCH  36  37
ATOM     37  CG  MET A   1       5.899   4.193  14.870  0.00  0.00    +0.000 C 
BRANCH  37  39
ATOM     38  CE  MET A   1       5.806   3.246  12.285  0.00  0.00    +0.000 C 
ATOM     39  SD  MET A   1       6.851   4.293  13.320  0.00  0.00    +0.000 S 
ENDBRANCH  37  39
ENDBRANCH  36  37
ENDBRANCH  31  36
ENDBRANCH  29  31
ENDBRANCH  28  29
ENDBRANCH   1  28
TORSDOF 18
ENDMDL
MODEL 9
REMARK VINA RESULT:      -6.4      1.982      2.526
REMARK  Name = 
REMARK  21 active torsions:
REMARK  status: ('A' for Active; 'I' for Inactive)
REMARK    1  A    between atoms: CE_1  and  SD_2
REMARK    2  A    between atoms: SD_2  and  CG_3
REMARK    3  A    between atoms: CG_3  and  CB_4
REMARK    4  A    between atoms: CB_4  and  CA_5
REMARK    5  A    between atoms: CA_5  and  N_6
REMARK    6  A    between atoms: CA_5  and  C_30
REMARK    7  A    between atoms: N_6  and  C_7
REMARK    8  A    between atoms: C_7  and  C_8
REMARK    9  A    between atoms: C_8  and  C_9
REMARK   10  A    between atoms: C_8  and  N_16
REMARK   11  A    between atoms: C_9  and  C_10
REMARK   12  A    between atoms: C_17  and  C_19
REMARK   13  A    between atoms: C_19  and  N_20
REMARK   14  A    between atoms: C_19  and  C_27
REMARK   15  A    between atoms: C_21  and  C_23
REMARK   16  A    between atoms: C_23  and  N_24
REMARK   17  A    between atoms: C_23  and  C_25
REMARK   18  A    between atoms: C_25  and  S_26
REMARK   19  A    between atoms: C_27  and  C_28
REMARK   20  A    between atoms: C_27  and  C_29
REMARK   21  A    between atoms: C_30  and  OXT_32
REMARK                            x       y       z     vdW  Elec       q    Type
REMARK                         _______ _______ _______ _____ _____    ______ ____
ROOT
ATOM      1  C   UNK A   0       2.687   6.527  19.421  0.00  0.00    +0.000 C 
ENDROOT
BRANCH   1   2
ATOM      2  N   UNK A   0       2.142   7.835  19.795  0.00  0.00    +0.000 N 
ATOM      3  C   UNK A   0       1.627   8.811  18.950  0.00  0.00    +0.000 C 
ATOM      4  O   UNK A   0       1.509   8.664  17.735  0.00  0.00    +0.000 OA
ATOM      5  H   UNK A   0       1.769   7.871  20.734  0.00  0.00    +0.000 HD
BRANCH   3   6
ATOM      6  C   UNK A   0       1.036  10.050  19.693  0.00  0.00    +0.000 C 
BRANCH   6   7
ATOM      7  N   UNK A   0       1.491  11.250  18.991  0.00  0.00    +0.000 N 
ATOM      8  C   UNK A   0       1.937  12.352  19.689  0.00  0.00    +0.000 C 
ATOM      9  O   UNK A   0       1.901  12.404  20.924  0.00  0.00    +0.000 OA
ATOM     10  H   UNK A   0       1.643  11.205  17.987  0.00  0.00    +0.000 HD
BRANCH   8  11
ATOM     11  C   UNK A   0       2.453  13.531  18.853  0.00  0.00    +0.000 C 
BRANCH  11  12
ATOM     12  N   UNK A   0       2.307  13.199  17.417  0.00  0.00    +0.000 NA
ATOM     13  H   UNK A   0       3.237  13.101  17.004  0.00  0.00    +0.000 HD
ATOM     14  H   UNK A   0       1.874  13.980  16.923  0.00  0.00    +0.000 HD
ENDBRANCH  11  12
BRANCH  11  15
ATOM     15  C   UNK A   0       1.624  14.782  19.207  0.00  0.00    +0.000 C 
BRANCH  15  16
ATOM     16  S   UNK A   0      -0.157  14.547  18.853  0.00  0.00    +0.000 S 
ATOM     17  H   UNK A   0      -0.584  14.811  20.103  0.00  0.00    +0.000 HD
ENDBRANCH  15  16
ENDBRANCH  11  15
ENDBRANCH   8  11
ENDBRANCH   6   7
BRANCH   6  18
ATOM     18  C   UNK A   0      -0.508   9.994  19.906  0.00  0.00    +0.000 C 
ATOM     19  C   UNK A   0      -0.918  10.600  21.255  0.00  0.00    +0.000 C 
ATOM     20  C   UNK A   0      -1.307  10.676  18.791  0.00  0.00    +0.000 C 
ENDBRANCH   6  18
ENDBRANCH   3   6
ENDBRANCH   1   2
BRANCH   1  21
ATOM     21  C   UNK A   0       1.726   5.375  19.810  0.00  0.00    +0.000 C 
BRANCH  21  22
ATOM     22  C   UNK A   0       2.240   4.002  19.425  0.00  0.00    +0.000 A 
ATOM     23  C   UNK A   0       3.279   3.370  20.126  0.00  0.00    +0.000 A 
ATOM     24  C   UNK A   0       3.876   2.214  19.612  0.00  0.00    +0.000 A 
ATOM     25  C   UNK A   0       3.415   1.658  18.420  0.00  0.00    +0.000 A 
ATOM     26  C   UNK A   0       2.323   2.225  17.769  0.00  0.00    +0.000 A 
ATOM     27  C   UNK A   0       1.735   3.384  18.272  0.00  0.00    +0.000 A 
ENDBRANCH  21  22
ENDBRANCH   1  21
BRANCH   1  28
ATOM     28  C   UNK A   0       3.159   6.462  17.953  0.00  0.00    +0.000 C 
BRANCH  28  29
ATOM     29  N   MET A   1       4.627   6.611  17.865  0.00  0.00    +0.000 NA
ATOM     30  H   MET A   1       4.946   7.162  18.663  0.00  0.00    +0.000 HD
BRANCH  29  31
ATOM     31  CA  MET A   1       5.305   5.297  17.876  0.00  0.00    +0.000 C 
BRANCH  31  32
ATOM     32  C   MET A   1       6.826   5.453  18.063  0.00  0.00    +0.000 C 
ATOM     33  O   MET A   1       7.417   6.524  18.099  0.00  0.00    +0.000 OA
BRANCH  32  34
ATOM     34  OXT MET A   1       7.480   4.268  18.136  0.00  0.00    +0.000 OA
ATOM     35  HXT MET A   1       7.273   3.663  17.392  0.00  0.00    +0.000 HD
ENDBRANCH  32  34
ENDBRANCH  31  32
BRANCH  31  36
ATOM     36  CB  MET A   1       5.015   4.615  16.530  0.00  0.00    +0.000 C 
BRANCH  36  37
ATOM     37  CG  MET A   1       5.451   5.404  15.294  0.00  0.00    +0.000 C 
BRANCH  37  39
ATOM     38  CE  MET A   1       6.117   3.747  13.197  0.00  0.00    +0.000 C 
ATOM     39  SD  MET A   1       6.928   4.669  14.521  0.00  0.00    +0.000 S 
ENDBRANCH  37  39
ENDBRANCH  36  37
ENDBRANCH  31  36
ENDBRANCH  29  31
ENDBRANCH  28  29
ENDBRANCH   1  28
TORSDOF 18
ENDMDL
