MODEL 1
REMARK VINA RESULT:      -6.9      0.000      0.000
REMARK  Name = 
REMARK  7 active torsions:
REMARK  status: ('A' for Active; 'I' for Inactive)
REMARK    1  A    between atoms: C_1  and  C_2
REMARK    2  A    between atoms: C_2  and  C_3
REMARK    3  A    between atoms: C_3  and  C_4
REMARK    4  A    between atoms: C_12  and  S_13
REMARK    5  A    between atoms: N_14  and  C_15
REMARK    6  A    between atoms: C_18  and  C_19
REMARK    7  A    between atoms: C_20  and  C_21
REMARK                            x       y       z     vdW  Elec       q    Type
REMARK                         _______ _______ _______ _____ _____    ______ ____
ROOT
ATOM      1  C   UNL     1       5.038   5.208  18.739  0.00  0.00    +0.000 C 
ATOM      2  N   UNL     1       3.995   4.308  19.314  0.00  0.00    +0.000 NA
ATOM      3  C   UNL     1       3.045   5.153  19.604  0.00  0.00    +0.000 C 
ATOM      4  N   UNL     1       3.293   6.490  19.423  0.00  0.00    +0.000 N 
ATOM      5  N   UNL     1       4.623   6.618  18.956  0.00  0.00    +0.000 NA
ATOM      6  H   UNL     1       5.184   7.013  19.706  0.00  0.00    +0.000 HD
ENDROOT
BRANCH   4   7
ATOM      7  C   UNL     1       2.397   7.563  19.199  0.00  0.00    +0.000 A 
ATOM      8  C   UNL     1       2.189   8.123  17.934  0.00  0.00    +0.000 A 
ATOM      9  C   UNL     1       1.282   9.171  17.743  0.00  0.00    +0.000 A 
ATOM     10  C   UNL     1       0.553   9.703  18.816  0.00  0.00    +0.000 A 
ATOM     11  C   UNL     1      -0.408  10.829  18.554  0.00  0.00    +0.000 C 
ATOM     12  C   UNL     1       0.756   9.173  20.101  0.00  0.00    +0.000 A 
ATOM     13  C   UNL     1       0.020   9.663  21.318  0.00  0.00    +0.000 C 
ATOM     14  C   UNL     1       1.678   8.119  20.273  0.00  0.00    +0.000 A 
ENDBRANCH   4   7
BRANCH   1  15
ATOM     15  C   UNL     1       5.216   4.924  17.233  0.00  0.00    +0.000 A 
ATOM     16  C   UNL     1       5.471   3.615  16.775  0.00  0.00    +0.000 A 
ATOM     17  C   UNL     1       5.661   3.349  15.417  0.00  0.00    +0.000 A 
ATOM     18  C   UNL     1       5.609   4.389  14.495  0.00  0.00    +0.000 A 
ATOM     19 CL   UNL     1       5.842   4.063  12.822  0.00  0.00    +0.000 Cl
ATOM     20  C   UNL     1       5.374   5.693  14.920  0.00  0.00    +0.000 A 
ATOM     21  C   UNL     1       5.186   5.960  16.281  0.00  0.00    +0.000 A 
ENDBRANCH   1  15
BRANCH   1  23
ATOM     22  C   UNL     1       7.547   5.808  19.120  0.00  0.00    +0.000 C 
ATOM     23  C   UNL     1       6.383   4.875  19.442  0.00  0.00    +0.000 C 
ENDBRANCH   1  23
BRANCH   3  24
ATOM     24  S   UNL     1       1.600   4.507  20.328  0.00  0.00    +0.000 S 
ATOM     25  H   UNL     1       2.048   4.625  21.583  0.00  0.00    +0.000 HD
ENDBRANCH   3  24
TORSDOF 4
ENDMDL
MODEL 2
REMARK VINA RESULT:      -6.8      2.844      6.742
REMARK  Name = 
REMARK  7 active torsions:
REMARK  status: ('A' for Active; 'I' for Inactive)
REMARK    1  A    between atoms: C_1  and  C_2
REMARK    2  A    between atoms: C_2  and  C_3
REMARK    3  A    between atoms: C_3  and  C_4
REMARK    4  A    between atoms: C_12  and  S_13
REMARK    5  A    between atoms: N_14  and  C_15
REMARK    6  A    between atoms: C_18  and  C_19
REMARK    7  A    between atoms: C_20  and  C_21
REMARK                            x       y       z     vdW  Elec       q    Type
REMARK                         _______ _______ _______ _____ _____    ______ ____
ROOT
ATOM      1  C   UNL     1       3.681   5.213  19.082  0.00  0.00    +0.000 C 
ATOM      2  N   UNL     1       4.994   5.385  19.769  0.00  0.00    +0.000 NA
ATOM      3  C   UNL     1       5.834   5.108  18.811  0.00  0.00    +0.000 C 
ATOM      4  N   UNL     1       5.326   4.675  17.613  0.00  0.00    +0.000 N 
ATOM      5  N   UNL     1       3.918   4.614  17.743  0.00  0.00    +0.000 NA
ATOM      6  H   UNL     1       3.645   3.636  17.768  0.00  0.00    +0.000 HD
ENDROOT
BRANCH   4   7
ATOM      7  C   UNL     1       5.877   4.740  16.310  0.00  0.00    +0.000 A 
ATOM      8  C   UNL     1       7.084   5.391  16.031  0.00  0.00    +0.000 A 
ATOM      9  C   UNL     1       7.611   5.422  14.735  0.00  0.00    +0.000 A 
ATOM     10  C   UNL     1       6.944   4.807  13.667  0.00  0.00    +0.000 A 
ATOM     11  C   UNL     1       7.555   4.870  12.295  0.00  0.00    +0.000 C 
ATOM     12  C   UNL     1       5.720   4.162  13.914  0.00  0.00    +0.000 A 
ATOM     13  C   UNL     1       4.928   3.463  12.843  0.00  0.00    +0.000 C 
ATOM     14  C   UNL     1       5.204   4.146  15.227  0.00  0.00    +0.000 A 
ENDBRANCH   4   7
BRANCH   1  15
ATOM     15  C   UNL     1       2.967   6.574  18.946  0.00  0.00    +0.000 A 
ATOM     16  C   UNL     1       2.198   7.090  20.008  0.00  0.00    +0.000 A 
ATOM     17  C   UNL     1       1.525   8.308  19.888  0.00  0.00    +0.000 A 
ATOM     18  C   UNL     1       1.603   9.026  18.699  0.00  0.00    +0.000 A 
ATOM     19 CL   UNL     1       0.775  10.527  18.549  0.00  0.00    +0.000 Cl
ATOM     20  C   UNL     1       2.342   8.534  17.628  0.00  0.00    +0.000 A 
ATOM     21  C   UNL     1       3.015   7.312  17.748  0.00  0.00    +0.000 A 
ENDBRANCH   1  15
BRANCH   1  23
ATOM     22  C   UNL     1       1.742   3.477  19.255  0.00  0.00    +0.000 C 
ATOM     23  C   UNL     1       2.796   4.307  19.983  0.00  0.00    +0.000 C 
ENDBRANCH   1  23
BRANCH   3  24
ATOM     24  S   UNL     1       7.530   5.181  19.195  0.00  0.00    +0.000 S 
ATOM     25  H   UNL     1       7.857   5.879  18.102  0.00  0.00    +0.000 HD
ENDBRANCH   3  24
TORSDOF 4
ENDMDL
MODEL 3
REMARK VINA RESULT:      -6.8      0.045      1.007
REMARK  Name = 
REMARK  7 active torsions:
REMARK  status: ('A' for Active; 'I' for Inactive)
REMARK    1  A    between atoms: C_1  and  C_2
REMARK    2  A    between atoms: C_2  and  C_3
REMARK    3  A    between atoms: C_3  and  C_4
REMARK    4  A    between atoms: C_12  and  S_13
REMARK    5  A    between atoms: N_14  and  C_15
REMARK    6  A    between atoms: C_18  and  C_19
REMARK    7  A    between atoms: C_20  and  C_21
REMARK                            x       y       z     vdW  Elec       q    Type
REMARK                         _______ _______ _______ _____ _____    ______ ____
ROOT
ATOM      1  C   UNL     1       5.060   5.207  18.756  0.00  0.00    +0.000 C 
ATOM      2  N   UNL     1       4.014   4.303  19.319  0.00  0.00    +0.000 NA
ATOM      3  C   UNL     1       3.058   5.144  19.597  0.00  0.00    +0.000 C 
ATOM      4  N   UNL     1       3.303   6.482  19.420  0.00  0.00    +0.000 N 
ATOM      5  N   UNL     1       4.638   6.615  18.969  0.00  0.00    +0.000 NA
ATOM      6  H   UNL     1       5.188   7.012  19.725  0.00  0.00    +0.000 HD
ENDROOT
BRANCH   4   7
ATOM      7  C   UNL     1       2.405   7.551  19.185  0.00  0.00    +0.000 A 
ATOM      8  C   UNL     1       2.203   8.105  17.916  0.00  0.00    +0.000 A 
ATOM      9  C   UNL     1       1.295   9.150  17.715  0.00  0.00    +0.000 A 
ATOM     10  C   UNL     1       0.557   9.684  18.780  0.00  0.00    +0.000 A 
ATOM     11  C   UNL     1      -0.405  10.806  18.507  0.00  0.00    +0.000 C 
ATOM     12  C   UNL     1       0.753   9.161  20.069  0.00  0.00    +0.000 A 
ATOM     13  C   UNL     1       0.008   9.655  21.279  0.00  0.00    +0.000 C 
ATOM     14  C   UNL     1       1.677   8.110  20.251  0.00  0.00    +0.000 A 
ENDBRANCH   4   7
BRANCH   1  15
ATOM     15  C   UNL     1       5.258   4.924  17.253  0.00  0.00    +0.000 A 
ATOM     16  C   UNL     1       5.158   5.964  16.307  0.00  0.00    +0.000 A 
ATOM     17  C   UNL     1       5.308   5.716  14.941  0.00  0.00    +0.000 A 
ATOM     18  C   UNL     1       5.552   4.420  14.497  0.00  0.00    +0.000 A 
ATOM     19 CL   UNL     1       5.738   4.113  12.814  0.00  0.00    +0.000 Cl
ATOM     20  C   UNL     1       5.641   3.371  15.406  0.00  0.00    +0.000 A 
ATOM     21  C   UNL     1       5.489   3.620  16.775  0.00  0.00    +0.000 A 
ENDBRANCH   1  15
BRANCH   1  23
ATOM     22  C   UNL     1       7.583   5.766  19.105  0.00  0.00    +0.000 C 
ATOM     23  C   UNL     1       6.398   4.879  19.476  0.00  0.00    +0.000 C 
ENDBRANCH   1  23
BRANCH   3  24
ATOM     24  S   UNL     1       1.606   4.491  20.303  0.00  0.00    +0.000 S 
ATOM     25  H   UNL     1       0.942   4.431  19.143  0.00  0.00    +0.000 HD
ENDBRANCH   3  24
TORSDOF 4
ENDMDL
MODEL 4
REMARK VINA RESULT:      -6.8      2.859      6.738
REMARK  Name = 
REMARK  7 active torsions:
REMARK  status: ('A' for Active; 'I' for Inactive)
REMARK    1  A    between atoms: C_1  and  C_2
REMARK    2  A    between atoms: C_2  and  C_3
REMARK    3  A    between atoms: C_3  and  C_4
REMARK    4  A    between atoms: C_12  and  S_13
REMARK    5  A    between atoms: N_14  and  C_15
REMARK    6  A    between atoms: C_18  and  C_19
REMARK    7  A    between atoms: C_20  and  C_21
REMARK                            x       y       z     vdW  Elec       q    Type
REMARK                         _______ _______ _______ _____ _____    ______ ____
ROOT
ATOM      1  C   UNL     1       3.763   5.135  19.103  0.00  0.00    +0.000 C 
ATOM      2  N   UNL     1       5.081   5.368  19.763  0.00  0.00    +0.000 NA
ATOM      3  C   UNL     1       5.914   5.112  18.793  0.00  0.00    +0.000 C 
ATOM      4  N   UNL     1       5.402   4.643  17.611  0.00  0.00    +0.000 N 
ATOM      5  N   UNL     1       4.000   4.529  17.767  0.00  0.00    +0.000 NA
ATOM      6  H   UNL     1       3.767   3.541  17.811  0.00  0.00    +0.000 HD
ENDROOT
BRANCH   4   7
ATOM      7  C   UNL     1       5.927   4.713  16.297  0.00  0.00    +0.000 A 
ATOM      8  C   UNL     1       7.123   5.372  15.994  0.00  0.00    +0.000 A 
ATOM      9  C   UNL     1       7.623   5.407  14.688  0.00  0.00    +0.000 A 
ATOM     10  C   UNL     1       6.939   4.787  13.633  0.00  0.00    +0.000 A 
ATOM     11  C   UNL     1       7.523   4.855  12.249  0.00  0.00    +0.000 C 
ATOM     12  C   UNL     1       5.725   4.134  13.904  0.00  0.00    +0.000 A 
ATOM     13  C   UNL     1       4.917   3.430  12.849  0.00  0.00    +0.000 C 
ATOM     14  C   UNL     1       5.236   4.114  15.227  0.00  0.00    +0.000 A 
ENDBRANCH   4   7
BRANCH   1  15
ATOM     15  C   UNL     1       2.994   6.466  18.963  0.00  0.00    +0.000 A 
ATOM     16  C   UNL     1       3.083   7.225  17.779  0.00  0.00    +0.000 A 
ATOM     17  C   UNL     1       2.413   8.444  17.650  0.00  0.00    +0.000 A 
ATOM     18  C   UNL     1       1.650   8.928  18.707  0.00  0.00    +0.000 A 
ATOM     19 CL   UNL     1       0.823  10.429  18.550  0.00  0.00    +0.000 Cl
ATOM     20  C   UNL     1       1.556   8.207  19.894  0.00  0.00    +0.000 A 
ATOM     21  C   UNL     1       2.229   6.987  20.023  0.00  0.00    +0.000 A 
ENDBRANCH   1  15
BRANCH   1  23
ATOM     22  C   UNL     1       2.557   2.849  19.446  0.00  0.00    +0.000 C 
ATOM     23  C   UNL     1       2.932   4.208  20.032  0.00  0.00    +0.000 C 
ENDBRANCH   1  23
BRANCH   3  24
ATOM     24  S   UNL     1       7.612   5.257  19.145  0.00  0.00    +0.000 S 
ATOM     25  H   UNL     1       7.444   6.170  20.109  0.00  0.00    +0.000 HD
ENDBRANCH   3  24
TORSDOF 4
ENDMDL
MODEL 5
REMARK VINA RESULT:      -6.7      1.123      1.253
REMARK  Name = 
REMARK  7 active torsions:
REMARK  status: ('A' for Active; 'I' for Inactive)
REMARK    1  A    between atoms: C_1  and  C_2
REMARK    2  A    between atoms: C_2  and  C_3
REMARK    3  A    between atoms: C_3  and  C_4
REMARK    4  A    between atoms: C_12  and  S_13
REMARK    5  A    between atoms: N_14  and  C_15
REMARK    6  A    between atoms: C_18  and  C_19
REMARK    7  A    between atoms: C_20  and  C_21
REMARK                            x       y       z     vdW  Elec       q    Type
REMARK                         _______ _______ _______ _____ _____    ______ ____
ROOT
ATOM      1  C   UNL     1       6.022   4.900  18.044  0.00  0.00    +0.000 C 
ATOM      2  N   UNL     1       5.130   3.911  18.718  0.00  0.00    +0.000 NA
ATOM      3  C   UNL     1       4.153   4.671  19.128  0.00  0.00    +0.000 C 
ATOM      4  N   UNL     1       4.268   6.025  18.944  0.00  0.00    +0.000 N 
ATOM      5  N   UNL     1       5.520   6.268  18.331  0.00  0.00    +0.000 NA
ATOM      6  H   UNL     1       6.129   6.703  19.019  0.00  0.00    +0.000 HD
ENDROOT
BRANCH   4   7
ATOM      7  C   UNL     1       3.266   7.020  18.841  0.00  0.00    +0.000 A 
ATOM      8  C   UNL     1       3.041   7.749  17.669  0.00  0.00    +0.000 A 
ATOM      9  C   UNL     1       2.031   8.714  17.595  0.00  0.00    +0.000 A 
ATOM     10  C   UNL     1       1.209   8.989  18.698  0.00  0.00    +0.000 A 
ATOM     11  C   UNL     1       0.138  10.036  18.563  0.00  0.00    +0.000 C 
ATOM     12  C   UNL     1       1.424   8.285  19.894  0.00  0.00    +0.000 A 
ATOM     13  C   UNL     1       0.596   8.496  21.132  0.00  0.00    +0.000 C 
ATOM     14  C   UNL     1       2.451   7.320  19.949  0.00  0.00    +0.000 A 
ENDBRANCH   4   7
BRANCH   1  15
ATOM     15  C   UNL     1       6.050   4.643  16.523  0.00  0.00    +0.000 A 
ATOM     16  C   UNL     1       4.989   3.967  15.890  0.00  0.00    +0.000 A 
ATOM     17  C   UNL     1       5.014   3.705  14.518  0.00  0.00    +0.000 A 
ATOM     18  C   UNL     1       6.108   4.107  13.758  0.00  0.00    +0.000 A 
ATOM     19 CL   UNL     1       6.141   3.786  12.068  0.00  0.00    +0.000 Cl
ATOM     20  C   UNL     1       7.178   4.763  14.359  0.00  0.00    +0.000 A 
ATOM     21  C   UNL     1       7.152   5.024  15.734  0.00  0.00    +0.000 A 
ENDBRANCH   1  15
BRANCH   1  23
ATOM     22  C   UNL     1       8.013   5.784  19.477  0.00  0.00    +0.000 C 
ATOM     23  C   UNL     1       7.462   4.676  18.585  0.00  0.00    +0.000 C 
ENDBRANCH   1  23
BRANCH   3  24
ATOM     24  S   UNL     1       2.859   3.899  19.999  0.00  0.00    +0.000 S 
ATOM     25  H   UNL     1       3.615   3.586  21.058  0.00  0.00    +0.000 HD
ENDBRANCH   3  24
TORSDOF 4
ENDMDL
MODEL 6
REMARK VINA RESULT:      -6.7      1.091      1.300
REMARK  Name = 
REMARK  7 active torsions:
REMARK  status: ('A' for Active; 'I' for Inactive)
REMARK    1  A    between atoms: C_1  and  C_2
REMARK    2  A    between atoms: C_2  and  C_3
REMARK    3  A    between atoms: C_3  and  C_4
REMARK    4  A    between atoms: C_12  and  S_13
REMARK    5  A    between atoms: N_14  and  C_15
REMARK    6  A    between atoms: C_18  and  C_19
REMARK    7  A    between atoms: C_20  and  C_21
REMARK                            x       y       z     vdW  Elec       q    Type
REMARK                         _______ _______ _______ _____ _____    ______ ____
ROOT
ATOM      1  C   UNL     1       5.960   4.852  18.157  0.00  0.00    +0.000 C 
ATOM      2  N   UNL     1       5.053   3.886  18.843  0.00  0.00    +0.000 NA
ATOM      3  C   UNL     1       4.080   4.663  19.229  0.00  0.00    +0.000 C 
ATOM      4  N   UNL     1       4.209   6.012  19.021  0.00  0.00    +0.000 N 
ATOM      5  N   UNL     1       5.469   6.231  18.413  0.00  0.00    +0.000 NA
ATOM      6  H   UNL     1       6.076   6.673  19.098  0.00  0.00    +0.000 HD
ENDROOT
BRANCH   4   7
ATOM      7  C   UNL     1       3.218   7.015  18.890  0.00  0.00    +0.000 A 
ATOM      8  C   UNL     1       3.004   7.717  17.700  0.00  0.00    +0.000 A 
ATOM      9  C   UNL     1       2.004   8.691  17.599  0.00  0.00    +0.000 A 
ATOM     10  C   UNL     1       1.183   9.002  18.692  0.00  0.00    +0.000 A 
ATOM     11  C   UNL     1       0.124  10.055  18.528  0.00  0.00    +0.000 C 
ATOM     12  C   UNL     1       1.388   8.326  19.907  0.00  0.00    +0.000 A 
ATOM     13  C   UNL     1       0.558   8.576  21.136  0.00  0.00    +0.000 C 
ATOM     14  C   UNL     1       2.404   7.351  19.988  0.00  0.00    +0.000 A 
ENDBRANCH   4   7
BRANCH   1  15
ATOM     15  C   UNL     1       5.997   4.566  16.641  0.00  0.00    +0.000 A 
ATOM     16  C   UNL     1       7.141   4.880  15.880  0.00  0.00    +0.000 A 
ATOM     17  C   UNL     1       7.178   4.651  14.502  0.00  0.00    +0.000 A 
ATOM     18  C   UNL     1       6.067   4.112  13.862  0.00  0.00    +0.000 A 
ATOM     19 CL   UNL     1       6.110   3.828  12.165  0.00  0.00    +0.000 Cl
ATOM     20  C   UNL     1       4.918   3.807  14.585  0.00  0.00    +0.000 A 
ATOM     21  C   UNL     1       4.881   4.038  15.965  0.00  0.00    +0.000 A 
ENDBRANCH   1  15
BRANCH   1  23
ATOM     22  C   UNL     1       8.026   5.821  19.418  0.00  0.00    +0.000 C 
ATOM     23  C   UNL     1       7.392   4.625  18.714  0.00  0.00    +0.000 C 
ENDBRANCH   1  23
BRANCH   3  24
ATOM     24  S   UNL     1       2.771   3.921  20.105  0.00  0.00    +0.000 S 
ATOM     25  H   UNL     1       1.961   3.846  19.043  0.00  0.00    +0.000 HD
ENDBRANCH   3  24
TORSDOF 4
ENDMDL
MODEL 7
REMARK VINA RESULT:      -6.6      4.151      6.570
REMARK  Name = 
REMARK  7 active torsions:
REMARK  status: ('A' for Active; 'I' for Inactive)
REMARK    1  A    between atoms: C_1  and  C_2
REMARK    2  A    between atoms: C_2  and  C_3
REMARK    3  A    between atoms: C_3  and  C_4
REMARK    4  A    between atoms: C_12  and  S_13
REMARK    5  A    between atoms: N_14  and  C_15
REMARK    6  A    between atoms: C_18  and  C_19
REMARK    7  A    between atoms: C_20  and  C_21
REMARK                            x       y       z     vdW  Elec       q    Type
REMARK                         _______ _______ _______ _____ _____    ______ ____
ROOT
ATOM      1  C   UNL     1       0.413   9.728  20.481  0.00  0.00    +0.000 C 
ATOM      2  N   UNL     1      -0.822   9.973  19.680  0.00  0.00    +0.000 NA
ATOM      3  C   UNL     1      -0.674  11.223  19.338  0.00  0.00    +0.000 C 
ATOM      4  N   UNL     1       0.397  11.909  19.851  0.00  0.00    +0.000 N 
ATOM      5  N   UNL     1       1.104  11.025  20.699  0.00  0.00    +0.000 NA
ATOM      6  H   UNL     1       0.952  11.320  21.660  0.00  0.00    +0.000 HD
ENDROOT
BRANCH   4   7
ATOM      7  C   UNL     1       1.076  13.047  19.351  0.00  0.00    +0.000 A 
ATOM      8  C   UNL     1       2.229  12.956  18.566  0.00  0.00    +0.000 A 
ATOM      9  C   UNL     1       2.867  14.099  18.074  0.00  0.00    +0.000 A 
ATOM     10  C   UNL     1       2.374  15.381  18.355  0.00  0.00    +0.000 A 
ATOM     11  C   UNL     1       3.098  16.576  17.799  0.00  0.00    +0.000 C 
ATOM     12  C   UNL     1       1.227  15.505  19.157  0.00  0.00    +0.000 A 
ATOM     13  C   UNL     1       0.611  16.830  19.512  0.00  0.00    +0.000 C 
ATOM     14  C   UNL     1       0.603  14.339  19.647  0.00  0.00    +0.000 A 
ENDBRANCH   4   7
BRANCH   1  15
ATOM     15  C   UNL     1       1.340   8.739  19.744  0.00  0.00    +0.000 A 
ATOM     16  C   UNL     1       1.774   9.007  18.430  0.00  0.00    +0.000 A 
ATOM     17  C   UNL     1       2.591   8.107  17.741  0.00  0.00    +0.000 A 
ATOM     18  C   UNL     1       2.981   6.920  18.353  0.00  0.00    +0.000 A 
ATOM     19 CL   UNL     1       3.988   5.811  17.508  0.00  0.00    +0.000 Cl
ATOM     20  C   UNL     1       2.555   6.622  19.644  0.00  0.00    +0.000 A 
ATOM     21  C   UNL     1       1.734   7.523  20.333  0.00  0.00    +0.000 A 
ENDBRANCH   1  15
BRANCH   1  23
ATOM     22  C   UNL     1      -0.397  10.017  22.943  0.00  0.00    +0.000 C 
ATOM     23  C   UNL     1      -0.021   9.060  21.815  0.00  0.00    +0.000 C 
ENDBRANCH   1  23
BRANCH   3  24
ATOM     24  S   UNL     1      -1.934  11.938  18.373  0.00  0.00    +0.000 S 
ATOM     25  H   UNL     1      -1.449  13.181  18.468  0.00  0.00    +0.000 HD
ENDBRANCH   3  24
TORSDOF 4
ENDMDL
MODEL 8
REMARK VINA RESULT:      -6.5      4.146      6.493
REMARK  Name = 
REMARK  7 active torsions:
REMARK  status: ('A' for Active; 'I' for Inactive)
REMARK    1  A    between atoms: C_1  and  C_2
REMARK    2  A    between atoms: C_2  and  C_3
REMARK    3  A    between atoms: C_3  and  C_4
REMARK    4  A    between atoms: C_12  and  S_13
REMARK    5  A    between atoms: N_14  and  C_15
REMARK    6  A    between atoms: C_18  and  C_19
REMARK    7  A    between atoms: C_20  and  C_21
REMARK                            x       y       z     vdW  Elec       q    Type
REMARK                         _______ _______ _______ _____ _____    ______ ____
ROOT
ATOM      1  C   UNL     1       0.424   9.707  20.471  0.00  0.00    +0.000 C 
ATOM      2  N   UNL     1      -0.829   9.975  19.706  0.00  0.00    +0.000 NA
ATOM      3  C   UNL     1      -0.678  11.227  19.378  0.00  0.00    +0.000 C 
ATOM      4  N   UNL     1       0.412  11.897  19.872  0.00  0.00    +0.000 N 
ATOM      5  N   UNL     1       1.134  10.994  20.689  0.00  0.00    +0.000 NA
ATOM      6  H   UNL     1       1.009  11.276  21.657  0.00  0.00    +0.000 HD
ENDROOT
BRANCH   4   7
ATOM      7  C   UNL     1       1.089  13.036  19.371  0.00  0.00    +0.000 A 
ATOM      8  C   UNL     1       2.242  12.945  18.585  0.00  0.00    +0.000 A 
ATOM      9  C   UNL     1       2.877  14.090  18.091  0.00  0.00    +0.000 A 
ATOM     10  C   UNL     1       2.382  15.371  18.370  0.00  0.00    +0.000 A 
ATOM     11  C   UNL     1       3.103  16.567  17.813  0.00  0.00    +0.000 C 
ATOM     12  C   UNL     1       1.235  15.493  19.173  0.00  0.00    +0.000 A 
ATOM     13  C   UNL     1       0.616  16.818  19.527  0.00  0.00    +0.000 C 
ATOM     14  C   UNL     1       0.613  14.327  19.666  0.00  0.00    +0.000 A 
ENDBRANCH   4   7
BRANCH   1  15
ATOM     15  C   UNL     1       1.322   8.720  19.695  0.00  0.00    +0.000 A 
ATOM     16  C   UNL     1       1.754   7.521  20.294  0.00  0.00    +0.000 A 
ATOM     17  C   UNL     1       2.589   6.631  19.612  0.00  0.00    +0.000 A 
ATOM     18  C   UNL     1       3.013   6.934  18.323  0.00  0.00    +0.000 A 
ATOM     19 CL   UNL     1       4.041   5.840  17.481  0.00  0.00    +0.000 Cl
ATOM     20  C   UNL     1       2.614   8.119  17.711  0.00  0.00    +0.000 A 
ATOM     21  C   UNL     1       1.779   9.009  18.395  0.00  0.00    +0.000 A 
ENDBRANCH   1  15
BRANCH   1  23
ATOM     22  C   UNL     1      -0.364   9.967  22.943  0.00  0.00    +0.000 C 
ATOM     23  C   UNL     1       0.020   9.024  21.806  0.00  0.00    +0.000 C 
ENDBRANCH   1  23
BRANCH   3  24
ATOM     24  S   UNL     1      -1.957  11.968  18.457  0.00  0.00    +0.000 S 
ATOM     25  H   UNL     1      -2.793  10.931  18.583  0.00  0.00    +0.000 HD
ENDBRANCH   3  24
TORSDOF 4
ENDMDL
MODEL 9
REMARK VINA RESULT:      -6.5      1.445      1.687
REMARK  Name = 
REMARK  7 active torsions:
REMARK  status: ('A' for Active; 'I' for Inactive)
REMARK    1  A    between atoms: C_1  and  C_2
REMARK    2  A    between atoms: C_2  and  C_3
REMARK    3  A    between atoms: C_3  and  C_4
REMARK    4  A    between atoms: C_12  and  S_13
REMARK    5  A    between atoms: N_14  and  C_15
REMARK    6  A    between atoms: C_18  and  C_19
REMARK    7  A    between atoms: C_20  and  C_21
REMARK                            x       y       z     vdW  Elec       q    Type
REMARK                         _______ _______ _______ _____ _____    ______ ____
ROOT
ATOM      1  C   UNL     1       4.624   4.080  18.765  0.00  0.00    +0.000 C 
ATOM      2  N   UNL     1       3.326   3.381  18.535  0.00  0.00    +0.000 NA
ATOM      3  C   UNL     1       2.465   4.312  18.836  0.00  0.00    +0.000 C 
ATOM      4  N   UNL     1       2.944   5.497  19.333  0.00  0.00    +0.000 N 
ATOM      5  N   UNL     1       4.352   5.387  19.417  0.00  0.00    +0.000 NA
ATOM      6  H   UNL     1       4.605   5.322  20.399  0.00  0.00    +0.000 HD
ENDROOT
BRANCH   4   7
ATOM      7  C   UNL     1       2.372   6.793  19.313  0.00  0.00    +0.000 A 
ATOM      8  C   UNL     1       2.380   7.606  18.176  0.00  0.00    +0.000 A 
ATOM      9  C   UNL     1       1.790   8.875  18.185  0.00  0.00    +0.000 A 
ATOM     10  C   UNL     1       1.174   9.380  19.338  0.00  0.00    +0.000 A 
ATOM     11  C   UNL     1       0.556  10.749  19.292  0.00  0.00    +0.000 C 
ATOM     12  C   UNL     1       1.168   8.592  20.502  0.00  0.00    +0.000 A 
ATOM     13  C   UNL     1       0.527   9.033  21.789  0.00  0.00    +0.000 C 
ATOM     14  C   UNL     1       1.772   7.318  20.473  0.00  0.00    +0.000 A 
ENDBRANCH   4   7
BRANCH   1  15
ATOM     15  C   UNL     1       5.363   4.288  17.426  0.00  0.00    +0.000 A 
ATOM     16  C   UNL     1       6.722   4.658  17.407  0.00  0.00    +0.000 A 
ATOM     17  C   UNL     1       7.396   4.875  16.202  0.00  0.00    +0.000 A 
ATOM     18  C   UNL     1       6.716   4.736  14.997  0.00  0.00    +0.000 A 
ATOM     19 CL   UNL     1       7.543   5.002  13.511  0.00  0.00    +0.000 Cl
ATOM     20  C   UNL     1       5.369   4.386  14.985  0.00  0.00    +0.000 A 
ATOM     21  C   UNL     1       4.695   4.170  16.192  0.00  0.00    +0.000 A 
ENDBRANCH   1  15
BRANCH   1  23
ATOM     22  C   UNL     1       4.775   1.997  20.326  0.00  0.00    +0.000 C 
ATOM     23  C   UNL     1       5.504   3.154  19.648  0.00  0.00    +0.000 C 
ENDBRANCH   1  23
BRANCH   3  24
ATOM     24  S   UNL     1       0.777   3.904  18.711  0.00  0.00    +0.000 S 
ATOM     25  H   UNL     1       0.971   2.592  18.888  0.00  0.00    +0.000 HD
ENDBRANCH   3  24
TORSDOF 4
ENDMDL
