MODEL 1
REMARK VINA RESULT:      -8.2      0.000      0.000
REMARK  Name = 
REMARK  6 active torsions:
REMARK  status: ('A' for Active; 'I' for Inactive)
REMARK    1  A    between atoms: C_1  and  O_2
REMARK    2  A    between atoms: O_2  and  C_3
REMARK    3  A    between atoms: C_7  and  C_8
REMARK    4  A    between atoms: C_11  and  C_12
REMARK    5  A    between atoms: C_12  and  C_13
REMARK    6  A    between atoms: N_20  and  C_21
REMARK                            x       y       z     vdW  Elec       q    Type
REMARK                         _______ _______ _______ _____ _____    ______ ____
ROOT
ATOM      1  C   UNL     1       5.335   5.705  15.649  0.00  0.00    +0.000 A 
ATOM      2  N   UNL     1       5.715   6.954  15.870  0.00  0.00    +0.000 NA
ATOM      3  C   UNL     1       5.141   7.350  17.020  0.00  0.00    +0.000 A 
ATOM      4  C   UNL     1       4.347   6.358  17.543  0.00  0.00    +0.000 A 
ATOM      5  N   UNL     1       4.512   5.254  16.705  0.00  0.00    +0.000 N 
ENDROOT
BRANCH   5   6
ATOM      6  C   UNL     1       4.042   3.870  16.892  0.00  0.00    +0.000 C 
ATOM      7  C   UNL     1       4.780   2.992  17.917  0.00  0.00    +0.000 C 
ATOM      8  C   UNL     1       4.308   3.096  19.362  0.00  0.00    +0.000 C 
ATOM      9  C   UNL     1       2.782   3.205  19.577  0.00  0.00    +0.000 C 
ATOM     10  C   UNL     1       1.964   3.862  18.436  0.00  0.00    +0.000 C 
ATOM     11  C   UNL     1       2.525   3.664  17.031  0.00  0.00    +0.000 C 
ATOM     12  O   UNL     1       2.225   1.902  19.794  0.00  0.00    +0.000 OA
ATOM     13  C   UNL     1       1.432   1.999  20.984  0.00  0.00    +0.000 C 
ATOM     14  C   UNL     1       1.439   3.446  21.403  0.00  0.00    +0.000 C 
ATOM     15  O   UNL     1       2.604   3.969  20.788  0.00  0.00    +0.000 OA
ENDBRANCH   5   6
BRANCH   1  20
ATOM     16  C   UNL     1       5.294   3.542  12.558  0.00  0.00    +0.000 A 
ATOM     17  C   UNL     1       6.633   3.543  12.181  0.00  0.00    +0.000 A 
ATOM     18  C   UNL     1       7.580   4.221  12.946  0.00  0.00    +0.000 A 
ATOM     19  C   UNL     1       7.201   4.927  14.094  0.00  0.00    +0.000 A 
ATOM     20  C   UNL     1       5.852   5.004  14.454  0.00  0.00    +0.000 A 
ATOM     21  C   UNL     1       4.915   4.275  13.682  0.00  0.00    +0.000 A 
BRANCH  16  23
ATOM     22  C   UNL     1       3.666   3.462  10.816  0.00  0.00    +0.000 C 
ATOM     23  O   UNL     1       4.475   2.782  11.770  0.00  0.00    +0.000 OA
ENDBRANCH  16  23
ENDBRANCH   1  20
BRANCH   4  24
ATOM     24  C   UNL     1       3.548   6.505  18.782  0.00  0.00    +0.000 C 
BRANCH  24  25
ATOM     25  C   UNL     1       2.576   7.664  18.844  0.00  0.00    +0.000 A 
ATOM     26  C   UNL     1       2.187   8.398  17.715  0.00  0.00    +0.000 A 
ATOM     27  C   UNL     1       1.244   9.421  17.831  0.00  0.00    +0.000 A 
ATOM     28  C   UNL     1       0.668   9.700  19.071  0.00  0.00    +0.000 A 
ATOM     29 CL   UNL     1      -0.487  10.964  19.205  0.00  0.00    +0.000 Cl
ATOM     30  C   UNL     1       1.010   8.951  20.195  0.00  0.00    +0.000 A 
ATOM     31  C   UNL     1       1.953   7.932  20.077  0.00  0.00    +0.000 A 
ENDBRANCH  24  25
ENDBRANCH   4  24
TORSDOF 5
ENDMDL
MODEL 2
REMARK VINA RESULT:      -8.1      0.537      1.017
REMARK  Name = 
REMARK  6 active torsions:
REMARK  status: ('A' for Active; 'I' for Inactive)
REMARK    1  A    between atoms: C_1  and  O_2
REMARK    2  A    between atoms: O_2  and  C_3
REMARK    3  A    between atoms: C_7  and  C_8
REMARK    4  A    between atoms: C_11  and  C_12
REMARK    5  A    between atoms: C_12  and  C_13
REMARK    6  A    between atoms: N_20  and  C_21
REMARK                            x       y       z     vdW  Elec       q    Type
REMARK                         _______ _______ _______ _____ _____    ______ ____
ROOT
ATOM      1  C   UNL     1       5.764   5.622  15.750  0.00  0.00    +0.000 A 
ATOM      2  N   UNL     1       6.340   6.737  16.173  0.00  0.00    +0.000 NA
ATOM      3  C   UNL     1       5.796   7.041  17.365  0.00  0.00    +0.000 A 
ATOM      4  C   UNL     1       4.826   6.132  17.712  0.00  0.00    +0.000 A 
ATOM      5  N   UNL     1       4.836   5.160  16.709  0.00  0.00    +0.000 N 
ENDROOT
BRANCH   5   6
ATOM      6  C   UNL     1       4.133   3.866  16.665  0.00  0.00    +0.000 C 
ATOM      7  C   UNL     1       4.622   2.750  17.604  0.00  0.00    +0.000 C 
ATOM      8  C   UNL     1       4.041   2.749  19.013  0.00  0.00    +0.000 C 
ATOM      9  C   UNL     1       2.539   3.091  19.135  0.00  0.00    +0.000 C 
ATOM     10  C   UNL     1       1.948   4.020  18.044  0.00  0.00    +0.000 C 
ATOM     11  C   UNL     1       2.597   3.909  16.668  0.00  0.00    +0.000 C 
ATOM     12  O   UNL     1       1.761   1.887  19.126  0.00  0.00    +0.000 OA
ATOM     13  C   UNL     1       0.888   1.967  20.260  0.00  0.00    +0.000 C 
ATOM     14  C   UNL     1       1.090   3.325  20.879  0.00  0.00    +0.000 C 
ATOM     15  O   UNL     1       2.377   3.713  20.426  0.00  0.00    +0.000 OA
ENDBRANCH   5   6
BRANCH   1  20
ATOM     16  C   UNL     1       5.617   3.528  12.614  0.00  0.00    +0.000 A 
ATOM     17  C   UNL     1       6.863   3.767  12.043  0.00  0.00    +0.000 A 
ATOM     18  C   UNL     1       7.787   4.588  12.686  0.00  0.00    +0.000 A 
ATOM     19  C   UNL     1       7.474   5.202  13.905  0.00  0.00    +0.000 A 
ATOM     20  C   UNL     1       6.203   5.039  14.464  0.00  0.00    +0.000 A 
ATOM     21  C   UNL     1       5.296   4.169  13.811  0.00  0.00    +0.000 A 
BRANCH  16  23
ATOM     22  C   UNL     1       3.890   3.191  11.004  0.00  0.00    +0.000 C 
ATOM     23  O   UNL     1       4.828   2.649  11.928  0.00  0.00    +0.000 OA
ENDBRANCH  16  23
ENDBRANCH   1  20
BRANCH   4  24
ATOM     24  C   UNL     1       4.014   6.218  18.948  0.00  0.00    +0.000 C 
BRANCH  24  25
ATOM     25  C   UNL     1       2.917   7.261  18.983  0.00  0.00    +0.000 A 
ATOM     26  C   UNL     1       2.137   7.514  20.119  0.00  0.00    +0.000 A 
ATOM     27  C   UNL     1       1.178   8.528  20.102  0.00  0.00    +0.000 A 
ATOM     28  C   UNL     1       1.010   9.310  18.960  0.00  0.00    +0.000 A 
ATOM     29 CL   UNL     1      -0.176  10.552  18.947  0.00  0.00    +0.000 Cl
ATOM     30  C   UNL     1       1.808   9.102  17.836  0.00  0.00    +0.000 A 
ATOM     31  C   UNL     1       2.764   8.088  17.854  0.00  0.00    +0.000 A 
ENDBRANCH  24  25
ENDBRANCH   4  24
TORSDOF 5
ENDMDL
MODEL 3
REMARK VINA RESULT:      -7.7      6.144     11.042
REMARK  Name = 
REMARK  6 active torsions:
REMARK  status: ('A' for Active; 'I' for Inactive)
REMARK    1  A    between atoms: C_1  and  O_2
REMARK    2  A    between atoms: O_2  and  C_3
REMARK    3  A    between atoms: C_7  and  C_8
REMARK    4  A    between atoms: C_11  and  C_12
REMARK    5  A    between atoms: C_12  and  C_13
REMARK    6  A    between atoms: N_20  and  C_21
REMARK                            x       y       z     vdW  Elec       q    Type
REMARK                         _______ _______ _______ _____ _____    ______ ____
ROOT
ATOM      1  C   UNL     1      -3.250  11.179  18.087  0.00  0.00    +0.000 A 
ATOM      2  N   UNL     1      -2.964  10.131  17.330  0.00  0.00    +0.000 NA
ATOM      3  C   UNL     1      -1.646   9.892  17.458  0.00  0.00    +0.000 A 
ATOM      4  C   UNL     1      -1.054  10.817  18.284  0.00  0.00    +0.000 A 
ATOM      5  N   UNL     1      -2.090  11.623  18.760  0.00  0.00    +0.000 N 
ENDROOT
BRANCH   5   6
ATOM      6  C   UNL     1      -2.054  12.652  19.814  0.00  0.00    +0.000 C 
ATOM      7  C   UNL     1      -1.604  12.225  21.222  0.00  0.00    +0.000 C 
ATOM      8  C   UNL     1      -0.103  12.241  21.485  0.00  0.00    +0.000 C 
ATOM      9  C   UNL     1       0.686  13.423  20.879  0.00  0.00    +0.000 C 
ATOM     10  C   UNL     1       0.111  14.051  19.585  0.00  0.00    +0.000 C 
ATOM     11  C   UNL     1      -1.408  13.998  19.450  0.00  0.00    +0.000 C 
ATOM     12  O   UNL     1       0.800  14.479  21.842  0.00  0.00    +0.000 OA
ATOM     13  C   UNL     1       2.189  14.827  21.893  0.00  0.00    +0.000 C 
ATOM     14  C   UNL     1       2.886  14.018  20.830  0.00  0.00    +0.000 C 
ATOM     15  O   UNL     1       2.013  12.922  20.614  0.00  0.00    +0.000 OA
ENDBRANCH   5   6
BRANCH   1  20
ATOM     16  C   UNL     1      -6.707  11.693  19.507  0.00  0.00    +0.000 A 
ATOM     17  C   UNL     1      -7.350  12.372  18.477  0.00  0.00    +0.000 A 
ATOM     18  C   UNL     1      -6.679  12.646  17.288  0.00  0.00    +0.000 A 
ATOM     19  C   UNL     1      -5.344  12.261  17.113  0.00  0.00    +0.000 A 
ATOM     20  C   UNL     1      -4.652  11.643  18.159  0.00  0.00    +0.000 A 
ATOM     21  C   UNL     1      -5.367  11.341  19.343  0.00  0.00    +0.000 A 
BRANCH  16  23
ATOM     22  C   UNL     1      -7.444  12.331  21.685  0.00  0.00    +0.000 C 
ATOM     23  O   UNL     1      -7.491  11.419  20.593  0.00  0.00    +0.000 OA
ENDBRANCH  16  23
ENDBRANCH   1  20
BRANCH   4  24
ATOM     24  C   UNL     1       0.395  10.847  18.589  0.00  0.00    +0.000 C 
BRANCH  24  25
ATOM     25  C   UNL     1       1.079   9.517  18.823  0.00  0.00    +0.000 A 
ATOM     26  C   UNL     1       1.830   8.858  17.840  0.00  0.00    +0.000 A 
ATOM     27  C   UNL     1       2.482   7.660  18.137  0.00  0.00    +0.000 A 
ATOM     28  C   UNL     1       2.407   7.127  19.424  0.00  0.00    +0.000 A 
ATOM     29 CL   UNL     1       3.207   5.649  19.779  0.00  0.00    +0.000 Cl
ATOM     30  C   UNL     1       1.702   7.790  20.426  0.00  0.00    +0.000 A 
ATOM     31  C   UNL     1       1.050   8.986  20.127  0.00  0.00    +0.000 A 
ENDBRANCH  24  25
ENDBRANCH   4  24
TORSDOF 5
ENDMDL
MODEL 4
REMARK VINA RESULT:      -7.5      6.379     11.100
REMARK  Name = 
REMARK  6 active torsions:
REMARK  status: ('A' for Active; 'I' for Inactive)
REMARK    1  A    between atoms: C_1  and  O_2
REMARK    2  A    between atoms: O_2  and  C_3
REMARK    3  A    between atoms: C_7  and  C_8
REMARK    4  A    between atoms: C_11  and  C_12
REMARK    5  A    between atoms: C_12  and  C_13
REMARK    6  A    between atoms: N_20  and  C_21
REMARK                            x       y       z     vdW  Elec       q    Type
REMARK                         _______ _______ _______ _____ _____    ______ ____
ROOT
ATOM      1  C   UNL     1      -3.370  11.212  18.239  0.00  0.00    +0.000 A 
ATOM      2  N   UNL     1      -3.054  10.210  17.432  0.00  0.00    +0.000 NA
ATOM      3  C   UNL     1      -1.724  10.034  17.513  0.00  0.00    +0.000 A 
ATOM      4  C   UNL     1      -1.154  10.955  18.359  0.00  0.00    +0.000 A 
ATOM      5  N   UNL     1      -2.213  11.688  18.897  0.00  0.00    +0.000 N 
ENDROOT
BRANCH   5   6
ATOM      6  C   UNL     1      -2.197  12.675  19.990  0.00  0.00    +0.000 C 
ATOM      7  C   UNL     1      -1.680  12.217  21.365  0.00  0.00    +0.000 C 
ATOM      8  C   UNL     1      -0.174  12.301  21.584  0.00  0.00    +0.000 C 
ATOM      9  C   UNL     1       0.534  13.546  21.005  0.00  0.00    +0.000 C 
ATOM     10  C   UNL     1      -0.114  14.194  19.755  0.00  0.00    +0.000 C 
ATOM     11  C   UNL     1      -1.632  14.066  19.662  0.00  0.00    +0.000 C 
ATOM     12  O   UNL     1       0.624  14.567  22.006  0.00  0.00    +0.000 OA
ATOM     13  C   UNL     1       1.994  14.985  22.030  0.00  0.00    +0.000 C 
ATOM     14  C   UNL     1       2.698  14.256  20.915  0.00  0.00    +0.000 C 
ATOM     15  O   UNL     1       1.875  13.125  20.680  0.00  0.00    +0.000 OA
ENDBRANCH   5   6
BRANCH   1  20
ATOM     16  C   UNL     1      -6.662  12.827  17.349  0.00  0.00    +0.000 A 
ATOM     17  C   UNL     1      -7.452  12.504  18.448  0.00  0.00    +0.000 A 
ATOM     18  C   UNL     1      -6.918  11.784  19.514  0.00  0.00    +0.000 A 
ATOM     19  C   UNL     1      -5.585  11.355  19.492  0.00  0.00    +0.000 A 
ATOM     20  C   UNL     1      -4.790  11.601  18.370  0.00  0.00    +0.000 A 
ATOM     21  C   UNL     1      -5.345  12.368  17.316  0.00  0.00    +0.000 A 
BRANCH  16  23
ATOM     22  C   UNL     1      -7.046  15.002  16.450  0.00  0.00    +0.000 C 
ATOM     23  O   UNL     1      -7.277  13.598  16.404  0.00  0.00    +0.000 OA
ENDBRANCH  16  23
ENDBRANCH   1  20
BRANCH   4  24
ATOM     24  C   UNL     1       0.301  11.046  18.623  0.00  0.00    +0.000 C 
BRANCH  24  25
ATOM     25  C   UNL     1       1.027   9.757  18.945  0.00  0.00    +0.000 A 
ATOM     26  C   UNL     1       0.990   9.153  20.209  0.00  0.00    +0.000 A 
ATOM     27  C   UNL     1       1.635   7.934  20.425  0.00  0.00    +0.000 A 
ATOM     28  C   UNL     1       2.301   7.302  19.375  0.00  0.00    +0.000 A 
ATOM     29 CL   UNL     1       3.098   5.806  19.653  0.00  0.00    +0.000 Cl
ATOM     30  C   UNL     1       2.310   7.866  18.101  0.00  0.00    +0.000 A 
ATOM     31  C   UNL     1       1.666   9.084  17.887  0.00  0.00    +0.000 A 
ENDBRANCH  24  25
ENDBRANCH   4  24
TORSDOF 5
ENDMDL
MODEL 5
REMARK VINA RESULT:      -7.4      5.599     10.480
REMARK  Name = 
REMARK  6 active torsions:
REMARK  status: ('A' for Active; 'I' for Inactive)
REMARK    1  A    between atoms: C_1  and  O_2
REMARK    2  A    between atoms: O_2  and  C_3
REMARK    3  A    between atoms: C_7  and  C_8
REMARK    4  A    between atoms: C_11  and  C_12
REMARK    5  A    between atoms: C_12  and  C_13
REMARK    6  A    between atoms: N_20  and  C_21
REMARK                            x       y       z     vdW  Elec       q    Type
REMARK                         _______ _______ _______ _____ _____    ______ ____
ROOT
ATOM      1  C   UNL     1       0.167  10.505  21.753  0.00  0.00    +0.000 A 
ATOM      2  N   UNL     1       0.705   9.626  22.583  0.00  0.00    +0.000 NA
ATOM      3  C   UNL     1       1.370   8.725  21.837  0.00  0.00    +0.000 A 
ATOM      4  C   UNL     1       1.237   8.999  20.497  0.00  0.00    +0.000 A 
ATOM      5  N   UNL     1       0.517  10.192  20.420  0.00  0.00    +0.000 N 
ENDROOT
BRANCH   5   6
ATOM      6  C   UNL     1       0.247  11.037  19.244  0.00  0.00    +0.000 C 
ATOM      7  C   UNL     1       0.109  10.345  17.877  0.00  0.00    +0.000 C 
ATOM      8  C   UNL     1      -1.277   9.819  17.521  0.00  0.00    +0.000 C 
ATOM      9  C   UNL     1      -2.472  10.712  17.922  0.00  0.00    +0.000 C 
ATOM     10  C   UNL     1      -2.273  11.624  19.159  0.00  0.00    +0.000 C 
ATOM     11  C   UNL     1      -0.845  12.108  19.394  0.00  0.00    +0.000 C 
ATOM     12  O   UNL     1      -2.833  11.565  16.828  0.00  0.00    +0.000 OA
ATOM     13  C   UNL     1      -4.246  11.408  16.648  0.00  0.00    +0.000 C 
ATOM     14  C   UNL     1      -4.737  10.518  17.760  0.00  0.00    +0.000 C 
ATOM     15  O   UNL     1      -3.574   9.815  18.167  0.00  0.00    +0.000 OA
ENDBRANCH   5   6
BRANCH   1  20
ATOM     16  C   UNL     1      -2.687  12.326  23.419  0.00  0.00    +0.000 A 
ATOM     17  C   UNL     1      -2.255  13.648  23.379  0.00  0.00    +0.000 A 
ATOM     18  C   UNL     1      -1.041  13.974  22.779  0.00  0.00    +0.000 A 
ATOM     19  C   UNL     1      -0.227  12.981  22.222  0.00  0.00    +0.000 A 
ATOM     20  C   UNL     1      -0.601  11.637  22.314  0.00  0.00    +0.000 A 
ATOM     21  C   UNL     1      -1.857  11.335  22.895  0.00  0.00    +0.000 A 
BRANCH  16  23
ATOM     22  C   UNL     1      -4.970  13.006  23.535  0.00  0.00    +0.000 C 
ATOM     23  O   UNL     1      -3.925  12.141  23.967  0.00  0.00    +0.000 OA
ENDBRANCH  16  23
ENDBRANCH   1  20
BRANCH   4  24
ATOM     24  C   UNL     1       1.818   8.164  19.420  0.00  0.00    +0.000 C 
BRANCH  24  25
ATOM     25  C   UNL     1       2.218   6.750  19.783  0.00  0.00    +0.000 A 
ATOM     26  C   UNL     1       1.405   5.893  20.537  0.00  0.00    +0.000 A 
ATOM     27  C   UNL     1       1.808   4.581  20.789  0.00  0.00    +0.000 A 
ATOM     28  C   UNL     1       3.014   4.110  20.270  0.00  0.00    +0.000 A 
ATOM     29 CL   UNL     1       3.504   2.496  20.592  0.00  0.00    +0.000 Cl
ATOM     30  C   UNL     1       3.814   4.934  19.481  0.00  0.00    +0.000 A 
ATOM     31  C   UNL     1       3.411   6.244  19.231  0.00  0.00    +0.000 A 
ENDBRANCH  24  25
ENDBRANCH   4  24
TORSDOF 5
ENDMDL
MODEL 6
REMARK VINA RESULT:      -7.4      3.661      6.809
REMARK  Name = 
REMARK  6 active torsions:
REMARK  status: ('A' for Active; 'I' for Inactive)
REMARK    1  A    between atoms: C_1  and  O_2
REMARK    2  A    between atoms: O_2  and  C_3
REMARK    3  A    between atoms: C_7  and  C_8
REMARK    4  A    between atoms: C_11  and  C_12
REMARK    5  A    between atoms: C_12  and  C_13
REMARK    6  A    between atoms: N_20  and  C_21
REMARK                            x       y       z     vdW  Elec       q    Type
REMARK                         _______ _______ _______ _____ _____    ______ ____
ROOT
ATOM      1  C   UNL     1       2.358   7.315  18.979  0.00  0.00    +0.000 A 
ATOM      2  N   UNL     1       2.745   7.760  17.794  0.00  0.00    +0.000 NA
ATOM      3  C   UNL     1       2.256   9.006  17.655  0.00  0.00    +0.000 A 
ATOM      4  C   UNL     1       1.511   9.369  18.751  0.00  0.00    +0.000 A 
ATOM      5  N   UNL     1       1.620   8.312  19.656  0.00  0.00    +0.000 N 
ENDROOT
BRANCH   5   6
ATOM      6  C   UNL     1       1.176   8.243  21.059  0.00  0.00    +0.000 C 
ATOM      7  C   UNL     1       1.784   9.243  22.057  0.00  0.00    +0.000 C 
ATOM      8  C   UNL     1       1.099  10.601  22.154  0.00  0.00    +0.000 C 
ATOM      9  C   UNL     1      -0.445  10.596  22.097  0.00  0.00    +0.000 C 
ATOM     10  C   UNL     1      -1.106   9.440  21.305  0.00  0.00    +0.000 C 
ATOM     11  C   UNL     1      -0.337   8.122  21.304  0.00  0.00    +0.000 C 
ATOM     12  O   UNL     1      -0.983  10.554  23.425  0.00  0.00    +0.000 OA
ATOM     13  C   UNL     1      -1.945  11.612  23.501  0.00  0.00    +0.000 C 
ATOM     14  C   UNL     1      -2.051  12.213  22.124  0.00  0.00    +0.000 C 
ATOM     15  O   UNL     1      -0.826  11.855  21.506  0.00  0.00    +0.000 OA
ENDBRANCH   5   6
BRANCH   1  20
ATOM     16  C   UNL     1       4.595   4.299  19.352  0.00  0.00    +0.000 A 
ATOM     17  C   UNL     1       3.784   3.419  20.062  0.00  0.00    +0.000 A 
ATOM     18  C   UNL     1       2.483   3.779  20.404  0.00  0.00    +0.000 A 
ATOM     19  C   UNL     1       1.973   5.036  20.057  0.00  0.00    +0.000 A 
ATOM     20  C   UNL     1       2.789   5.967  19.408  0.00  0.00    +0.000 A 
ATOM     21  C   UNL     1       4.095   5.563  19.038  0.00  0.00    +0.000 A 
BRANCH  16  23
ATOM     22  C   UNL     1       6.653   4.616  18.189  0.00  0.00    +0.000 C 
ATOM     23  O   UNL     1       5.822   3.804  19.012  0.00  0.00    +0.000 OA
ENDBRANCH  16  23
ENDBRANCH   1  20
BRANCH   4  24
ATOM     24  C   UNL     1       0.806  10.666  18.880  0.00  0.00    +0.000 C 
BRANCH  24  25
ATOM     25  C   UNL     1      -0.578  10.763  18.273  0.00  0.00    +0.000 A 
ATOM     26  C   UNL     1      -1.182   9.711  17.571  0.00  0.00    +0.000 A 
ATOM     27  C   UNL     1      -2.483   9.845  17.084  0.00  0.00    +0.000 A 
ATOM     28  C   UNL     1      -3.196  11.021  17.317  0.00  0.00    +0.000 A 
ATOM     29 CL   UNL     1      -4.795  11.180  16.709  0.00  0.00    +0.000 Cl
ATOM     30  C   UNL     1      -2.628  12.060  18.052  0.00  0.00    +0.000 A 
ATOM     31  C   UNL     1      -1.328  11.925  18.535  0.00  0.00    +0.000 A 
ENDBRANCH  24  25
ENDBRANCH   4  24
TORSDOF 5
ENDMDL
MODEL 7
REMARK VINA RESULT:      -7.4      4.327      7.064
REMARK  Name = 
REMARK  6 active torsions:
REMARK  status: ('A' for Active; 'I' for Inactive)
REMARK    1  A    between atoms: C_1  and  O_2
REMARK    2  A    between atoms: O_2  and  C_3
REMARK    3  A    between atoms: C_7  and  C_8
REMARK    4  A    between atoms: C_11  and  C_12
REMARK    5  A    between atoms: C_12  and  C_13
REMARK    6  A    between atoms: N_20  and  C_21
REMARK                            x       y       z     vdW  Elec       q    Type
REMARK                         _______ _______ _______ _____ _____    ______ ____
ROOT
ATOM      1  C   UNL     1       2.140   6.787  19.354  0.00  0.00    +0.000 A 
ATOM      2  N   UNL     1       2.634   7.051  18.154  0.00  0.00    +0.000 NA
ATOM      3  C   UNL     1       2.396   8.350  17.899  0.00  0.00    +0.000 A 
ATOM      4  C   UNL     1       1.706   8.938  18.932  0.00  0.00    +0.000 A 
ATOM      5  N   UNL     1       1.589   7.959  19.920  0.00  0.00    +0.000 N 
ENDROOT
BRANCH   5   6
ATOM      6  C   UNL     1       1.105   8.093  21.305  0.00  0.00    +0.000 C 
ATOM      7  C   UNL     1       1.793   9.128  22.211  0.00  0.00    +0.000 C 
ATOM      8  C   UNL     1       1.257  10.553  22.137  0.00  0.00    +0.000 C 
ATOM      9  C   UNL     1      -0.277  10.703  22.024  0.00  0.00    +0.000 C 
ATOM     10  C   UNL     1      -1.039   9.543  21.337  0.00  0.00    +0.000 C 
ATOM     11  C   UNL     1      -0.418   8.159  21.506  0.00  0.00    +0.000 C 
ATOM     12  O   UNL     1      -0.849  10.865  23.328  0.00  0.00    +0.000 OA
ATOM     13  C   UNL     1      -1.693  12.021  23.254  0.00  0.00    +0.000 C 
ATOM     14  C   UNL     1      -1.698  12.473  21.818  0.00  0.00    +0.000 C 
ATOM     15  O   UNL     1      -0.504  11.922  21.287  0.00  0.00    +0.000 OA
ENDBRANCH   5   6
BRANCH   1  20
ATOM     16  C   UNL     1       3.768   3.464  20.086  0.00  0.00    +0.000 A 
ATOM     17  C   UNL     1       2.773   2.800  20.798  0.00  0.00    +0.000 A 
ATOM     18  C   UNL     1       1.542   3.411  21.024  0.00  0.00    +0.000 A 
ATOM     19  C   UNL     1       1.288   4.706  20.557  0.00  0.00    +0.000 A 
ATOM     20  C   UNL     1       2.295   5.424  19.903  0.00  0.00    +0.000 A 
ATOM     21  C   UNL     1       3.524   4.767  19.653  0.00  0.00    +0.000 A 
BRANCH  16  23
ATOM     22  C   UNL     1       4.965   1.430  20.434  0.00  0.00    +0.000 C 
ATOM     23  O   UNL     1       4.903   2.734  19.866  0.00  0.00    +0.000 OA
ENDBRANCH  16  23
ENDBRANCH   1  20
BRANCH   4  24
ATOM     24  C   UNL     1       1.258  10.350  18.931  0.00  0.00    +0.000 C 
BRANCH  24  25
ATOM     25  C   UNL     1      -0.103  10.643  18.338  0.00  0.00    +0.000 A 
ATOM     26  C   UNL     1      -0.673  11.923  18.322  0.00  0.00    +0.000 A 
ATOM     27  C   UNL     1      -1.908  12.137  17.709  0.00  0.00    +0.000 A 
ATOM     28  C   UNL     1      -2.570  11.077  17.089  0.00  0.00    +0.000 A 
ATOM     29 CL   UNL     1      -4.094  11.348  16.343  0.00  0.00    +0.000 Cl
ATOM     30  C   UNL     1      -1.999   9.807  17.056  0.00  0.00    +0.000 A 
ATOM     31  C   UNL     1      -0.766   9.595  17.670  0.00  0.00    +0.000 A 
ENDBRANCH  24  25
ENDBRANCH   4  24
TORSDOF 5
ENDMDL
MODEL 8
REMARK VINA RESULT:      -7.4      5.736      9.606
REMARK  Name = 
REMARK  6 active torsions:
REMARK  status: ('A' for Active; 'I' for Inactive)
REMARK    1  A    between atoms: C_1  and  O_2
REMARK    2  A    between atoms: O_2  and  C_3
REMARK    3  A    between atoms: C_7  and  C_8
REMARK    4  A    between atoms: C_11  and  C_12
REMARK    5  A    between atoms: C_12  and  C_13
REMARK    6  A    between atoms: N_20  and  C_21
REMARK                            x       y       z     vdW  Elec       q    Type
REMARK                         _______ _______ _______ _____ _____    ______ ____
ROOT
ATOM      1  C   UNL     1       0.600   9.754  20.607  0.00  0.00    +0.000 A 
ATOM      2  N   UNL     1       0.050   9.243  21.698  0.00  0.00    +0.000 NA
ATOM      3  C   UNL     1      -0.594  10.242  22.328  0.00  0.00    +0.000 A 
ATOM      4  C   UNL     1      -0.435  11.432  21.658  0.00  0.00    +0.000 A 
ATOM      5  N   UNL     1       0.280  11.125  20.498  0.00  0.00    +0.000 N 
ENDROOT
BRANCH   5   6
ATOM      6  C   UNL     1       0.569  11.981  19.335  0.00  0.00    +0.000 C 
ATOM      7  C   UNL     1      -0.557  12.889  18.811  0.00  0.00    +0.000 C 
ATOM      8  C   UNL     1      -0.694  14.251  19.480  0.00  0.00    +0.000 C 
ATOM      9  C   UNL     1       0.623  14.981  19.824  0.00  0.00    +0.000 C 
ATOM     10  C   UNL     1       1.858  14.089  20.109  0.00  0.00    +0.000 C 
ATOM     11  C   UNL     1       1.894  12.761  19.358  0.00  0.00    +0.000 C 
ATOM     12  O   UNL     1       0.985  15.866  18.756  0.00  0.00    +0.000 OA
ATOM     13  C   UNL     1       1.242  17.139  19.360  0.00  0.00    +0.000 C 
ATOM     14  C   UNL     1       1.138  16.950  20.851  0.00  0.00    +0.000 C 
ATOM     15  O   UNL     1       0.340  15.785  20.987  0.00  0.00    +0.000 OA
ENDBRANCH   5   6
BRANCH   1  20
ATOM     16  C   UNL     1       2.596   6.746  19.509  0.00  0.00    +0.000 A 
ATOM     17  C   UNL     1       2.858   7.040  18.174  0.00  0.00    +0.000 A 
ATOM     18  C   UNL     1       2.419   8.239  17.617  0.00  0.00    +0.000 A 
ATOM     19  C   UNL     1       1.691   9.159  18.381  0.00  0.00    +0.000 A 
ATOM     20  C   UNL     1       1.349   8.857  19.702  0.00  0.00    +0.000 A 
ATOM     21  C   UNL     1       1.840   7.649  20.256  0.00  0.00    +0.000 A 
BRANCH  16  23
ATOM     22  C   UNL     1       4.317   5.107  19.308  0.00  0.00    +0.000 C 
ATOM     23  O   UNL     1       3.141   5.576  19.959  0.00  0.00    +0.000 OA
ENDBRANCH  16  23
ENDBRANCH   1  20
BRANCH   4  24
ATOM     24  C   UNL     1      -0.989  12.724  22.123  0.00  0.00    +0.000 C 
BRANCH  24  25
ATOM     25  C   UNL     1      -2.453  12.750  22.508  0.00  0.00    +0.000 A 
ATOM     26  C   UNL     1      -2.895  12.876  23.832  0.00  0.00    +0.000 A 
ATOM     27  C   UNL     1      -4.260  12.949  24.114  0.00  0.00    +0.000 A 
ATOM     28  C   UNL     1      -5.189  12.920  23.074  0.00  0.00    +0.000 A 
ATOM     29 CL   UNL     1      -6.867  13.004  23.432  0.00  0.00    +0.000 Cl
ATOM     30  C   UNL     1      -4.766  12.840  21.749  0.00  0.00    +0.000 A 
ATOM     31  C   UNL     1      -3.403  12.765  21.469  0.00  0.00    +0.000 A 
ENDBRANCH  24  25
ENDBRANCH   4  24
TORSDOF 5
ENDMDL
MODEL 9
REMARK VINA RESULT:      -7.4      5.526      9.420
REMARK  Name = 
REMARK  6 active torsions:
REMARK  status: ('A' for Active; 'I' for Inactive)
REMARK    1  A    between atoms: C_1  and  O_2
REMARK    2  A    between atoms: O_2  and  C_3
REMARK    3  A    between atoms: C_7  and  C_8
REMARK    4  A    between atoms: C_11  and  C_12
REMARK    5  A    between atoms: C_12  and  C_13
REMARK    6  A    between atoms: N_20  and  C_21
REMARK                            x       y       z     vdW  Elec       q    Type
REMARK                         _______ _______ _______ _____ _____    ______ ____
ROOT
ATOM      1  C   UNL     1       0.683   9.400  20.755  0.00  0.00    +0.000 A 
ATOM      2  N   UNL     1      -0.046   8.884  21.733  0.00  0.00    +0.000 NA
ATOM      3  C   UNL     1      -0.653   9.906  22.362  0.00  0.00    +0.000 A 
ATOM      4  C   UNL     1      -0.290  11.111  21.811  0.00  0.00    +0.000 A 
ATOM      5  N   UNL     1       0.524  10.803  20.719  0.00  0.00    +0.000 N 
ENDROOT
BRANCH   5   6
ATOM      6  C   UNL     1       1.041  11.696  19.668  0.00  0.00    +0.000 C 
ATOM      7  C   UNL     1       0.082  12.108  18.538  0.00  0.00    +0.000 C 
ATOM      8  C   UNL     1      -0.797  13.324  18.808  0.00  0.00    +0.000 C 
ATOM      9  C   UNL     1      -0.129  14.499  19.557  0.00  0.00    +0.000 C 
ATOM     10  C   UNL     1       1.028  14.139  20.522  0.00  0.00    +0.000 C 
ATOM     11  C   UNL     1       1.853  12.917  20.129  0.00  0.00    +0.000 C 
ATOM     12  O   UNL     1       0.391  15.446  18.615  0.00  0.00    +0.000 OA
ATOM     13  C   UNL     1      -0.107  16.728  19.020  0.00  0.00    +0.000 C 
ATOM     14  C   UNL     1      -0.848  16.525  20.316  0.00  0.00    +0.000 C 
ATOM     15  O   UNL     1      -1.182  15.147  20.300  0.00  0.00    +0.000 OA
ENDBRANCH   5   6
BRANCH   1  20
ATOM     16  C   UNL     1       2.568   6.309  19.692  0.00  0.00    +0.000 A 
ATOM     17  C   UNL     1       2.940   6.625  18.389  0.00  0.00    +0.000 A 
ATOM     18  C   UNL     1       2.612   7.865  17.845  0.00  0.00    +0.000 A 
ATOM     19  C   UNL     1       1.889   8.806  18.588  0.00  0.00    +0.000 A 
ATOM     20  C   UNL     1       1.439   8.486  19.872  0.00  0.00    +0.000 A 
ATOM     21  C   UNL     1       1.818   7.234  20.418  0.00  0.00    +0.000 A 
BRANCH  16  23
ATOM     22  C   UNL     1       2.202   4.410  21.089  0.00  0.00    +0.000 C 
ATOM     23  O   UNL     1       3.010   5.095  20.138  0.00  0.00    +0.000 OA
ENDBRANCH  16  23
ENDBRANCH   1  20
BRANCH   4  24
ATOM     24  C   UNL     1      -0.758  12.424  22.312  0.00  0.00    +0.000 C 
BRANCH  24  25
ATOM     25  C   UNL     1      -2.250  12.602  22.493  0.00  0.00    +0.000 A 
ATOM     26  C   UNL     1      -3.154  12.632  21.423  0.00  0.00    +0.000 A 
ATOM     27  C   UNL     1      -4.524  12.743  21.661  0.00  0.00    +0.000 A 
ATOM     28  C   UNL     1      -5.001  12.801  22.971  0.00  0.00    +0.000 A 
ATOM     29 CL   UNL     1      -6.689  12.944  23.254  0.00  0.00    +0.000 Cl
ATOM     30  C   UNL     1      -4.121  12.727  24.049  0.00  0.00    +0.000 A 
ATOM     31  C   UNL     1      -2.753  12.618  23.808  0.00  0.00    +0.000 A 
ENDBRANCH  24  25
ENDBRANCH   4  24
TORSDOF 5
ENDMDL
