MODEL 1
REMARK VINA RESULT:      -8.8      0.000      0.000
REMARK  Name = 
REMARK  3 active torsions:
REMARK  status: ('A' for Active; 'I' for Inactive)
REMARK    1  A    between atoms: C_2  and  C_3
REMARK    2  A    between atoms: C_6  and  C_7
REMARK    3  A    between atoms: C_17  and  C_18
REMARK                            x       y       z     vdW  Elec       q    Type
REMARK                         _______ _______ _______ _____ _____    ______ ____
ROOT
ATOM      1  C   UNL     1       6.726   4.982  14.860  0.00  0.00    +0.000 A 
ATOM      2  C   UNL     1       5.422   4.506  14.763  0.00  0.00    +0.000 A 
ATOM      3  C   UNL     1       4.637   4.421  15.907  0.00  0.00    +0.000 A 
ATOM      4  C   UNL     1       5.113   4.894  17.148  0.00  0.00    +0.000 A 
ATOM      5  C   UNL     1       6.459   5.249  17.296  0.00  0.00    +0.000 A 
ATOM      6  C   UNL     1       7.250   5.298  16.122  0.00  0.00    +0.000 A 
ENDROOT
BRANCH   4   7
ATOM      7  C   UNL     1       4.050   5.429  18.019  0.00  0.00    +0.000 C 
ATOM      8  N   UNL     1       3.634   6.646  18.149  0.00  0.00    +0.000 NA
ATOM      9  O   UNL     1       2.564   6.592  19.111  0.00  0.00    +0.000 OA
ATOM     10  C   UNL     1       2.771   5.381  19.857  0.00  0.00    +0.000 C 
ATOM     11  C   UNL     1       1.579   4.928  20.692  0.00  0.00    +0.000 C 
ATOM     12  C   UNL     1       1.420   3.403  20.799  0.00  0.00    +0.000 C 
ATOM     13  C   UNL     1       0.712   2.794  19.585  0.00  0.00    +0.000 C 
ATOM     14  C   UNL     1       1.635   2.535  18.405  0.00  0.00    +0.000 C 
ATOM     15  C   UNL     1       2.231   3.813  17.844  0.00  0.00    +0.000 C 
ATOM     16  C   UNL     1       3.256   4.425  18.801  0.00  0.00    +0.000 C 
ENDBRANCH   4   7
BRANCH   5  17
ATOM     17  C   UNL     1       7.123   5.663  18.587  0.00  0.00    +0.000 C 
ATOM     18  F   UNL     1       6.406   5.518  19.722  0.00  0.00    +0.000 F 
ATOM     19  F   UNL     1       8.263   4.935  18.793  0.00  0.00    +0.000 F 
ATOM     20  F   UNL     1       7.532   6.962  18.549  0.00  0.00    +0.000 F 
ENDBRANCH   5  17
BRANCH   1  22
ATOM     21  N   UNL     1       8.091   5.370  12.689  0.00  0.00    +0.000 NA
ATOM     22  C   UNL     1       7.497   5.196  13.672  0.00  0.00    +0.000 C 
ENDBRANCH   1  22
TORSDOF 3
ENDMDL
MODEL 2
REMARK VINA RESULT:      -8.0      1.967      2.349
REMARK  Name = 
REMARK  3 active torsions:
REMARK  status: ('A' for Active; 'I' for Inactive)
REMARK    1  A    between atoms: C_2  and  C_3
REMARK    2  A    between atoms: C_6  and  C_7
REMARK    3  A    between atoms: C_17  and  C_18
REMARK                            x       y       z     vdW  Elec       q    Type
REMARK                         _______ _______ _______ _____ _____    ______ ____
ROOT
ATOM      1  C   UNL     1       6.483   4.865  14.890  0.00  0.00    +0.000 A 
ATOM      2  C   UNL     1       6.134   3.536  15.112  0.00  0.00    +0.000 A 
ATOM      3  C   UNL     1       5.248   3.223  16.136  0.00  0.00    +0.000 A 
ATOM      4  C   UNL     1       4.630   4.239  16.895  0.00  0.00    +0.000 A 
ATOM      5  C   UNL     1       5.065   5.564  16.782  0.00  0.00    +0.000 A 
ATOM      6  C   UNL     1       5.993   5.857  15.751  0.00  0.00    +0.000 A 
ENDROOT
BRANCH   4   7
ATOM      7  C   UNL     1       3.275   3.885  17.358  0.00  0.00    +0.000 C 
ATOM      8  N   UNL     1       2.239   3.537  16.668  0.00  0.00    +0.000 NA
ATOM      9  O   UNL     1       1.199   3.279  17.629  0.00  0.00    +0.000 OA
ATOM     10  C   UNL     1       1.580   3.993  18.817  0.00  0.00    +0.000 C 
ATOM     11  C   UNL     1       0.822   3.593  20.078  0.00  0.00    +0.000 C 
ATOM     12  C   UNL     1       1.656   3.653  21.367  0.00  0.00    +0.000 C 
ATOM     13  C   UNL     1       2.520   2.406  21.575  0.00  0.00    +0.000 C 
ATOM     14  C   UNL     1       3.837   2.440  20.816  0.00  0.00    +0.000 C 
ATOM     15  C   UNL     1       3.638   2.469  19.312  0.00  0.00    +0.000 C 
ATOM     16  C   UNL     1       3.073   3.811  18.843  0.00  0.00    +0.000 C 
ENDBRANCH   4   7
BRANCH   5  17
ATOM     17  C   UNL     1       4.572   6.727  17.609  0.00  0.00    +0.000 C 
ATOM     18  F   UNL     1       3.316   7.162  17.372  0.00  0.00    +0.000 F 
ATOM     19  F   UNL     1       4.592   6.409  18.939  0.00  0.00    +0.000 F 
ATOM     20  F   UNL     1       5.388   7.811  17.490  0.00  0.00    +0.000 F 
ENDBRANCH   5  17
BRANCH   1  22
ATOM     21  N   UNL     1       7.921   5.472  12.818  0.00  0.00    +0.000 NA
ATOM     22  C   UNL     1       7.290   5.211  13.758  0.00  0.00    +0.000 C 
ENDBRANCH   1  22
TORSDOF 3
ENDMDL
MODEL 3
REMARK VINA RESULT:      -7.9      0.909      1.137
REMARK  Name = 
REMARK  3 active torsions:
REMARK  status: ('A' for Active; 'I' for Inactive)
REMARK    1  A    between atoms: C_2  and  C_3
REMARK    2  A    between atoms: C_6  and  C_7
REMARK    3  A    between atoms: C_17  and  C_18
REMARK                            x       y       z     vdW  Elec       q    Type
REMARK                         _______ _______ _______ _____ _____    ______ ____
ROOT
ATOM      1  C   UNL     1       6.308   4.503  14.504  0.00  0.00    +0.000 A 
ATOM      2  C   UNL     1       5.223   3.739  14.924  0.00  0.00    +0.000 A 
ATOM      3  C   UNL     1       4.649   3.990  16.165  0.00  0.00    +0.000 A 
ATOM      4  C   UNL     1       5.093   5.065  16.963  0.00  0.00    +0.000 A 
ATOM      5  C   UNL     1       6.262   5.756  16.626  0.00  0.00    +0.000 A 
ATOM      6  C   UNL     1       6.850   5.462  15.370  0.00  0.00    +0.000 A 
ENDROOT
BRANCH   4   7
ATOM      7  C   UNL     1       4.027   5.664  17.788  0.00  0.00    +0.000 C 
ATOM      8  N   UNL     1       3.549   6.865  17.762  0.00  0.00    +0.000 NA
ATOM      9  O   UNL     1       2.510   6.894  18.758  0.00  0.00    +0.000 OA
ATOM     10  C   UNL     1       2.802   5.811  19.657  0.00  0.00    +0.000 C 
ATOM     11  C   UNL     1       1.659   5.421  20.587  0.00  0.00    +0.000 C 
ATOM     12  C   UNL     1       1.584   3.921  20.909  0.00  0.00    +0.000 C 
ATOM     13  C   UNL     1       0.878   3.113  19.816  0.00  0.00    +0.000 C 
ATOM     14  C   UNL     1       1.781   2.737  18.653  0.00  0.00    +0.000 C 
ATOM     15  C   UNL     1       2.293   3.952  17.900  0.00  0.00    +0.000 C 
ATOM     16  C   UNL     1       3.308   4.742  18.728  0.00  0.00    +0.000 C 
ENDBRANCH   4   7
BRANCH   5  17
ATOM     17  C   UNL     1       6.909   6.846  17.446  0.00  0.00    +0.000 C 
ATOM     18  F   UNL     1       6.225   8.003  17.579  0.00  0.00    +0.000 F 
ATOM     19  F   UNL     1       7.129   6.416  18.725  0.00  0.00    +0.000 F 
ATOM     20  F   UNL     1       8.139   7.176  16.964  0.00  0.00    +0.000 F 
ENDBRANCH   5  17
BRANCH   1  22
ATOM     21  N   UNL     1       7.266   4.235  12.108  0.00  0.00    +0.000 NA
ATOM     22  C   UNL     1       6.823   4.340  13.177  0.00  0.00    +0.000 C 
ENDBRANCH   1  22
TORSDOF 3
ENDMDL
MODEL 4
REMARK VINA RESULT:      -7.6      2.675      6.296
REMARK  Name = 
REMARK  3 active torsions:
REMARK  status: ('A' for Active; 'I' for Inactive)
REMARK    1  A    between atoms: C_2  and  C_3
REMARK    2  A    between atoms: C_6  and  C_7
REMARK    3  A    between atoms: C_17  and  C_18
REMARK                            x       y       z     vdW  Elec       q    Type
REMARK                         _______ _______ _______ _____ _____    ______ ____
ROOT
ATOM      1  C   UNL     1       2.378   3.945  18.607  0.00  0.00    +0.000 A 
ATOM      2  C   UNL     1       2.898   2.917  17.827  0.00  0.00    +0.000 A 
ATOM      3  C   UNL     1       3.847   3.209  16.854  0.00  0.00    +0.000 A 
ATOM      4  C   UNL     1       4.354   4.516  16.707  0.00  0.00    +0.000 A 
ATOM      5  C   UNL     1       3.753   5.584  17.382  0.00  0.00    +0.000 A 
ATOM      6  C   UNL     1       2.765   5.268  18.348  0.00  0.00    +0.000 A 
ENDROOT
BRANCH   4   7
ATOM      7  C   UNL     1       5.757   4.555  16.250  0.00  0.00    +0.000 C 
ATOM      8  N   UNL     1       6.843   4.379  16.928  0.00  0.00    +0.000 NA
ATOM      9  O   UNL     1       7.919   4.498  15.979  0.00  0.00    +0.000 OA
ATOM     10  C   UNL     1       7.383   5.244  14.874  0.00  0.00    +0.000 C 
ATOM     11  C   UNL     1       8.219   5.197  13.600  0.00  0.00    +0.000 C 
ATOM     12  C   UNL     1       7.400   5.220  12.300  0.00  0.00    +0.000 C 
ATOM     13  C   UNL     1       6.861   3.840  11.914  0.00  0.00    +0.000 C 
ATOM     14  C   UNL     1       5.571   3.465  12.626  0.00  0.00    +0.000 C 
ATOM     15  C   UNL     1       5.751   3.350  14.129  0.00  0.00    +0.000 C 
ATOM     16  C   UNL     1       5.977   4.719  14.776  0.00  0.00    +0.000 C 
ENDBRANCH   4   7
BRANCH   5  17
ATOM     17  C   UNL     1       4.120   7.041  17.232  0.00  0.00    +0.000 C 
ATOM     18  F   UNL     1       5.316   7.428  17.727  0.00  0.00    +0.000 F 
ATOM     19  F   UNL     1       4.153   7.392  15.910  0.00  0.00    +0.000 F 
ATOM     20  F   UNL     1       3.185   7.856  17.794  0.00  0.00    +0.000 F 
ENDBRANCH   5  17
BRANCH   1  22
ATOM     21  N   UNL     1       0.799   3.422  20.598  0.00  0.00    +0.000 NA
ATOM     22  C   UNL     1       1.500   3.640  19.697  0.00  0.00    +0.000 C 
ENDBRANCH   1  22
TORSDOF 3
ENDMDL
MODEL 5
REMARK VINA RESULT:      -7.3      2.788      3.600
REMARK  Name = 
REMARK  3 active torsions:
REMARK  status: ('A' for Active; 'I' for Inactive)
REMARK    1  A    between atoms: C_2  and  C_3
REMARK    2  A    between atoms: C_6  and  C_7
REMARK    3  A    between atoms: C_17  and  C_18
REMARK                            x       y       z     vdW  Elec       q    Type
REMARK                         _______ _______ _______ _____ _____    ______ ____
ROOT
ATOM      1  C   UNL     1       6.408   7.201  17.263  0.00  0.00    +0.000 A 
ATOM      2  C   UNL     1       5.166   7.322  17.878  0.00  0.00    +0.000 A 
ATOM      3  C   UNL     1       4.173   6.388  17.605  0.00  0.00    +0.000 A 
ATOM      4  C   UNL     1       4.435   5.272  16.783  0.00  0.00    +0.000 A 
ATOM      5  C   UNL     1       5.625   5.203  16.050  0.00  0.00    +0.000 A 
ATOM      6  C   UNL     1       6.612   6.183  16.321  0.00  0.00    +0.000 A 
ENDROOT
BRANCH   4   7
ATOM      7  C   UNL     1       3.661   4.073  17.156  0.00  0.00    +0.000 C 
ATOM      8  N   UNL     1       3.729   2.874  16.678  0.00  0.00    +0.000 NA
ATOM      9  O   UNL     1       2.771   2.101  17.425  0.00  0.00    +0.000 OA
ATOM     10  C   UNL     1       1.840   3.053  17.968  0.00  0.00    +0.000 C 
ATOM     11  C   UNL     1       0.945   2.514  19.078  0.00  0.00    +0.000 C 
ATOM     12  C   UNL     1       0.596   3.540  20.167  0.00  0.00    +0.000 C 
ATOM     13  C   UNL     1       1.696   3.685  21.222  0.00  0.00    +0.000 C 
ATOM     14  C   UNL     1       2.819   4.624  20.810  0.00  0.00    +0.000 C 
ATOM     15  C   UNL     1       3.577   4.122  19.594  0.00  0.00    +0.000 C 
ATOM     16  C   UNL     1       2.729   4.213  18.323  0.00  0.00    +0.000 C 
ENDBRANCH   4   7
BRANCH   5  17
ATOM     17  C   UNL     1       5.984   4.127  15.053  0.00  0.00    +0.000 C 
ATOM     18  F   UNL     1       6.134   2.873  15.530  0.00  0.00    +0.000 F 
ATOM     19  F   UNL     1       5.019   4.027  14.090  0.00  0.00    +0.000 F 
ATOM     20  F   UNL     1       7.130   4.428  14.380  0.00  0.00    +0.000 F 
ENDBRANCH   5  17
BRANCH   1  22
ATOM     21  N   UNL     1       8.319   8.811  17.958  0.00  0.00    +0.000 NA
ATOM     22  C   UNL     1       7.476   8.079  17.636  0.00  0.00    +0.000 C 
ENDBRANCH   1  22
TORSDOF 3
ENDMDL
MODEL 6
REMARK VINA RESULT:      -6.8      2.461      3.089
REMARK  Name = 
REMARK  3 active torsions:
REMARK  status: ('A' for Active; 'I' for Inactive)
REMARK    1  A    between atoms: C_2  and  C_3
REMARK    2  A    between atoms: C_6  and  C_7
REMARK    3  A    between atoms: C_17  and  C_18
REMARK                            x       y       z     vdW  Elec       q    Type
REMARK                         _______ _______ _______ _____ _____    ______ ____
ROOT
ATOM      1  C   UNL     1       6.096   5.729  16.676  0.00  0.00    +0.000 A 
ATOM      2  C   UNL     1       6.361   5.073  17.874  0.00  0.00    +0.000 A 
ATOM      3  C   UNL     1       5.532   5.289  18.970  0.00  0.00    +0.000 A 
ATOM      4  C   UNL     1       4.378   6.091  18.857  0.00  0.00    +0.000 A 
ATOM      5  C   UNL     1       4.167   6.864  17.709  0.00  0.00    +0.000 A 
ATOM      6  C   UNL     1       5.043   6.652  16.615  0.00  0.00    +0.000 A 
ENDROOT
BRANCH   4   7
ATOM      7  C   UNL     1       3.275   5.662  19.738  0.00  0.00    +0.000 C 
ATOM      8  N   UNL     1       2.565   6.363  20.560  0.00  0.00    +0.000 NA
ATOM      9  O   UNL     1       1.616   5.445  21.136  0.00  0.00    +0.000 OA
ATOM     10  C   UNL     1       2.186   4.136  20.963  0.00  0.00    +0.000 C 
ATOM     11  C   UNL     1       1.215   2.980  21.174  0.00  0.00    +0.000 C 
ATOM     12  C   UNL     1       1.468   1.764  20.270  0.00  0.00    +0.000 C 
ATOM     13  C   UNL     1       0.862   1.925  18.873  0.00  0.00    +0.000 C 
ATOM     14  C   UNL     1       1.736   2.719  17.915  0.00  0.00    +0.000 C 
ATOM     15  C   UNL     1       1.935   4.154  18.366  0.00  0.00    +0.000 C 
ATOM     16  C   UNL     1       2.828   4.237  19.606  0.00  0.00    +0.000 C 
ENDBRANCH   4   7
BRANCH   5  17
ATOM     17  C   UNL     1       3.039   7.846  17.503  0.00  0.00    +0.000 C 
ATOM     18  F   UNL     1       2.952   8.874  18.374  0.00  0.00    +0.000 F 
ATOM     19  F   UNL     1       3.136   8.433  16.271  0.00  0.00    +0.000 F 
ATOM     20  F   UNL     1       1.826   7.227  17.509  0.00  0.00    +0.000 F 
ENDBRANCH   5  17
BRANCH   1  22
ATOM     21  N   UNL     1       7.490   5.197  14.553  0.00  0.00    +0.000 NA
ATOM     22  C   UNL     1       6.863   5.415  15.507  0.00  0.00    +0.000 C 
ENDBRANCH   1  22
TORSDOF 3
ENDMDL
MODEL 7
REMARK VINA RESULT:      -6.8      3.061      6.590
REMARK  Name = 
REMARK  3 active torsions:
REMARK  status: ('A' for Active; 'I' for Inactive)
REMARK    1  A    between atoms: C_2  and  C_3
REMARK    2  A    between atoms: C_6  and  C_7
REMARK    3  A    between atoms: C_17  and  C_18
REMARK                            x       y       z     vdW  Elec       q    Type
REMARK                         _______ _______ _______ _____ _____    ______ ____
ROOT
ATOM      1  C   UNL     1       1.200   7.530  20.830  0.00  0.00    +0.000 A 
ATOM      2  C   UNL     1       1.990   8.035  19.801  0.00  0.00    +0.000 A 
ATOM      3  C   UNL     1       2.837   7.180  19.106  0.00  0.00    +0.000 A 
ATOM      4  C   UNL     1       2.842   5.794  19.369  0.00  0.00    +0.000 A 
ATOM      5  C   UNL     1       2.162   5.287  20.482  0.00  0.00    +0.000 A 
ATOM      6  C   UNL     1       1.328   6.183  21.197  0.00  0.00    +0.000 A 
ENDROOT
BRANCH   4   7
ATOM      7  C   UNL     1       3.147   4.972  18.183  0.00  0.00    +0.000 C 
ATOM      8  N   UNL     1       2.349   4.272  17.445  0.00  0.00    +0.000 NA
ATOM      9  O   UNL     1       3.173   3.700  16.413  0.00  0.00    +0.000 OA
ATOM     10  C   UNL     1       4.514   3.715  16.931  0.00  0.00    +0.000 C 
ATOM     11  C   UNL     1       5.607   3.486  15.894  0.00  0.00    +0.000 C 
ATOM     12  C   UNL     1       6.907   4.261  16.158  0.00  0.00    +0.000 C 
ATOM     13  C   UNL     1       6.845   5.711  15.670  0.00  0.00    +0.000 C 
ATOM     14  C   UNL     1       6.174   6.659  16.651  0.00  0.00    +0.000 C 
ATOM     15  C   UNL     1       4.714   6.315  16.883  0.00  0.00    +0.000 C 
ATOM     16  C   UNL     1       4.559   5.019  17.681  0.00  0.00    +0.000 C 
ENDBRANCH   4   7
BRANCH   5  17
ATOM     17  C   UNL     1       2.174   3.849  20.943  0.00  0.00    +0.000 C 
ATOM     18  F   UNL     1       3.145   3.053  20.446  0.00  0.00    +0.000 F 
ATOM     19  F   UNL     1       2.322   3.784  22.301  0.00  0.00    +0.000 F 
ATOM     20  F   UNL     1       0.991   3.228  20.682  0.00  0.00    +0.000 F 
ENDBRANCH   5  17
BRANCH   1  22
ATOM     21  N   UNL     1      -0.578   9.027  21.982  0.00  0.00    +0.000 NA
ATOM     22  C   UNL     1       0.230   8.373  21.463  0.00  0.00    +0.000 C 
ENDBRANCH   1  22
TORSDOF 3
ENDMDL
MODEL 8
REMARK VINA RESULT:      -6.7      6.417      7.992
REMARK  Name = 
REMARK  3 active torsions:
REMARK  status: ('A' for Active; 'I' for Inactive)
REMARK    1  A    between atoms: C_2  and  C_3
REMARK    2  A    between atoms: C_6  and  C_7
REMARK    3  A    between atoms: C_17  and  C_18
REMARK                            x       y       z     vdW  Elec       q    Type
REMARK                         _______ _______ _______ _____ _____    ______ ____
ROOT
ATOM      1  C   UNL     1       2.528   8.313  18.200  0.00  0.00    +0.000 A 
ATOM      2  C   UNL     1       2.123   9.530  17.660  0.00  0.00    +0.000 A 
ATOM      3  C   UNL     1       1.253  10.342  18.379  0.00  0.00    +0.000 A 
ATOM      4  C   UNL     1       0.847   9.991  19.683  0.00  0.00    +0.000 A 
ATOM      5  C   UNL     1       1.131   8.718  20.190  0.00  0.00    +0.000 A 
ATOM      6  C   UNL     1       1.994   7.893  19.426  0.00  0.00    +0.000 A 
ENDROOT
BRANCH   4   7
ATOM      7  C   UNL     1       0.601  11.156  20.555  0.00  0.00    +0.000 C 
ATOM      8  N   UNL     1       1.441  12.019  21.024  0.00  0.00    +0.000 NA
ATOM      9  O   UNL     1       0.655  12.952  21.788  0.00  0.00    +0.000 OA
ATOM     10  C   UNL     1      -0.560  12.259  22.120  0.00  0.00    +0.000 C 
ATOM     11  C   UNL     1      -1.691  13.149  22.622  0.00  0.00    +0.000 C 
ATOM     12  C   UNL     1      -3.096  12.685  22.209  0.00  0.00    +0.000 C 
ATOM     13  C   UNL     1      -3.474  13.123  20.792  0.00  0.00    +0.000 C 
ATOM     14  C   UNL     1      -2.939  12.206  19.704  0.00  0.00    +0.000 C 
ATOM     15  C   UNL     1      -1.422  12.184  19.659  0.00  0.00    +0.000 C 
ATOM     16  C   UNL     1      -0.832  11.463  20.873  0.00  0.00    +0.000 C 
ENDBRANCH   4   7
BRANCH   5  17
ATOM     17  C   UNL     1       0.664   8.174  21.519  0.00  0.00    +0.000 C 
ATOM     18  F   UNL     1       1.053   8.841  22.627  0.00  0.00    +0.000 F 
ATOM     19  F   UNL     1      -0.702   8.159  21.575  0.00  0.00    +0.000 F 
ATOM     20  F   UNL     1       1.042   6.877  21.693  0.00  0.00    +0.000 F 
ENDBRANCH   5  17
BRANCH   1  22
ATOM     21  N   UNL     1       4.328   6.921  16.954  0.00  0.00    +0.000 NA
ATOM     22  C   UNL     1       3.523   7.532  17.528  0.00  0.00    +0.000 C 
ENDBRANCH   1  22
TORSDOF 3
ENDMDL
MODEL 9
REMARK VINA RESULT:      -6.7      2.731      6.234
REMARK  Name = 
REMARK  3 active torsions:
REMARK  status: ('A' for Active; 'I' for Inactive)
REMARK    1  A    between atoms: C_2  and  C_3
REMARK    2  A    between atoms: C_6  and  C_7
REMARK    3  A    between atoms: C_17  and  C_18
REMARK                            x       y       z     vdW  Elec       q    Type
REMARK                         _______ _______ _______ _____ _____    ______ ____
ROOT
ATOM      1  C   UNL     1       1.534   3.618  20.514  0.00  0.00    +0.000 A 
ATOM      2  C   UNL     1       1.851   3.094  19.265  0.00  0.00    +0.000 A 
ATOM      3  C   UNL     1       2.215   3.952  18.234  0.00  0.00    +0.000 A 
ATOM      4  C   UNL     1       2.353   5.337  18.461  0.00  0.00    +0.000 A 
ATOM      5  C   UNL     1       1.911   5.901  19.664  0.00  0.00    +0.000 A 
ATOM      6  C   UNL     1       1.514   5.009  20.691  0.00  0.00    +0.000 A 
ENDROOT
BRANCH   4   7
ATOM      7  C   UNL     1       3.387   5.970  17.620  0.00  0.00    +0.000 C 
ATOM      8  N   UNL     1       3.371   7.121  17.031  0.00  0.00    +0.000 NA
ATOM      9  O   UNL     1       4.646   7.240  16.374  0.00  0.00    +0.000 OA
ATOM     10  C   UNL     1       5.132   5.896  16.219  0.00  0.00    +0.000 C 
ATOM     11  C   UNL     1       6.612   5.784  15.870  0.00  0.00    +0.000 C 
ATOM     12  C   UNL     1       7.318   4.562  16.477  0.00  0.00    +0.000 C 
ATOM     13  C   UNL     1       7.750   4.785  17.929  0.00  0.00    +0.000 C 
ATOM     14  C   UNL     1       6.641   4.547  18.941  0.00  0.00    +0.000 C 
ATOM     15  C   UNL     1       5.487   5.520  18.776  0.00  0.00    +0.000 C 
ATOM     16  C   UNL     1       4.691   5.240  17.500  0.00  0.00    +0.000 C 
ENDBRANCH   4   7
BRANCH   5  17
ATOM     17  C   UNL     1       1.896   7.374  19.993  0.00  0.00    +0.000 C 
ATOM     18  F   UNL     1       1.290   8.196  19.109  0.00  0.00    +0.000 F 
ATOM     19  F   UNL     1       1.251   7.592  21.179  0.00  0.00    +0.000 F 
ATOM     20  F   UNL     1       3.155   7.861  20.177  0.00  0.00    +0.000 F 
ENDBRANCH   5  17
BRANCH   1  22
ATOM     21  N   UNL     1       1.091   2.050  22.533  0.00  0.00    +0.000 NA
ATOM     22  C   UNL     1       1.286   2.737  21.616  0.00  0.00    +0.000 C 
ENDBRANCH   1  22
TORSDOF 3
ENDMDL
