MODEL 1
REMARK VINA RESULT:      -8.7      0.000      0.000
REMARK  Name = 
REMARK  7 active torsions:
REMARK  status: ('A' for Active; 'I' for Inactive)
REMARK    1  A    between atoms: C_2  and  O_20
REMARK    2  A    between atoms: N_3  and  C_4
REMARK    3  A    between atoms: C_8  and  C_9
REMARK    4  A    between atoms: C_9  and  C_10
REMARK    5  A    between atoms: C_10  and  C_11
REMARK    6  A    between atoms: O_20  and  C_21
REMARK    7  A    between atoms: C_21  and  C_22
REMARK                            x       y       z     vdW  Elec       q    Type
REMARK                         _______ _______ _______ _____ _____    ______ ____
ROOT
ATOM      1  C   UNL     1       7.288   6.071  17.175  0.00  0.00    +0.000 C 
ATOM      2  C   UNL     1       7.434   4.699  17.814  0.00  0.00    +0.000 C 
ATOM      3  O   UNL     1       8.456   4.021  17.759  0.00  0.00    +0.000 OA
ATOM      4  N   UNL     1       6.429   4.332  18.674  0.00  0.00    +0.000 N 
ATOM      5  C   UNL     1       5.064   4.715  18.449  0.00  0.00    +0.000 C 
ATOM      6  N   UNL     1       4.981   6.064  17.965  0.00  0.00    +0.000 N 
ATOM      7  C   UNL     1       5.833   6.443  16.951  0.00  0.00    +0.000 C 
ATOM      8  O   UNL     1       5.422   7.149  16.035  0.00  0.00    +0.000 OA
ATOM      9  H   UNL     1       6.611   3.448  19.136  0.00  0.00    +0.000 HD
ATOM     10  H   UNL     1       4.043   6.422  17.810  0.00  0.00    +0.000 HD
ENDROOT
BRANCH   1  13
ATOM     11  O   UNL     1       8.181   8.763  16.704  0.00  0.00    +0.000 OA
ATOM     12  C   UNL     1       8.178   8.293  17.827  0.00  0.00    +0.000 C 
ATOM     13  N   UNL     1       7.819   7.026  18.143  0.00  0.00    +0.000 N 
ATOM     14  H   UNL     1       7.787   6.799  19.127  0.00  0.00    +0.000 HD
BRANCH  12  15
ATOM     15  O   UNL     1       8.564   8.923  18.960  0.00  0.00    +0.000 OA
BRANCH  15  16
ATOM     16  C   UNL     1       8.444  10.348  18.951  0.00  0.00    +0.000 C 
BRANCH  16  17
ATOM     17  C   UNL     1       9.800  11.003  19.003  0.00  0.00    +0.000 A 
ATOM     18  C   UNL     1      10.465  11.367  17.822  0.00  0.00    +0.000 A 
ATOM     19  C   UNL     1      11.706  12.005  17.877  0.00  0.00    +0.000 A 
ATOM     20  C   UNL     1      12.298  12.279  19.108  0.00  0.00    +0.000 A 
ATOM     21  C   UNL     1      11.652  11.908  20.287  0.00  0.00    +0.000 A 
ATOM     22  C   UNL     1      10.413  11.267  20.235  0.00  0.00    +0.000 A 
ENDBRANCH  16  17
ENDBRANCH  15  16
ENDBRANCH  12  15
ENDBRANCH   1  13
BRANCH   5  23
ATOM     23  C   UNL     1       4.351   3.778  17.468  0.00  0.00    +0.000 C 
BRANCH  23  24
ATOM     24  C   UNL     1       3.994   2.424  18.079  0.00  0.00    +0.000 C 
BRANCH  24  25
ATOM     25  C   UNL     1       3.006   2.613  19.199  0.00  0.00    +0.000 A 
ATOM     26  C   UNL     1       1.698   3.036  18.922  0.00  0.00    +0.000 A 
ATOM     27  C   UNL     1       0.804   3.281  19.966  0.00  0.00    +0.000 A 
ATOM     28  C   UNL     1       1.209   3.114  21.288  0.00  0.00    +0.000 A 
ATOM     29  C   UNL     1       2.507   2.691  21.571  0.00  0.00    +0.000 A 
ATOM     30  C   UNL     1       3.403   2.447  20.531  0.00  0.00    +0.000 A 
ENDBRANCH  24  25
ENDBRANCH  23  24
ENDBRANCH   5  23
TORSDOF 7
ENDMDL
MODEL 2
REMARK VINA RESULT:      -8.7      1.331      1.587
REMARK  Name = 
REMARK  7 active torsions:
REMARK  status: ('A' for Active; 'I' for Inactive)
REMARK    1  A    between atoms: C_2  and  O_20
REMARK    2  A    between atoms: N_3  and  C_4
REMARK    3  A    between atoms: C_8  and  C_9
REMARK    4  A    between atoms: C_9  and  C_10
REMARK    5  A    between atoms: C_10  and  C_11
REMARK    6  A    between atoms: O_20  and  C_21
REMARK    7  A    between atoms: C_21  and  C_22
REMARK                            x       y       z     vdW  Elec       q    Type
REMARK                         _______ _______ _______ _____ _____    ______ ____
ROOT
ATOM      1  C   UNL     1       7.216   5.702  17.388  0.00  0.00    +0.000 C 
ATOM      2  C   UNL     1       6.220   5.599  18.533  0.00  0.00    +0.000 C 
ATOM      3  O   UNL     1       6.531   5.631  19.720  0.00  0.00    +0.000 OA
ATOM      4  N   UNL     1       4.896   5.702  18.182  0.00  0.00    +0.000 N 
ATOM      5  C   UNL     1       4.400   5.174  16.943  0.00  0.00    +0.000 C 
ATOM      6  N   UNL     1       5.327   5.412  15.874  0.00  0.00    +0.000 N 
ATOM      7  C   UNL     1       6.658   5.134  16.095  0.00  0.00    +0.000 C 
ATOM      8  O   UNL     1       7.328   4.595  15.219  0.00  0.00    +0.000 OA
ATOM      9  H   UNL     1       4.277   5.709  18.985  0.00  0.00    +0.000 HD
ATOM     10  H   UNL     1       5.034   5.094  14.954  0.00  0.00    +0.000 HD
ENDROOT
BRANCH   1  13
ATOM     11  O   UNL     1       8.697   7.555  19.012  0.00  0.00    +0.000 OA
ATOM     12  C   UNL     1       8.177   7.913  17.971  0.00  0.00    +0.000 C 
ATOM     13  N   UNL     1       7.425   7.129  17.162  0.00  0.00    +0.000 N 
ATOM     14  H   UNL     1       7.127   7.539  16.288  0.00  0.00    +0.000 HD
BRANCH  12  15
ATOM     15  O   UNL     1       8.216   9.158  17.443  0.00  0.00    +0.000 OA
BRANCH  15  16
ATOM     16  C   UNL     1       8.046  10.233  18.370  0.00  0.00    +0.000 C 
BRANCH  16  17
ATOM     17  C   UNL     1       9.375  10.833  18.751  0.00  0.00    +0.000 A 
ATOM     18  C   UNL     1      10.323  11.154  17.768  0.00  0.00    +0.000 A 
ATOM     19  C   UNL     1      11.539  11.742  18.125  0.00  0.00    +0.000 A 
ATOM     20  C   UNL     1      11.823  12.006  19.463  0.00  0.00    +0.000 A 
ATOM     21  C   UNL     1      10.893  11.676  20.448  0.00  0.00    +0.000 A 
ATOM     22  C   UNL     1       9.678  11.086  20.095  0.00  0.00    +0.000 A 
ENDBRANCH  16  17
ENDBRANCH  15  16
ENDBRANCH  12  15
ENDBRANCH   1  13
BRANCH   5  23
ATOM     23  C   UNL     1       4.097   3.674  17.029  0.00  0.00    +0.000 C 
BRANCH  23  24
ATOM     24  C   UNL     1       2.602   3.363  17.091  0.00  0.00    +0.000 C 
BRANCH  24  25
ATOM     25  C   UNL     1       2.135   3.380  18.522  0.00  0.00    +0.000 A 
ATOM     26  C   UNL     1       1.685   4.575  19.102  0.00  0.00    +0.000 A 
ATOM     27  C   UNL     1       1.320   4.606  20.450  0.00  0.00    +0.000 A 
ATOM     28  C   UNL     1       1.408   3.453  21.225  0.00  0.00    +0.000 A 
ATOM     29  C   UNL     1       1.851   2.260  20.654  0.00  0.00    +0.000 A 
ATOM     30  C   UNL     1       2.218   2.226  19.309  0.00  0.00    +0.000 A 
ENDBRANCH  24  25
ENDBRANCH  23  24
ENDBRANCH   5  23
TORSDOF 7
ENDMDL
MODEL 3
REMARK VINA RESULT:      -8.5      1.349      1.755
REMARK  Name = 
REMARK  7 active torsions:
REMARK  status: ('A' for Active; 'I' for Inactive)
REMARK    1  A    between atoms: C_2  and  O_20
REMARK    2  A    between atoms: N_3  and  C_4
REMARK    3  A    between atoms: C_8  and  C_9
REMARK    4  A    between atoms: C_9  and  C_10
REMARK    5  A    between atoms: C_10  and  C_11
REMARK    6  A    between atoms: O_20  and  C_21
REMARK    7  A    between atoms: C_21  and  C_22
REMARK                            x       y       z     vdW  Elec       q    Type
REMARK                         _______ _______ _______ _____ _____    ______ ____
ROOT
ATOM      1  C   UNL     1       7.038   5.967  17.313  0.00  0.00    +0.000 C 
ATOM      2  C   UNL     1       6.256   5.597  18.564  0.00  0.00    +0.000 C 
ATOM      3  O   UNL     1       6.775   5.321  19.642  0.00  0.00    +0.000 OA
ATOM      4  N   UNL     1       4.901   5.812  18.506  0.00  0.00    +0.000 N 
ATOM      5  C   UNL     1       4.158   5.625  17.292  0.00  0.00    +0.000 C 
ATOM      6  N   UNL     1       4.894   6.108  16.159  0.00  0.00    +0.000 N 
ATOM      7  C   UNL     1       6.222   5.757  16.050  0.00  0.00    +0.000 C 
ATOM      8  O   UNL     1       6.688   5.445  14.958  0.00  0.00    +0.000 OA
ATOM      9  H   UNL     1       4.436   5.627  19.388  0.00  0.00    +0.000 HD
ATOM     10  H   UNL     1       4.422   6.039  15.262  0.00  0.00    +0.000 HD
ENDROOT
BRANCH   1  13
ATOM     11  O   UNL     1       8.855   7.324  19.080  0.00  0.00    +0.000 OA
ATOM     12  C   UNL     1       8.208   7.942  18.253  0.00  0.00    +0.000 C 
ATOM     13  N   UNL     1       7.298   7.400  17.409  0.00  0.00    +0.000 N 
ATOM     14  H   UNL     1       6.898   8.022  16.720  0.00  0.00    +0.000 HD
BRANCH  12  15
ATOM     15  O   UNL     1       8.244   9.278  18.043  0.00  0.00    +0.000 OA
BRANCH  15  16
ATOM     16  C   UNL     1       8.978  10.040  19.005  0.00  0.00    +0.000 C 
BRANCH  16  17
ATOM     17  C   UNL     1       9.602  11.254  18.369  0.00  0.00    +0.000 A 
ATOM     18  C   UNL     1       8.803  12.310  17.905  0.00  0.00    +0.000 A 
ATOM     19  C   UNL     1       9.389  13.449  17.348  0.00  0.00    +0.000 A 
ATOM     20  C   UNL     1      10.775  13.541  17.241  0.00  0.00    +0.000 A 
ATOM     21  C   UNL     1      11.577  12.491  17.685  0.00  0.00    +0.000 A 
ATOM     22  C   UNL     1      10.994  11.350  18.240  0.00  0.00    +0.000 A 
ENDBRANCH  16  17
ENDBRANCH  15  16
ENDBRANCH  12  15
ENDBRANCH   1  13
BRANCH   5  23
ATOM     23  C   UNL     1       3.777   4.158  17.063  0.00  0.00    +0.000 C 
BRANCH  23  24
ATOM     24  C   UNL     1       2.322   3.851  17.416  0.00  0.00    +0.000 C 
BRANCH  24  25
ATOM     25  C   UNL     1       2.229   3.393  18.847  0.00  0.00    +0.000 A 
ATOM     26  C   UNL     1       1.036   3.559  19.565  0.00  0.00    +0.000 A 
ATOM     27  C   UNL     1       0.972   3.201  20.913  0.00  0.00    +0.000 A 
ATOM     28  C   UNL     1       2.095   2.682  21.553  0.00  0.00    +0.000 A 
ATOM     29  C   UNL     1       3.284   2.511  20.844  0.00  0.00    +0.000 A 
ATOM     30  C   UNL     1       3.352   2.869  19.499  0.00  0.00    +0.000 A 
ENDBRANCH  24  25
ENDBRANCH  23  24
ENDBRANCH   5  23
TORSDOF 7
ENDMDL
MODEL 4
REMARK VINA RESULT:      -8.4      0.722      1.215
REMARK  Name = 
REMARK  7 active torsions:
REMARK  status: ('A' for Active; 'I' for Inactive)
REMARK    1  A    between atoms: C_2  and  O_20
REMARK    2  A    between atoms: N_3  and  C_4
REMARK    3  A    between atoms: C_8  and  C_9
REMARK    4  A    between atoms: C_9  and  C_10
REMARK    5  A    between atoms: C_10  and  C_11
REMARK    6  A    between atoms: O_20  and  C_21
REMARK    7  A    between atoms: C_21  and  C_22
REMARK                            x       y       z     vdW  Elec       q    Type
REMARK                         _______ _______ _______ _____ _____    ______ ____
ROOT
ATOM      1  C   UNL     1       7.008   5.949  16.969  0.00  0.00    +0.000 C 
ATOM      2  C   UNL     1       7.245   4.642  17.710  0.00  0.00    +0.000 C 
ATOM      3  O   UNL     1       8.329   4.067  17.762  0.00  0.00    +0.000 OA
ATOM      4  N   UNL     1       6.227   4.231  18.535  0.00  0.00    +0.000 N 
ATOM      5  C   UNL     1       4.848   4.460  18.205  0.00  0.00    +0.000 C 
ATOM      6  N   UNL     1       4.667   5.760  17.625  0.00  0.00    +0.000 N 
ATOM      7  C   UNL     1       5.541   6.157  16.637  0.00  0.00    +0.000 C 
ATOM      8  O   UNL     1       5.124   6.759  15.652  0.00  0.00    +0.000 OA
ATOM      9  H   UNL     1       6.463   3.401  19.066  0.00  0.00    +0.000 HD
ATOM     10  H   UNL     1       3.711   6.011  17.391  0.00  0.00    +0.000 HD
ENDROOT
BRANCH   1  13
ATOM     11  O   UNL     1       8.705   8.217  16.477  0.00  0.00    +0.000 OA
ATOM     12  C   UNL     1       8.161   8.066  17.556  0.00  0.00    +0.000 C 
ATOM     13  N   UNL     1       7.382   7.012  17.898  0.00  0.00    +0.000 N 
ATOM     14  H   UNL     1       6.928   7.060  18.800  0.00  0.00    +0.000 HD
BRANCH  12  15
ATOM     15  O   UNL     1       8.256   8.890  18.624  0.00  0.00    +0.000 OA
BRANCH  15  16
ATOM     16  C   UNL     1       8.241  10.290  18.333  0.00  0.00    +0.000 C 
BRANCH  16  17
ATOM     17  C   UNL     1       9.523  10.947  18.775  0.00  0.00    +0.000 A 
ATOM     18  C   UNL     1       9.758  11.218  20.132  0.00  0.00    +0.000 A 
ATOM     19  C   UNL     1      10.962  11.795  20.539  0.00  0.00    +0.000 A 
ATOM     20  C   UNL     1      11.939  12.115  19.598  0.00  0.00    +0.000 A 
ATOM     21  C   UNL     1      11.708  11.864  18.245  0.00  0.00    +0.000 A 
ATOM     22  C   UNL     1      10.504  11.289  17.835  0.00  0.00    +0.000 A 
ENDBRANCH  16  17
ENDBRANCH  15  16
ENDBRANCH  12  15
ENDBRANCH   1  13
BRANCH   5  23
ATOM     23  C   UNL     1       4.294   3.395  17.252  0.00  0.00    +0.000 C 
BRANCH  23  24
ATOM     24  C   UNL     1       2.767   3.380  17.188  0.00  0.00    +0.000 C 
BRANCH  24  25
ATOM     25  C   UNL     1       2.197   3.339  18.582  0.00  0.00    +0.000 A 
ATOM     26  C   UNL     1       1.581   4.475  19.125  0.00  0.00    +0.000 A 
ATOM     27  C   UNL     1       1.117   4.460  20.442  0.00  0.00    +0.000 A 
ATOM     28  C   UNL     1       1.272   3.318  21.224  0.00  0.00    +0.000 A 
ATOM     29  C   UNL     1       1.881   2.183  20.690  0.00  0.00    +0.000 A 
ATOM     30  C   UNL     1       2.346   2.196  19.376  0.00  0.00    +0.000 A 
ENDBRANCH  24  25
ENDBRANCH  23  24
ENDBRANCH   5  23
TORSDOF 7
ENDMDL
MODEL 5
REMARK VINA RESULT:      -8.4      1.592      1.862
REMARK  Name = 
REMARK  7 active torsions:
REMARK  status: ('A' for Active; 'I' for Inactive)
REMARK    1  A    between atoms: C_2  and  O_20
REMARK    2  A    between atoms: N_3  and  C_4
REMARK    3  A    between atoms: C_8  and  C_9
REMARK    4  A    between atoms: C_9  and  C_10
REMARK    5  A    between atoms: C_10  and  C_11
REMARK    6  A    between atoms: O_20  and  C_21
REMARK    7  A    between atoms: C_21  and  C_22
REMARK                            x       y       z     vdW  Elec       q    Type
REMARK                         _______ _______ _______ _____ _____    ______ ____
ROOT
ATOM      1  C   UNL     1       7.187   6.040  17.398  0.00  0.00    +0.000 C 
ATOM      2  C   UNL     1       6.297   5.662  18.573  0.00  0.00    +0.000 C 
ATOM      3  O   UNL     1       6.698   5.537  19.726  0.00  0.00    +0.000 OA
ATOM      4  N   UNL     1       4.946   5.690  18.330  0.00  0.00    +0.000 N 
ATOM      5  C   UNL     1       4.399   5.317  17.056  0.00  0.00    +0.000 C 
ATOM      6  N   UNL     1       5.215   5.809  15.982  0.00  0.00    +0.000 N 
ATOM      7  C   UNL     1       6.578   5.630  16.069  0.00  0.00    +0.000 C 
ATOM      8  O   UNL     1       7.220   5.303  15.075  0.00  0.00    +0.000 OA
ATOM      9  H   UNL     1       4.394   5.510  19.161  0.00  0.00    +0.000 HD
ATOM     10  H   UNL     1       4.878   5.613  15.044  0.00  0.00    +0.000 HD
ENDROOT
BRANCH   1  13
ATOM     11  O   UNL     1       8.854   7.739  19.010  0.00  0.00    +0.000 OA
ATOM     12  C   UNL     1       8.107   8.210  18.171  0.00  0.00    +0.000 C 
ATOM     13  N   UNL     1       7.254   7.498  17.396  0.00  0.00    +0.000 N 
ATOM     14  H   UNL     1       6.755   8.014  16.684  0.00  0.00    +0.000 HD
BRANCH  12  15
ATOM     15  O   UNL     1       7.957   9.521  17.877  0.00  0.00    +0.000 OA
BRANCH  15  16
ATOM     16  C   UNL     1       9.161  10.292  17.840  0.00  0.00    +0.000 C 
BRANCH  16  17
ATOM     17  C   UNL     1       9.173  11.328  18.935  0.00  0.00    +0.000 A 
ATOM     18  C   UNL     1       8.889  12.673  18.652  0.00  0.00    +0.000 A 
ATOM     19  C   UNL     1       8.867  13.621  19.676  0.00  0.00    +0.000 A 
ATOM     20  C   UNL     1       9.135  13.240  20.989  0.00  0.00    +0.000 A 
ATOM     21  C   UNL     1       9.433  11.908  21.278  0.00  0.00    +0.000 A 
ATOM     22  C   UNL     1       9.458  10.959  20.256  0.00  0.00    +0.000 A 
ENDBRANCH  16  17
ENDBRANCH  15  16
ENDBRANCH  12  15
ENDBRANCH   1  13
BRANCH   5  23
ATOM     23  C   UNL     1       4.234   3.800  16.915  0.00  0.00    +0.000 C 
BRANCH  23  24
ATOM     24  C   UNL     1       2.790   3.332  17.091  0.00  0.00    +0.000 C 
BRANCH  24  25
ATOM     25  C   UNL     1       2.452   3.255  18.557  0.00  0.00    +0.000 A 
ATOM     26  C   UNL     1       1.268   3.831  19.038  0.00  0.00    +0.000 A 
ATOM     27  C   UNL     1       0.991   3.823  20.407  0.00  0.00    +0.000 A 
ATOM     28  C   UNL     1       1.892   3.250  21.300  0.00  0.00    +0.000 A 
ATOM     29  C   UNL     1       3.070   2.673  20.828  0.00  0.00    +0.000 A 
ATOM     30  C   UNL     1       3.351   2.680  19.463  0.00  0.00    +0.000 A 
ENDBRANCH  24  25
ENDBRANCH  23  24
ENDBRANCH   5  23
TORSDOF 7
ENDMDL
MODEL 6
REMARK VINA RESULT:      -8.3      1.855      2.294
REMARK  Name = 
REMARK  7 active torsions:
REMARK  status: ('A' for Active; 'I' for Inactive)
REMARK    1  A    between atoms: C_2  and  O_20
REMARK    2  A    between atoms: N_3  and  C_4
REMARK    3  A    between atoms: C_8  and  C_9
REMARK    4  A    between atoms: C_9  and  C_10
REMARK    5  A    between atoms: C_10  and  C_11
REMARK    6  A    between atoms: O_20  and  C_21
REMARK    7  A    between atoms: C_21  and  C_22
REMARK                            x       y       z     vdW  Elec       q    Type
REMARK                         _______ _______ _______ _____ _____    ______ ____
ROOT
ATOM      1  C   UNL     1       7.204   6.022  17.360  0.00  0.00    +0.000 C 
ATOM      2  C   UNL     1       6.337   5.651  18.554  0.00  0.00    +0.000 C 
ATOM      3  O   UNL     1       6.758   5.547  19.703  0.00  0.00    +0.000 OA
ATOM      4  N   UNL     1       4.982   5.659  18.332  0.00  0.00    +0.000 N 
ATOM      5  C   UNL     1       4.421   5.261  17.072  0.00  0.00    +0.000 C 
ATOM      6  N   UNL     1       5.213   5.747  15.979  0.00  0.00    +0.000 N 
ATOM      7  C   UNL     1       6.580   5.587  16.046  0.00  0.00    +0.000 C 
ATOM      8  O   UNL     1       7.210   5.253  15.047  0.00  0.00    +0.000 OA
ATOM      9  H   UNL     1       4.446   5.484  19.174  0.00  0.00    +0.000 HD
ATOM     10  H   UNL     1       4.864   5.533  15.049  0.00  0.00    +0.000 HD
ENDROOT
BRANCH   1  13
ATOM     11  O   UNL     1       8.814   7.767  18.981  0.00  0.00    +0.000 OA
ATOM     12  C   UNL     1       8.081   8.215  18.118  0.00  0.00    +0.000 C 
ATOM     13  N   UNL     1       7.254   7.481  17.336  0.00  0.00    +0.000 N 
ATOM     14  H   UNL     1       6.764   7.979  16.606  0.00  0.00    +0.000 HD
BRANCH  12  15
ATOM     15  O   UNL     1       7.921   9.520  17.801  0.00  0.00    +0.000 OA
BRANCH  15  16
ATOM     16  C   UNL     1       9.083  10.342  17.942  0.00  0.00    +0.000 C 
BRANCH  16  17
ATOM     17  C   UNL     1       8.702  11.783  18.161  0.00  0.00    +0.000 A 
ATOM     18  C   UNL     1       9.263  12.519  19.216  0.00  0.00    +0.000 A 
ATOM     19  C   UNL     1       8.932  13.864  19.393  0.00  0.00    +0.000 A 
ATOM     20  C   UNL     1       8.033  14.484  18.527  0.00  0.00    +0.000 A 
ATOM     21  C   UNL     1       7.458  13.756  17.486  0.00  0.00    +0.000 A 
ATOM     22  C   UNL     1       7.786  12.411  17.308  0.00  0.00    +0.000 A 
ENDBRANCH  16  17
ENDBRANCH  15  16
ENDBRANCH  12  15
ENDBRANCH   1  13
BRANCH   5  23
ATOM     23  C   UNL     1       4.272   3.740  16.955  0.00  0.00    +0.000 C 
BRANCH  23  24
ATOM     24  C   UNL     1       2.832   3.260  17.130  0.00  0.00    +0.000 C 
BRANCH  24  25
ATOM     25  C   UNL     1       2.456   3.289  18.587  0.00  0.00    +0.000 A 
ATOM     26  C   UNL     1       1.379   4.074  19.022  0.00  0.00    +0.000 A 
ATOM     27  C   UNL     1       1.076   4.157  20.383  0.00  0.00    +0.000 A 
ATOM     28  C   UNL     1       1.846   3.466  21.315  0.00  0.00    +0.000 A 
ATOM     29  C   UNL     1       2.917   2.681  20.889  0.00  0.00    +0.000 A 
ATOM     30  C   UNL     1       3.223   2.597  19.532  0.00  0.00    +0.000 A 
ENDBRANCH  24  25
ENDBRANCH  23  24
ENDBRANCH   5  23
TORSDOF 7
ENDMDL
MODEL 7
REMARK VINA RESULT:      -8.3      1.277      1.921
REMARK  Name = 
REMARK  7 active torsions:
REMARK  status: ('A' for Active; 'I' for Inactive)
REMARK    1  A    between atoms: C_2  and  O_20
REMARK    2  A    between atoms: N_3  and  C_4
REMARK    3  A    between atoms: C_8  and  C_9
REMARK    4  A    between atoms: C_9  and  C_10
REMARK    5  A    between atoms: C_10  and  C_11
REMARK    6  A    between atoms: O_20  and  C_21
REMARK    7  A    between atoms: C_21  and  C_22
REMARK                            x       y       z     vdW  Elec       q    Type
REMARK                         _______ _______ _______ _____ _____    ______ ____
ROOT
ATOM      1  C   UNL     1       7.046   5.994  17.337  0.00  0.00    +0.000 C 
ATOM      2  C   UNL     1       6.250   5.555  18.557  0.00  0.00    +0.000 C 
ATOM      3  O   UNL     1       6.742   5.354  19.663  0.00  0.00    +0.000 OA
ATOM      4  N   UNL     1       4.884   5.614  18.429  0.00  0.00    +0.000 N 
ATOM      5  C   UNL     1       4.228   5.327  17.185  0.00  0.00    +0.000 C 
ATOM      6  N   UNL     1       4.960   5.874  16.079  0.00  0.00    +0.000 N 
ATOM      7  C   UNL     1       6.323   5.674  16.040  0.00  0.00    +0.000 C 
ATOM      8  O   UNL     1       6.874   5.402  14.978  0.00  0.00    +0.000 OA
ATOM      9  H   UNL     1       4.399   5.390  19.292  0.00  0.00    +0.000 HD
ATOM     10  H   UNL     1       4.544   5.740  15.162  0.00  0.00    +0.000 HD
ENDROOT
BRANCH   1  13
ATOM     11  O   UNL     1       8.798   7.570  18.982  0.00  0.00    +0.000 OA
ATOM     12  C   UNL     1       8.030   8.101  18.200  0.00  0.00    +0.000 C 
ATOM     13  N   UNL     1       7.138   7.448  17.417  0.00  0.00    +0.000 N 
ATOM     14  H   UNL     1       6.622   8.012  16.756  0.00  0.00    +0.000 HD
BRANCH  12  15
ATOM     15  O   UNL     1       7.892   9.429  17.990  0.00  0.00    +0.000 OA
BRANCH  15  16
ATOM     16  C   UNL     1       9.058  10.110  17.520  0.00  0.00    +0.000 C 
BRANCH  16  17
ATOM     17  C   UNL     1       9.649  10.976  18.602  0.00  0.00    +0.000 A 
ATOM     18  C   UNL     1       9.241  10.834  19.937  0.00  0.00    +0.000 A 
ATOM     19  C   UNL     1       9.818  11.616  20.940  0.00  0.00    +0.000 A 
ATOM     20  C   UNL     1      10.800  12.551  20.620  0.00  0.00    +0.000 A 
ATOM     21  C   UNL     1      11.202  12.711  19.295  0.00  0.00    +0.000 A 
ATOM     22  C   UNL     1      10.625  11.932  18.290  0.00  0.00    +0.000 A 
ENDBRANCH  16  17
ENDBRANCH  15  16
ENDBRANCH  12  15
ENDBRANCH   1  13
BRANCH   5  23
ATOM     23  C   UNL     1       4.025   3.823  16.967  0.00  0.00    +0.000 C 
BRANCH  23  24
ATOM     24  C   UNL     1       2.601   3.357  17.264  0.00  0.00    +0.000 C 
BRANCH  24  25
ATOM     25  C   UNL     1       2.410   3.211  18.751  0.00  0.00    +0.000 A 
ATOM     26  C   UNL     1       3.424   2.652  19.540  0.00  0.00    +0.000 A 
ATOM     27  C   UNL     1       3.219   2.449  20.906  0.00  0.00    +0.000 A 
ATOM     28  C   UNL     1       2.004   2.797  21.490  0.00  0.00    +0.000 A 
ATOM     29  C   UNL     1       0.991   3.357  20.712  0.00  0.00    +0.000 A 
ATOM     30  C   UNL     1       1.192   3.558  19.347  0.00  0.00    +0.000 A 
ENDBRANCH  24  25
ENDBRANCH  23  24
ENDBRANCH   5  23
TORSDOF 7
ENDMDL
MODEL 8
REMARK VINA RESULT:      -8.2      1.248      1.747
REMARK  Name = 
REMARK  7 active torsions:
REMARK  status: ('A' for Active; 'I' for Inactive)
REMARK    1  A    between atoms: C_2  and  O_20
REMARK    2  A    between atoms: N_3  and  C_4
REMARK    3  A    between atoms: C_8  and  C_9
REMARK    4  A    between atoms: C_9  and  C_10
REMARK    5  A    between atoms: C_10  and  C_11
REMARK    6  A    between atoms: O_20  and  C_21
REMARK    7  A    between atoms: C_21  and  C_22
REMARK                            x       y       z     vdW  Elec       q    Type
REMARK                         _______ _______ _______ _____ _____    ______ ____
ROOT
ATOM      1  C   UNL     1       7.021   5.590  17.320  0.00  0.00    +0.000 C 
ATOM      2  C   UNL     1       6.026   5.580  18.470  0.00  0.00    +0.000 C 
ATOM      3  O   UNL     1       6.345   5.617  19.655  0.00  0.00    +0.000 OA
ATOM      4  N   UNL     1       4.711   5.765  18.122  0.00  0.00    +0.000 N 
ATOM      5  C   UNL     1       4.174   5.245  16.897  0.00  0.00    +0.000 C 
ATOM      6  N   UNL     1       5.109   5.395  15.819  0.00  0.00    +0.000 N 
ATOM      7  C   UNL     1       6.419   5.032  16.042  0.00  0.00    +0.000 C 
ATOM      8  O   UNL     1       7.047   4.430  15.176  0.00  0.00    +0.000 OA
ATOM      9  H   UNL     1       4.097   5.832  18.926  0.00  0.00    +0.000 HD
ATOM     10  H   UNL     1       4.791   5.078  14.908  0.00  0.00    +0.000 HD
ENDROOT
BRANCH   1  13
ATOM     11  O   UNL     1       8.590   7.387  18.924  0.00  0.00    +0.000 OA
ATOM     12  C   UNL     1       8.112   7.750  17.864  0.00  0.00    +0.000 C 
ATOM     13  N   UNL     1       7.326   6.994  17.061  0.00  0.00    +0.000 N 
ATOM     14  H   UNL     1       7.069   7.398  16.172  0.00  0.00    +0.000 HD
BRANCH  12  15
ATOM     15  O   UNL     1       8.240   8.975  17.305  0.00  0.00    +0.000 OA
BRANCH  15  16
ATOM     16  C   UNL     1       7.947  10.083  18.160  0.00  0.00    +0.000 C 
BRANCH  16  17
ATOM     17  C   UNL     1       9.213  10.735  18.652  0.00  0.00    +0.000 A 
ATOM     18  C   UNL     1       9.441  10.913  20.025  0.00  0.00    +0.000 A 
ATOM     19  C   UNL     1      10.632  11.485  20.476  0.00  0.00    +0.000 A 
ATOM     20  C   UNL     1      11.602  11.893  19.562  0.00  0.00    +0.000 A 
ATOM     21  C   UNL     1      11.379  11.734  18.195  0.00  0.00    +0.000 A 
ATOM     22  C   UNL     1      10.188  11.164  17.742  0.00  0.00    +0.000 A 
ENDBRANCH  16  17
ENDBRANCH  15  16
ENDBRANCH  12  15
ENDBRANCH   1  13
BRANCH   5  23
ATOM     23  C   UNL     1       3.770   3.771  17.018  0.00  0.00    +0.000 C 
BRANCH  23  24
ATOM     24  C   UNL     1       4.283   3.108  18.296  0.00  0.00    +0.000 C 
BRANCH  24  25
ATOM     25  C   UNL     1       3.159   2.975  19.289  0.00  0.00    +0.000 A 
ATOM     26  C   UNL     1       1.830   3.143  18.876  0.00  0.00    +0.000 A 
ATOM     27  C   UNL     1       0.793   3.092  19.811  0.00  0.00    +0.000 A 
ATOM     28  C   UNL     1       1.075   2.878  21.157  0.00  0.00    +0.000 A 
ATOM     29  C   UNL     1       2.395   2.706  21.575  0.00  0.00    +0.000 A 
ATOM     30  C   UNL     1       3.433   2.759  20.645  0.00  0.00    +0.000 A 
ENDBRANCH  24  25
ENDBRANCH  23  24
ENDBRANCH   5  23
TORSDOF 7
ENDMDL
MODEL 9
REMARK VINA RESULT:      -8.2      1.696      9.010
REMARK  Name = 
REMARK  7 active torsions:
REMARK  status: ('A' for Active; 'I' for Inactive)
REMARK    1  A    between atoms: C_2  and  O_20
REMARK    2  A    between atoms: N_3  and  C_4
REMARK    3  A    between atoms: C_8  and  C_9
REMARK    4  A    between atoms: C_9  and  C_10
REMARK    5  A    between atoms: C_10  and  C_11
REMARK    6  A    between atoms: O_20  and  C_21
REMARK    7  A    between atoms: C_21  and  C_22
REMARK                            x       y       z     vdW  Elec       q    Type
REMARK                         _______ _______ _______ _____ _____    ______ ____
ROOT
ATOM      1  C   UNL     1       7.360   4.908  17.342  0.00  0.00    +0.000 C 
ATOM      2  C   UNL     1       7.231   5.934  16.227  0.00  0.00    +0.000 C 
ATOM      3  O   UNL     1       7.364   5.673  15.034  0.00  0.00    +0.000 OA
ATOM      4  N   UNL     1       6.719   7.153  16.595  0.00  0.00    +0.000 N 
ATOM      5  C   UNL     1       7.001   7.735  17.877  0.00  0.00    +0.000 C 
ATOM      6  N   UNL     1       6.986   6.738  18.909  0.00  0.00    +0.000 N 
ATOM      7  C   UNL     1       7.658   5.558  18.682  0.00  0.00    +0.000 C 
ATOM      8  O   UNL     1       8.318   5.043  19.580  0.00  0.00    +0.000 OA
ATOM      9  H   UNL     1       6.577   7.774  15.806  0.00  0.00    +0.000 HD
ATOM     10  H   UNL     1       7.147   7.076  19.854  0.00  0.00    +0.000 HD
ENDROOT
BRANCH   1  13
ATOM     11  O   UNL     1       6.006   3.242  15.430  0.00  0.00    +0.000 OA
ATOM     12  C   UNL     1       5.511   3.474  16.518  0.00  0.00    +0.000 C 
ATOM     13  N   UNL     1       6.048   4.279  17.466  0.00  0.00    +0.000 N 
ATOM     14  H   UNL     1       5.567   4.313  18.354  0.00  0.00    +0.000 HD
BRANCH  12  15
ATOM     15  O   UNL     1       4.325   3.010  16.974  0.00  0.00    +0.000 OA
BRANCH  15  16
ATOM     16  C   UNL     1       3.282   3.982  17.095  0.00  0.00    +0.000 C 
BRANCH  16  17
ATOM     17  C   UNL     1       2.568   3.844  18.414  0.00  0.00    +0.000 A 
ATOM     18  C   UNL     1       2.970   4.596  19.529  0.00  0.00    +0.000 A 
ATOM     19  C   UNL     1       2.281   4.490  20.739  0.00  0.00    +0.000 A 
ATOM     20  C   UNL     1       1.192   3.628  20.851  0.00  0.00    +0.000 A 
ATOM     21  C   UNL     1       0.795   2.864  19.754  0.00  0.00    +0.000 A 
ATOM     22  C   UNL     1       1.483   2.967  18.544  0.00  0.00    +0.000 A 
ENDBRANCH  16  17
ENDBRANCH  15  16
ENDBRANCH  12  15
ENDBRANCH   1  13
BRANCH   5  23
ATOM     23  C   UNL     1       8.347   8.469  17.900  0.00  0.00    +0.000 C 
BRANCH  23  24
ATOM     24  C   UNL     1       8.204   9.990  17.864  0.00  0.00    +0.000 C 
BRANCH  24  25
ATOM     25  C   UNL     1       9.373  10.630  18.565  0.00  0.00    +0.000 A 
ATOM     26  C   UNL     1       9.342  10.823  19.953  0.00  0.00    +0.000 A 
ATOM     27  C   UNL     1      10.395  11.481  20.594  0.00  0.00    +0.000 A 
ATOM     28  C   UNL     1      11.476  11.955  19.855  0.00  0.00    +0.000 A 
ATOM     29  C   UNL     1      11.514  11.764  18.474  0.00  0.00    +0.000 A 
ATOM     30  C   UNL     1      10.465  11.109  17.831  0.00  0.00    +0.000 A 
ENDBRANCH  24  25
ENDBRANCH  23  24
ENDBRANCH   5  23
TORSDOF 7
ENDMDL
