MODEL 1
REMARK VINA RESULT:      -7.1      0.000      0.000
REMARK  Name = 
REMARK  10 active torsions:
REMARK  status: ('A' for Active; 'I' for Inactive)
REMARK    1  A    between atoms: C_1  and  O_2
REMARK    2  A    between atoms: O_2  and  C_3
REMARK    3  A    between atoms: C_3  and  C_5
REMARK    4  A    between atoms: C_8  and  C_9
REMARK    5  A    between atoms: C_9  and  C_10
REMARK    6  A    between atoms: C_9  and  N_19
REMARK    7  A    between atoms: N_12  and  C_13
REMARK    8  A    between atoms: N_19  and  C_28
REMARK    9  A    between atoms: C_20  and  C_22
REMARK   10  A    between atoms: C_22  and  C_23
REMARK                            x       y       z     vdW  Elec       q    Type
REMARK                         _______ _______ _______ _____ _____    ______ ____
ROOT
ATOM      1  C   UNL     1      -0.210  10.407  19.686  0.00  0.00    +0.000 C 
ENDROOT
BRANCH   1   5
ATOM      2  C   UNL     1       2.565   7.166  18.777  0.00  0.00    +0.000 A 
ATOM      3  C   UNL     1       2.388   8.215  17.866  0.00  0.00    +0.000 A 
ATOM      4  C   UNL     1       1.594   9.329  18.208  0.00  0.00    +0.000 A 
ATOM      5  C   UNL     1       0.930   9.400  19.455  0.00  0.00    +0.000 A 
ATOM      6  C   UNL     1       1.185   8.365  20.362  0.00  0.00    +0.000 A 
ATOM      7  C   UNL     1       2.010   7.286  20.048  0.00  0.00    +0.000 A 
BRANCH   2   8
ATOM      8  C   UNL     1       3.252   5.907  18.368  0.00  0.00    +0.000 C 
ATOM      9  O   UNL     1       2.681   4.852  18.145  0.00  0.00    +0.000 OA
BRANCH   8  11
ATOM     10  C   UNL     1       5.381   5.256  19.180  0.00  0.00    +0.000 C 
ATOM     11  O   UNL     1       4.594   6.115  18.355  0.00  0.00    +0.000 OA
ENDBRANCH   8  11
ENDBRANCH   2   8
ENDBRANCH   1   5
BRANCH   1  12
ATOM     12  C   UNL     1      -0.161  11.002  21.126  0.00  0.00    +0.000 C 
ATOM     13  O   UNL     1       0.833  10.907  21.843  0.00  0.00    +0.000 OA
ATOM     14  N   UNL     1      -1.319  11.627  21.573  0.00  0.00    +0.000 N 
ATOM     15  H   UNL     1      -2.161  11.592  21.013  0.00  0.00    +0.000 HD
BRANCH  14  16
ATOM     16  C   UNL     1      -1.415  12.125  22.948  0.00  0.00    +0.000 C 
ATOM     17  C   UNL     1      -0.969  13.579  23.082  0.00  0.00    +0.000 C 
ATOM     18  C   UNL     1      -1.960  14.580  22.503  0.00  0.00    +0.000 C 
ATOM     19  C   UNL     1      -3.401  14.353  22.954  0.00  0.00    +0.000 C 
ATOM     20  C   UNL     1      -3.845  12.893  22.906  0.00  0.00    +0.000 C 
ATOM     21  C   UNL     1      -2.829  11.948  23.532  0.00  0.00    +0.000 C 
ENDBRANCH  14  16
ENDBRANCH   1  12
BRANCH   1  22
ATOM     22  N   UNL     1      -0.522  11.467  18.659  0.00  0.00    +0.000 N 
ATOM     23  C   UNL     1      -0.022  12.785  18.557  0.00  0.00    +0.000 C 
ATOM     24  O   UNL     1      -0.569  13.598  17.798  0.00  0.00    +0.000 OA
BRANCH  22  25
ATOM     25  C   UNL     1      -1.840  11.297  18.031  0.00  0.00    +0.000 C 
ATOM     26  C   UNL     1      -1.997  10.506  16.753  0.00  0.00    +0.000 C 
ATOM     27  C   UNL     1      -2.604   9.997  18.020  0.00  0.00    +0.000 C 
ENDBRANCH  22  25
BRANCH  23  28
ATOM     28  C   UNL     1       1.203  13.198  19.346  0.00  0.00    +0.000 C 
BRANCH  28  29
ATOM     29  C   UNL     1       1.993  14.328  18.729  0.00  0.00    +0.000 A 
ATOM     30  C   UNL     1       3.056  14.261  17.845  0.00  0.00    +0.000 A 
ATOM     31  C   UNL     1       3.608  15.546  17.557  0.00  0.00    +0.000 A 
ATOM     32  C   UNL     1       2.952  16.553  18.228  0.00  0.00    +0.000 A 
ATOM     33  S   UNL     1       1.670  15.953  19.188  0.00  0.00    +0.000 S 
ENDBRANCH  28  29
ENDBRANCH  23  28
ENDBRANCH   1  22
TORSDOF 9
ENDMDL
MODEL 2
REMARK VINA RESULT:      -6.9      4.927      9.871
REMARK  Name = 
REMARK  10 active torsions:
REMARK  status: ('A' for Active; 'I' for Inactive)
REMARK    1  A    between atoms: C_1  and  O_2
REMARK    2  A    between atoms: O_2  and  C_3
REMARK    3  A    between atoms: C_3  and  C_5
REMARK    4  A    between atoms: C_8  and  C_9
REMARK    5  A    between atoms: C_9  and  C_10
REMARK    6  A    between atoms: C_9  and  N_19
REMARK    7  A    between atoms: N_12  and  C_13
REMARK    8  A    between atoms: N_19  and  C_28
REMARK    9  A    between atoms: C_20  and  C_22
REMARK   10  A    between atoms: C_22  and  C_23
REMARK                            x       y       z     vdW  Elec       q    Type
REMARK                         _______ _______ _______ _____ _____    ______ ____
ROOT
ATOM      1  C   UNL     1       5.533   6.069  18.113  0.00  0.00    +0.000 C 
ENDROOT
BRANCH   1   5
ATOM      2  C   UNL     1       1.919   8.468  18.579  0.00  0.00    +0.000 A 
ATOM      3  C   UNL     1       2.729   8.632  17.449  0.00  0.00    +0.000 A 
ATOM      4  C   UNL     1       3.825   7.772  17.227  0.00  0.00    +0.000 A 
ATOM      5  C   UNL     1       4.156   6.754  18.151  0.00  0.00    +0.000 A 
ATOM      6  C   UNL     1       3.284   6.580  19.232  0.00  0.00    +0.000 A 
ATOM      7  C   UNL     1       2.170   7.394  19.430  0.00  0.00    +0.000 A 
BRANCH   2   8
ATOM      8  C   UNL     1       0.870   9.473  18.919  0.00  0.00    +0.000 C 
ATOM      9  O   UNL     1       0.208  10.083  18.096  0.00  0.00    +0.000 OA
BRANCH   8  11
ATOM     10  C   UNL     1      -0.398  10.117  20.814  0.00  0.00    +0.000 C 
ATOM     11  O   UNL     1       0.829   9.636  20.267  0.00  0.00    +0.000 OA
ENDBRANCH   8  11
ENDBRANCH   2   8
ENDBRANCH   1   5
BRANCH   1  12
ATOM     12  C   UNL     1       5.431   4.562  18.498  0.00  0.00    +0.000 C 
ATOM     13  O   UNL     1       6.424   3.871  18.716  0.00  0.00    +0.000 OA
ATOM     14  N   UNL     1       4.149   4.028  18.555  0.00  0.00    +0.000 N 
ATOM     15  H   UNL     1       3.357   4.582  18.261  0.00  0.00    +0.000 HD
BRANCH  14  16
ATOM     16  C   UNL     1       3.949   2.597  18.804  0.00  0.00    +0.000 C 
ATOM     17  C   UNL     1       3.871   2.260  20.290  0.00  0.00    +0.000 C 
ATOM     18  C   UNL     1       2.572   2.699  20.952  0.00  0.00    +0.000 C 
ATOM     19  C   UNL     1       1.318   2.291  20.181  0.00  0.00    +0.000 C 
ATOM     20  C   UNL     1       1.403   2.543  18.678  0.00  0.00    +0.000 C 
ATOM     21  C   UNL     1       2.710   2.050  18.071  0.00  0.00    +0.000 C 
ENDBRANCH  14  16
ENDBRANCH   1  12
BRANCH   1  22
ATOM     22  N   UNL     1       6.466   6.281  16.946  0.00  0.00    +0.000 N 
ATOM     23  C   UNL     1       6.538   5.576  15.723  0.00  0.00    +0.000 C 
ATOM     24  O   UNL     1       7.521   5.721  14.982  0.00  0.00    +0.000 OA
BRANCH  22  25
ATOM     25  C   UNL     1       7.737   6.915  17.326  0.00  0.00    +0.000 C 
ATOM     26  C   UNL     1       7.795   8.378  17.696  0.00  0.00    +0.000 C 
ATOM     27  C   UNL     1       8.076   7.338  18.732  0.00  0.00    +0.000 C 
ENDBRANCH  22  25
BRANCH  23  28
ATOM     28  C   UNL     1       5.401   4.671  15.297  0.00  0.00    +0.000 C 
BRANCH  28  29
ATOM     29  C   UNL     1       5.537   4.111  13.900  0.00  0.00    +0.000 A 
ATOM     30  C   UNL     1       4.559   3.572  13.083  0.00  0.00    +0.000 A 
ATOM     31  C   UNL     1       5.090   3.057  11.862  0.00  0.00    +0.000 A 
ATOM     32  C   UNL     1       6.454   3.218  11.783  0.00  0.00    +0.000 A 
ATOM     33  S   UNL     1       7.088   3.998  13.167  0.00  0.00    +0.000 S 
ENDBRANCH  28  29
ENDBRANCH  23  28
ENDBRANCH   1  22
TORSDOF 9
ENDMDL
MODEL 3
REMARK VINA RESULT:      -6.9      0.877      1.103
REMARK  Name = 
REMARK  10 active torsions:
REMARK  status: ('A' for Active; 'I' for Inactive)
REMARK    1  A    between atoms: C_1  and  O_2
REMARK    2  A    between atoms: O_2  and  C_3
REMARK    3  A    between atoms: C_3  and  C_5
REMARK    4  A    between atoms: C_8  and  C_9
REMARK    5  A    between atoms: C_9  and  C_10
REMARK    6  A    between atoms: C_9  and  N_19
REMARK    7  A    between atoms: N_12  and  C_13
REMARK    8  A    between atoms: N_19  and  C_28
REMARK    9  A    between atoms: C_20  and  C_22
REMARK   10  A    between atoms: C_22  and  C_23
REMARK                            x       y       z     vdW  Elec       q    Type
REMARK                         _______ _______ _______ _____ _____    ______ ____
ROOT
ATOM      1  C   UNL     1      -0.127  10.419  19.663  0.00  0.00    +0.000 C 
ENDROOT
BRANCH   1   5
ATOM      2  C   UNL     1       2.697   7.247  18.665  0.00  0.00    +0.000 A 
ATOM      3  C   UNL     1       2.535   8.339  17.803  0.00  0.00    +0.000 A 
ATOM      4  C   UNL     1       1.723   9.430  18.180  0.00  0.00    +0.000 A 
ATOM      5  C   UNL     1       1.027   9.433  19.411  0.00  0.00    +0.000 A 
ATOM      6  C   UNL     1       1.267   8.356  20.271  0.00  0.00    +0.000 A 
ATOM      7  C   UNL     1       2.108   7.299  19.925  0.00  0.00    +0.000 A 
BRANCH   2   8
ATOM      8  C   UNL     1       3.404   6.015  18.210  0.00  0.00    +0.000 C 
ATOM      9  O   UNL     1       3.344   4.938  18.779  0.00  0.00    +0.000 OA
BRANCH   8  11
ATOM     10  C   UNL     1       5.073   5.303  16.686  0.00  0.00    +0.000 C 
ATOM     11  O   UNL     1       4.162   6.311  17.122  0.00  0.00    +0.000 OA
ENDBRANCH   8  11
ENDBRANCH   2   8
ENDBRANCH   1   5
BRANCH   1  12
ATOM     12  C   UNL     1      -0.079  10.994  21.111  0.00  0.00    +0.000 C 
ATOM     13  O   UNL     1       0.887  10.828  21.852  0.00  0.00    +0.000 OA
ATOM     14  N   UNL     1      -1.207  11.686  21.536  0.00  0.00    +0.000 N 
ATOM     15  H   UNL     1      -2.034  11.711  20.954  0.00  0.00    +0.000 HD
BRANCH  14  16
ATOM     16  C   UNL     1      -1.308  12.174  22.914  0.00  0.00    +0.000 C 
ATOM     17  C   UNL     1      -0.963  13.655  23.043  0.00  0.00    +0.000 C 
ATOM     18  C   UNL     1      -2.035  14.585  22.488  0.00  0.00    +0.000 C 
ATOM     19  C   UNL     1      -3.446  14.256  22.969  0.00  0.00    +0.000 C 
ATOM     20  C   UNL     1      -3.787  12.769  22.926  0.00  0.00    +0.000 C 
ATOM     21  C   UNL     1      -2.693  11.897  23.528  0.00  0.00    +0.000 C 
ENDBRANCH  14  16
ENDBRANCH   1  12
BRANCH   1  22
ATOM     22  N   UNL     1      -0.461  11.488  18.653  0.00  0.00    +0.000 N 
ATOM     23  C   UNL     1       0.072  12.791  18.525  0.00  0.00    +0.000 C 
ATOM     24  O   UNL     1      -0.490  13.621  17.795  0.00  0.00    +0.000 OA
BRANCH  22  25
ATOM     25  C   UNL     1      -1.815  11.358  18.094  0.00  0.00    +0.000 C 
ATOM     26  C   UNL     1      -2.052  10.627  16.794  0.00  0.00    +0.000 C 
ATOM     27  C   UNL     1      -2.591  10.067  18.070  0.00  0.00    +0.000 C 
ENDBRANCH  22  25
BRANCH  23  28
ATOM     28  C   UNL     1       1.348  13.167  19.249  0.00  0.00    +0.000 C 
BRANCH  28  29
ATOM     29  C   UNL     1       1.556  14.654  19.420  0.00  0.00    +0.000 A 
ATOM     30  C   UNL     1       0.917  15.526  20.285  0.00  0.00    +0.000 A 
ATOM     31  C   UNL     1       1.317  16.881  20.088  0.00  0.00    +0.000 A 
ATOM     32  C   UNL     1       2.247  17.005  19.081  0.00  0.00    +0.000 A 
ATOM     33  S   UNL     1       2.646  15.493  18.389  0.00  0.00    +0.000 S 
ENDBRANCH  28  29
ENDBRANCH  23  28
ENDBRANCH   1  22
TORSDOF 9
ENDMDL
MODEL 4
REMARK VINA RESULT:      -6.8      4.867      9.795
REMARK  Name = 
REMARK  10 active torsions:
REMARK  status: ('A' for Active; 'I' for Inactive)
REMARK    1  A    between atoms: C_1  and  O_2
REMARK    2  A    between atoms: O_2  and  C_3
REMARK    3  A    between atoms: C_3  and  C_5
REMARK    4  A    between atoms: C_8  and  C_9
REMARK    5  A    between atoms: C_9  and  C_10
REMARK    6  A    between atoms: C_9  and  N_19
REMARK    7  A    between atoms: N_12  and  C_13
REMARK    8  A    between atoms: N_19  and  C_28
REMARK    9  A    between atoms: C_20  and  C_22
REMARK   10  A    between atoms: C_22  and  C_23
REMARK                            x       y       z     vdW  Elec       q    Type
REMARK                         _______ _______ _______ _____ _____    ______ ____
ROOT
ATOM      1  C   UNL     1       5.050   5.534  18.178  0.00  0.00    +0.000 C 
ENDROOT
BRANCH   1   5
ATOM      2  C   UNL     1       1.898   8.537  17.893  0.00  0.00    +0.000 A 
ATOM      3  C   UNL     1       3.179   8.816  17.404  0.00  0.00    +0.000 A 
ATOM      4  C   UNL     1       4.166   7.809  17.374  0.00  0.00    +0.000 A 
ATOM      5  C   UNL     1       3.902   6.511  17.868  0.00  0.00    +0.000 A 
ATOM      6  C   UNL     1       2.592   6.252  18.286  0.00  0.00    +0.000 A 
ATOM      7  C   UNL     1       1.598   7.230  18.271  0.00  0.00    +0.000 A 
BRANCH   2   8
ATOM      8  C   UNL     1       0.902   9.629  18.096  0.00  0.00    +0.000 C 
ATOM      9  O   UNL     1      -0.232   9.619  17.648  0.00  0.00    +0.000 OA
BRANCH   8  11
ATOM     10  C   UNL     1       0.648  11.366  19.688  0.00  0.00    +0.000 C 
ATOM     11  O   UNL     1       1.486  10.641  18.789  0.00  0.00    +0.000 OA
ENDBRANCH   8  11
ENDBRANCH   2   8
ENDBRANCH   1   5
BRANCH   1  12
ATOM     12  C   UNL     1       4.527   4.076  18.352  0.00  0.00    +0.000 C 
ATOM     13  O   UNL     1       4.441   3.292  17.409  0.00  0.00    +0.000 OA
ATOM     14  N   UNL     1       4.133   3.713  19.635  0.00  0.00    +0.000 N 
ATOM     15  H   UNL     1       4.103   4.407  20.370  0.00  0.00    +0.000 HD
BRANCH  14  16
ATOM     16  C   UNL     1       3.527   2.402  19.885  0.00  0.00    +0.000 C 
ATOM     17  C   UNL     1       3.054   2.236  21.327  0.00  0.00    +0.000 C 
ATOM     18  C   UNL     1       1.799   3.033  21.657  0.00  0.00    +0.000 C 
ATOM     19  C   UNL     1       0.676   2.866  20.637  0.00  0.00    +0.000 C 
ATOM     20  C   UNL     1       1.138   2.947  19.184  0.00  0.00    +0.000 C 
ATOM     21  C   UNL     1       2.374   2.100  18.911  0.00  0.00    +0.000 C 
ENDBRANCH  14  16
ENDBRANCH   1  12
BRANCH   1  22
ATOM     22  N   UNL     1       6.330   5.573  17.381  0.00  0.00    +0.000 N 
ATOM     23  C   UNL     1       6.549   5.223  16.029  0.00  0.00    +0.000 C 
ATOM     24  O   UNL     1       7.706   5.080  15.607  0.00  0.00    +0.000 OA
BRANCH  22  25
ATOM     25  C   UNL     1       7.536   5.457  18.213  0.00  0.00    +0.000 C 
ATOM     26  C   UNL     1       8.190   6.681  18.810  0.00  0.00    +0.000 C 
ATOM     27  C   UNL     1       7.550   5.669  19.705  0.00  0.00    +0.000 C 
ENDBRANCH  22  25
BRANCH  23  28
ATOM     28  C   UNL     1       5.377   5.056  15.086  0.00  0.00    +0.000 C 
BRANCH  28  29
ATOM     29  C   UNL     1       5.720   4.394  13.771  0.00  0.00    +0.000 A 
ATOM     30  C   UNL     1       5.032   3.404  13.092  0.00  0.00    +0.000 A 
ATOM     31  C   UNL     1       5.721   2.964  11.923  0.00  0.00    +0.000 A 
ATOM     32  C   UNL     1       6.913   3.628  11.744  0.00  0.00    +0.000 A 
ATOM     33  S   UNL     1       7.190   4.787  12.971  0.00  0.00    +0.000 S 
ENDBRANCH  28  29
ENDBRANCH  23  28
ENDBRANCH   1  22
TORSDOF 9
ENDMDL
MODEL 5
REMARK VINA RESULT:      -6.5      4.595      8.588
REMARK  Name = 
REMARK  10 active torsions:
REMARK  status: ('A' for Active; 'I' for Inactive)
REMARK    1  A    between atoms: C_1  and  O_2
REMARK    2  A    between atoms: O_2  and  C_3
REMARK    3  A    between atoms: C_3  and  C_5
REMARK    4  A    between atoms: C_8  and  C_9
REMARK    5  A    between atoms: C_9  and  C_10
REMARK    6  A    between atoms: C_9  and  N_19
REMARK    7  A    between atoms: N_12  and  C_13
REMARK    8  A    between atoms: N_19  and  C_28
REMARK    9  A    between atoms: C_20  and  C_22
REMARK   10  A    between atoms: C_22  and  C_23
REMARK                            x       y       z     vdW  Elec       q    Type
REMARK                         _______ _______ _______ _____ _____    ______ ____
ROOT
ATOM      1  C   UNL     1       5.205   5.919  18.652  0.00  0.00    +0.000 C 
ENDROOT
BRANCH   1   5
ATOM      2  C   UNL     1       1.761   8.597  18.708  0.00  0.00    +0.000 A 
ATOM      3  C   UNL     1       2.592   8.545  17.582  0.00  0.00    +0.000 A 
ATOM      4  C   UNL     1       3.628   7.591  17.504  0.00  0.00    +0.000 A 
ATOM      5  C   UNL     1       3.879   6.694  18.567  0.00  0.00    +0.000 A 
ATOM      6  C   UNL     1       2.987   6.732  19.645  0.00  0.00    +0.000 A 
ATOM      7  C   UNL     1       1.930   7.639  19.705  0.00  0.00    +0.000 A 
BRANCH   2   8
ATOM      8  C   UNL     1       0.781   9.707  18.884  0.00  0.00    +0.000 C 
ATOM      9  O   UNL     1       0.724  10.426  19.868  0.00  0.00    +0.000 OA
BRANCH   8  11
ATOM     10  C   UNL     1      -1.332  10.344  18.023  0.00  0.00    +0.000 C 
ATOM     11  O   UNL     1      -0.059   9.733  17.817  0.00  0.00    +0.000 OA
ENDBRANCH   8  11
ENDBRANCH   2   8
ENDBRANCH   1   5
BRANCH   1  12
ATOM     12  C   UNL     1       4.988   4.473  19.193  0.00  0.00    +0.000 C 
ATOM     13  O   UNL     1       5.888   3.636  19.209  0.00  0.00    +0.000 OA
ATOM     14  N   UNL     1       3.706   4.168  19.634  0.00  0.00    +0.000 N 
ATOM     15  H   UNL     1       2.955   4.833  19.504  0.00  0.00    +0.000 HD
BRANCH  14  16
ATOM     16  C   UNL     1       3.369   2.807  20.061  0.00  0.00    +0.000 C 
ATOM     17  C   UNL     1       2.289   2.777  21.139  0.00  0.00    +0.000 C 
ATOM     18  C   UNL     1       0.896   3.108  20.620  0.00  0.00    +0.000 C 
ATOM     19  C   UNL     1       0.506   2.335  19.362  0.00  0.00    +0.000 C 
ATOM     20  C   UNL     1       1.602   2.282  18.301  0.00  0.00    +0.000 C 
ATOM     21  C   UNL     1       2.962   1.911  18.877  0.00  0.00    +0.000 C 
ENDBRANCH  14  16
ENDBRANCH   1  12
BRANCH   1  22
ATOM     22  N   UNL     1       6.184   5.940  17.503  0.00  0.00    +0.000 N 
ATOM     23  C   UNL     1       7.395   6.657  17.378  0.00  0.00    +0.000 C 
ATOM     24  O   UNL     1       7.948   6.750  16.272  0.00  0.00    +0.000 OA
BRANCH  22  25
ATOM     25  C   UNL     1       5.568   5.612  16.210  0.00  0.00    +0.000 C 
ATOM     26  C   UNL     1       6.022   4.409  15.416  0.00  0.00    +0.000 C 
ATOM     27  C   UNL     1       4.644   4.441  15.994  0.00  0.00    +0.000 C 
ENDBRANCH  22  25
BRANCH  23  28
ATOM     28  C   UNL     1       8.041   7.282  18.597  0.00  0.00    +0.000 C 
BRANCH  28  29
ATOM     29  C   UNL     1       8.389   8.744  18.441  0.00  0.00    +0.000 A 
ATOM     30  C   UNL     1       9.359   9.480  19.100  0.00  0.00    +0.000 A 
ATOM     31  C   UNL     1       9.324  10.863  18.752  0.00  0.00    +0.000 A 
ATOM     32  C   UNL     1       8.331  11.143  17.840  0.00  0.00    +0.000 A 
ATOM     33  S   UNL     1       7.457   9.741  17.397  0.00  0.00    +0.000 S 
ENDBRANCH  28  29
ENDBRANCH  23  28
ENDBRANCH   1  22
TORSDOF 9
ENDMDL
MODEL 6
REMARK VINA RESULT:      -6.5      4.261      8.552
REMARK  Name = 
REMARK  10 active torsions:
REMARK  status: ('A' for Active; 'I' for Inactive)
REMARK    1  A    between atoms: C_1  and  O_2
REMARK    2  A    between atoms: O_2  and  C_3
REMARK    3  A    between atoms: C_3  and  C_5
REMARK    4  A    between atoms: C_8  and  C_9
REMARK    5  A    between atoms: C_9  and  C_10
REMARK    6  A    between atoms: C_9  and  N_19
REMARK    7  A    between atoms: N_12  and  C_13
REMARK    8  A    between atoms: N_19  and  C_28
REMARK    9  A    between atoms: C_20  and  C_22
REMARK   10  A    between atoms: C_22  and  C_23
REMARK                            x       y       z     vdW  Elec       q    Type
REMARK                         _______ _______ _______ _____ _____    ______ ____
ROOT
ATOM      1  C   UNL     1       5.161   5.954  18.658  0.00  0.00    +0.000 C 
ENDROOT
BRANCH   1   5
ATOM      2  C   UNL     1       1.797   8.732  18.649  0.00  0.00    +0.000 A 
ATOM      3  C   UNL     1       2.643   8.651  17.536  0.00  0.00    +0.000 A 
ATOM      4  C   UNL     1       3.652   7.666  17.478  0.00  0.00    +0.000 A 
ATOM      5  C   UNL     1       3.859   6.767  18.549  0.00  0.00    +0.000 A 
ATOM      6  C   UNL     1       2.953   6.837  19.613  0.00  0.00    +0.000 A 
ATOM      7  C   UNL     1       1.922   7.775  19.652  0.00  0.00    +0.000 A 
BRANCH   2   8
ATOM      8  C   UNL     1       0.847   9.871  18.804  0.00  0.00    +0.000 C 
ATOM      9  O   UNL     1      -0.355   9.748  18.970  0.00  0.00    +0.000 OA
BRANCH   8  11
ATOM     10  C   UNL     1       0.927  12.199  19.241  0.00  0.00    +0.000 C 
ATOM     11  O   UNL     1       1.526  11.040  18.664  0.00  0.00    +0.000 OA
ENDBRANCH   8  11
ENDBRANCH   2   8
ENDBRANCH   1   5
BRANCH   1  12
ATOM     12  C   UNL     1       4.902   4.540  19.261  0.00  0.00    +0.000 C 
ATOM     13  O   UNL     1       5.791   3.697  19.363  0.00  0.00    +0.000 OA
ATOM     14  N   UNL     1       3.597   4.270  19.655  0.00  0.00    +0.000 N 
ATOM     15  H   UNL     1       2.861   4.934  19.456  0.00  0.00    +0.000 HD
BRANCH  14  16
ATOM     16  C   UNL     1       3.225   2.936  20.135  0.00  0.00    +0.000 C 
ATOM     17  C   UNL     1       1.941   2.941  20.959  0.00  0.00    +0.000 C 
ATOM     18  C   UNL     1       0.680   3.147  20.129  0.00  0.00    +0.000 C 
ATOM     19  C   UNL     1       0.597   2.245  18.900  0.00  0.00    +0.000 C 
ATOM     20  C   UNL     1       1.896   2.159  18.103  0.00  0.00    +0.000 C 
ATOM     21  C   UNL     1       3.113   1.916  18.986  0.00  0.00    +0.000 C 
ENDBRANCH  14  16
ENDBRANCH   1  12
BRANCH   1  22
ATOM     22  N   UNL     1       6.131   5.896  17.503  0.00  0.00    +0.000 N 
ATOM     23  C   UNL     1       7.343   6.599  17.321  0.00  0.00    +0.000 C 
ATOM     24  O   UNL     1       7.887   6.616  16.207  0.00  0.00    +0.000 OA
BRANCH  22  25
ATOM     25  C   UNL     1       5.505   5.482  16.239  0.00  0.00    +0.000 C 
ATOM     26  C   UNL     1       5.930   4.212  15.541  0.00  0.00    +0.000 C 
ATOM     27  C   UNL     1       4.554   4.319  16.115  0.00  0.00    +0.000 C 
ENDBRANCH  22  25
BRANCH  23  28
ATOM     28  C   UNL     1       8.000   7.302  18.491  0.00  0.00    +0.000 C 
BRANCH  28  29
ATOM     29  C   UNL     1       8.174   8.792  18.307  0.00  0.00    +0.000 A 
ATOM     30  C   UNL     1       7.571   9.629  17.384  0.00  0.00    +0.000 A 
ATOM     31  C   UNL     1       8.062  10.967  17.458  0.00  0.00    +0.000 A 
ATOM     32  C   UNL     1       9.024  11.112  18.431  0.00  0.00    +0.000 A 
ATOM     33  S   UNL     1       9.321   9.646  19.261  0.00  0.00    +0.000 S 
ENDBRANCH  28  29
ENDBRANCH  23  28
ENDBRANCH   1  22
TORSDOF 9
ENDMDL
MODEL 7
REMARK VINA RESULT:      -6.4      2.015      3.934
REMARK  Name = 
REMARK  10 active torsions:
REMARK  status: ('A' for Active; 'I' for Inactive)
REMARK    1  A    between atoms: C_1  and  O_2
REMARK    2  A    between atoms: O_2  and  C_3
REMARK    3  A    between atoms: C_3  and  C_5
REMARK    4  A    between atoms: C_8  and  C_9
REMARK    5  A    between atoms: C_9  and  C_10
REMARK    6  A    between atoms: C_9  and  N_19
REMARK    7  A    between atoms: N_12  and  C_13
REMARK    8  A    between atoms: N_19  and  C_28
REMARK    9  A    between atoms: C_20  and  C_22
REMARK   10  A    between atoms: C_22  and  C_23
REMARK                            x       y       z     vdW  Elec       q    Type
REMARK                         _______ _______ _______ _____ _____    ______ ____
ROOT
ATOM      1  C   UNL     1      -0.468  10.493  20.319  0.00  0.00    +0.000 C 
ENDROOT
BRANCH   1   5
ATOM      2  C   UNL     1       2.244   7.136  19.676  0.00  0.00    +0.000 A 
ATOM      3  C   UNL     1       2.169   8.169  18.733  0.00  0.00    +0.000 A 
ATOM      4  C   UNL     1       1.394   9.318  18.995  0.00  0.00    +0.000 A 
ATOM      5  C   UNL     1       0.648   9.442  20.189  0.00  0.00    +0.000 A 
ATOM      6  C   UNL     1       0.801   8.421  21.134  0.00  0.00    +0.000 A 
ATOM      7  C   UNL     1       1.606   7.306  20.902  0.00  0.00    +0.000 A 
BRANCH   2   8
ATOM      8  C   UNL     1       2.911   5.844  19.343  0.00  0.00    +0.000 C 
ATOM      9  O   UNL     1       3.987   5.751  18.777  0.00  0.00    +0.000 OA
BRANCH   8  11
ATOM     10  C   UNL     1       1.666   3.946  18.665  0.00  0.00    +0.000 C 
ATOM     11  O   UNL     1       2.101   4.817  19.708  0.00  0.00    +0.000 OA
ENDBRANCH   8  11
ENDBRANCH   2   8
ENDBRANCH   1   5
BRANCH   1  12
ATOM     12  C   UNL     1      -0.580  11.029  21.779  0.00  0.00    +0.000 C 
ATOM     13  O   UNL     1       0.183  10.666  22.672  0.00  0.00    +0.000 OA
ATOM     14  N   UNL     1      -1.614  11.923  22.027  0.00  0.00    +0.000 N 
ATOM     15  H   UNL     1      -2.298  12.118  21.309  0.00  0.00    +0.000 HD
BRANCH  14  16
ATOM     16  C   UNL     1      -1.872  12.404  23.388  0.00  0.00    +0.000 C 
ATOM     17  C   UNL     1      -1.389  13.834  23.611  0.00  0.00    +0.000 C 
ATOM     18  C   UNL     1      -2.250  14.888  22.926  0.00  0.00    +0.000 C 
ATOM     19  C   UNL     1      -3.747  14.718  23.175  0.00  0.00    +0.000 C 
ATOM     20  C   UNL     1      -4.240  13.280  23.037  0.00  0.00    +0.000 C 
ATOM     21  C   UNL     1      -3.358  12.281  23.773  0.00  0.00    +0.000 C 
ENDBRANCH  14  16
ENDBRANCH   1  12
BRANCH   1  22
ATOM     22  N   UNL     1      -0.598  11.606  19.308  0.00  0.00    +0.000 N 
ATOM     23  C   UNL     1      -1.457  11.697  18.190  0.00  0.00    +0.000 C 
ATOM     24  O   UNL     1      -1.261  12.567  17.328  0.00  0.00    +0.000 OA
BRANCH  22  25
ATOM     25  C   UNL     1       0.624  12.409  19.168  0.00  0.00    +0.000 C 
ATOM     26  C   UNL     1       0.686  13.828  19.685  0.00  0.00    +0.000 C 
ATOM     27  C   UNL     1       1.529  12.769  20.318  0.00  0.00    +0.000 C 
ENDBRANCH  22  25
BRANCH  23  28
ATOM     28  C   UNL     1      -2.639  10.760  18.057  0.00  0.00    +0.000 C 
BRANCH  28  29
ATOM     29  C   UNL     1      -3.980  11.451  17.973  0.00  0.00    +0.000 A 
ATOM     30  C   UNL     1      -4.787  11.646  16.865  0.00  0.00    +0.000 A 
ATOM     31  C   UNL     1      -5.942  12.430  17.163  0.00  0.00    +0.000 A 
ATOM     32  C   UNL     1      -5.982  12.811  18.485  0.00  0.00    +0.000 A 
ATOM     33  S   UNL     1      -4.643  12.212  19.364  0.00  0.00    +0.000 S 
ENDBRANCH  28  29
ENDBRANCH  23  28
ENDBRANCH   1  22
TORSDOF 9
ENDMDL
MODEL 8
REMARK VINA RESULT:      -6.4      2.016      3.823
REMARK  Name = 
REMARK  10 active torsions:
REMARK  status: ('A' for Active; 'I' for Inactive)
REMARK    1  A    between atoms: C_1  and  O_2
REMARK    2  A    between atoms: O_2  and  C_3
REMARK    3  A    between atoms: C_3  and  C_5
REMARK    4  A    between atoms: C_8  and  C_9
REMARK    5  A    between atoms: C_9  and  C_10
REMARK    6  A    between atoms: C_9  and  N_19
REMARK    7  A    between atoms: N_12  and  C_13
REMARK    8  A    between atoms: N_19  and  C_28
REMARK    9  A    between atoms: C_20  and  C_22
REMARK   10  A    between atoms: C_22  and  C_23
REMARK                            x       y       z     vdW  Elec       q    Type
REMARK                         _______ _______ _______ _____ _____    ______ ____
ROOT
ATOM      1  C   UNL     1      -0.324  10.463  20.207  0.00  0.00    +0.000 C 
ENDROOT
BRANCH   1   5
ATOM      2  C   UNL     1       2.271   7.020  19.540  0.00  0.00    +0.000 A 
ATOM      3  C   UNL     1       2.218   8.052  18.595  0.00  0.00    +0.000 A 
ATOM      4  C   UNL     1       1.483   9.227  18.863  0.00  0.00    +0.000 A 
ATOM      5  C   UNL     1       0.756   9.376  20.066  0.00  0.00    +0.000 A 
ATOM      6  C   UNL     1       0.888   8.353  21.012  0.00  0.00    +0.000 A 
ATOM      7  C   UNL     1       1.654   7.213  20.773  0.00  0.00    +0.000 A 
BRANCH   2   8
ATOM      8  C   UNL     1       2.893   5.707  19.201  0.00  0.00    +0.000 C 
ATOM      9  O   UNL     1       2.328   4.815  18.591  0.00  0.00    +0.000 OA
BRANCH   8  11
ATOM     10  C   UNL     1       5.208   5.359  18.839  0.00  0.00    +0.000 C 
ATOM     11  O   UNL     1       4.139   5.652  19.738  0.00  0.00    +0.000 OA
ENDBRANCH   8  11
ENDBRANCH   2   8
ENDBRANCH   1   5
BRANCH   1  12
ATOM     12  C   UNL     1      -0.432  10.973  21.676  0.00  0.00    +0.000 C 
ATOM     13  O   UNL     1       0.315  10.573  22.566  0.00  0.00    +0.000 OA
ATOM     14  N   UNL     1      -1.444  11.889  21.936  0.00  0.00    +0.000 N 
ATOM     15  H   UNL     1      -2.118  12.116  21.217  0.00  0.00    +0.000 HD
BRANCH  14  16
ATOM     16  C   UNL     1      -1.700  12.350  23.304  0.00  0.00    +0.000 C 
ATOM     17  C   UNL     1      -1.286  13.802  23.526  0.00  0.00    +0.000 C 
ATOM     18  C   UNL     1      -2.214  14.812  22.863  0.00  0.00    +0.000 C 
ATOM     19  C   UNL     1      -3.694  14.565  23.141  0.00  0.00    +0.000 C 
ATOM     20  C   UNL     1      -4.116  13.104  23.005  0.00  0.00    +0.000 C 
ATOM     21  C   UNL     1      -3.169  12.148  23.718  0.00  0.00    +0.000 C 
ENDBRANCH  14  16
ENDBRANCH   1  12
BRANCH   1  22
ATOM     22  N   UNL     1      -0.405  11.600  19.218  0.00  0.00    +0.000 N 
ATOM     23  C   UNL     1      -1.272  11.760  18.113  0.00  0.00    +0.000 C 
ATOM     24  O   UNL     1      -1.039  12.633  17.264  0.00  0.00    +0.000 OA
BRANCH  22  25
ATOM     25  C   UNL     1       0.858  12.338  19.075  0.00  0.00    +0.000 C 
ATOM     26  C   UNL     1       0.976  13.773  19.532  0.00  0.00    +0.000 C 
ATOM     27  C   UNL     1       1.751  12.704  20.233  0.00  0.00    +0.000 C 
ENDBRANCH  22  25
BRANCH  23  28
ATOM     28  C   UNL     1      -2.506  10.891  17.980  0.00  0.00    +0.000 C 
BRANCH  28  29
ATOM     29  C   UNL     1      -3.804  11.594  18.303  0.00  0.00    +0.000 A 
ATOM     30  C   UNL     1      -4.174  12.237  19.472  0.00  0.00    +0.000 A 
ATOM     31  C   UNL     1      -5.523  12.701  19.435  0.00  0.00    +0.000 A 
ATOM     32  C   UNL     1      -6.142  12.399  18.244  0.00  0.00    +0.000 A 
ATOM     33  S   UNL     1      -5.097  11.574  17.171  0.00  0.00    +0.000 S 
ENDBRANCH  28  29
ENDBRANCH  23  28
ENDBRANCH   1  22
TORSDOF 9
ENDMDL
MODEL 9
REMARK VINA RESULT:      -6.3      3.209      6.304
REMARK  Name = 
REMARK  10 active torsions:
REMARK  status: ('A' for Active; 'I' for Inactive)
REMARK    1  A    between atoms: C_1  and  O_2
REMARK    2  A    between atoms: O_2  and  C_3
REMARK    3  A    between atoms: C_3  and  C_5
REMARK    4  A    between atoms: C_8  and  C_9
REMARK    5  A    between atoms: C_9  and  C_10
REMARK    6  A    between atoms: C_9  and  N_19
REMARK    7  A    between atoms: N_12  and  C_13
REMARK    8  A    between atoms: N_19  and  C_28
REMARK    9  A    between atoms: C_20  and  C_22
REMARK   10  A    between atoms: C_22  and  C_23
REMARK                            x       y       z     vdW  Elec       q    Type
REMARK                         _______ _______ _______ _____ _____    ______ ____
ROOT
ATOM      1  C   UNL     1       0.388  11.151  20.297  0.00  0.00    +0.000 C 
ENDROOT
BRANCH   1   5
ATOM      2  C   UNL     1      -2.545  10.896  17.077  0.00  0.00    +0.000 A 
ATOM      3  C   UNL     1      -2.549  11.995  17.944  0.00  0.00    +0.000 A 
ATOM      4  C   UNL     1      -1.526  12.150  18.903  0.00  0.00    +0.000 A 
ATOM      5  C   UNL     1      -0.499  11.187  19.040  0.00  0.00    +0.000 A 
ATOM      6  C   UNL     1      -0.494  10.139  18.113  0.00  0.00    +0.000 A 
ATOM      7  C   UNL     1      -1.474  10.009  17.130  0.00  0.00    +0.000 A 
BRANCH   2   8
ATOM      8  C   UNL     1      -3.708  10.626  16.182  0.00  0.00    +0.000 C 
ATOM      9  O   UNL     1      -4.807  11.141  16.306  0.00  0.00    +0.000 OA
BRANCH   8  11
ATOM     10  C   UNL     1      -3.454  10.052  13.897  0.00  0.00    +0.000 C 
ATOM     11  O   UNL     1      -3.359   9.680  15.272  0.00  0.00    +0.000 OA
ENDBRANCH   8  11
ENDBRANCH   2   8
ENDBRANCH   1   5
BRANCH   1  12
ATOM     12  C   UNL     1       1.111  12.513  20.524  0.00  0.00    +0.000 C 
ATOM     13  O   UNL     1       2.012  12.648  21.350  0.00  0.00    +0.000 OA
ATOM     14  N   UNL     1       0.663  13.582  19.758  0.00  0.00    +0.000 N 
ATOM     15  H   UNL     1      -0.153  13.476  19.171  0.00  0.00    +0.000 HD
BRANCH  14  16
ATOM     16  C   UNL     1       1.202  14.928  19.970  0.00  0.00    +0.000 C 
ATOM     17  C   UNL     1       1.088  15.812  18.731  0.00  0.00    +0.000 C 
ATOM     18  C   UNL     1      -0.332  16.277  18.437  0.00  0.00    +0.000 C 
ATOM     19  C   UNL     1      -1.056  16.854  19.651  0.00  0.00    +0.000 C 
ATOM     20  C   UNL     1      -0.889  16.030  20.924  0.00  0.00    +0.000 C 
ATOM     21  C   UNL     1       0.557  15.628  21.181  0.00  0.00    +0.000 C 
ENDBRANCH  14  16
ENDBRANCH   1  12
BRANCH   1  22
ATOM     22  N   UNL     1      -0.135  10.578  21.591  0.00  0.00    +0.000 N 
ATOM     23  C   UNL     1      -0.782  11.237  22.661  0.00  0.00    +0.000 C 
ATOM     24  O   UNL     1      -0.922  10.661  23.749  0.00  0.00    +0.000 OA
BRANCH  22  25
ATOM     25  C   UNL     1       0.555   9.346  22.002  0.00  0.00    +0.000 C 
ATOM     26  C   UNL     1       0.048   7.990  21.570  0.00  0.00    +0.000 C 
ATOM     27  C   UNL     1       1.365   8.486  21.066  0.00  0.00    +0.000 C 
ENDBRANCH  22  25
BRANCH  23  28
ATOM     28  C   UNL     1      -1.337  12.633  22.471  0.00  0.00    +0.000 C 
BRANCH  28  29
ATOM     29  C   UNL     1      -2.804  12.774  22.807  0.00  0.00    +0.000 A 
ATOM     30  C   UNL     1      -3.417  12.729  24.047  0.00  0.00    +0.000 A 
ATOM     31  C   UNL     1      -4.840  12.808  23.955  0.00  0.00    +0.000 A 
ATOM     32  C   UNL     1      -5.269  12.910  22.652  0.00  0.00    +0.000 A 
ATOM     33  S   UNL     1      -3.963  12.926  21.547  0.00  0.00    +0.000 S 
ENDBRANCH  28  29
ENDBRANCH  23  28
ENDBRANCH   1  22
TORSDOF 9
ENDMDL
