MODEL 1
REMARK VINA RESULT:      -8.8      0.000      0.000
REMARK  Name = 
REMARK  1 active torsions:
REMARK  status: ('A' for Active; 'I' for Inactive)
REMARK    1  A    between atoms: C_5  and  O_6
REMARK                            x       y       z     vdW  Elec       q    Type
REMARK                         _______ _______ _______ _____ _____    ______ ____
ROOT
ATOM      1  O   UNL     1       4.355   2.428  18.438  0.00  0.00    +0.000 OA
ATOM      2  C   UNL     1       4.119   3.618  18.258  0.00  0.00    +0.000 C 
ATOM      3  C   UNL     1       4.677   4.344  17.077  0.00  0.00    +0.000 A 
ATOM      4  N   UNL     1       5.442   3.616  16.219  0.00  0.00    +0.000 NA
ATOM      5  C   UNL     1       5.922   4.275  15.154  0.00  0.00    +0.000 A 
ATOM      6  C   UNL     1       5.701   5.604  14.874  0.00  0.00    +0.000 A 
ATOM      7  C   UNL     1       4.920   6.324  15.768  0.00  0.00    +0.000 A 
ATOM      8  C   UNL     1       4.383   5.697  16.905  0.00  0.00    +0.000 A 
ATOM      9  C   UNL     1       3.539   6.400  17.865  0.00  0.00    +0.000 A 
ATOM     10  N   UNL     1       3.270   7.690  17.578  0.00  0.00    +0.000 NA
ATOM     11  C   UNL     1       2.459   8.379  18.379  0.00  0.00    +0.000 A 
ATOM     12  C   UNL     1       2.134   9.663  17.974  0.00  0.00    +0.000 A 
ATOM     13  C   UNL     1       1.264  10.463  18.708  0.00  0.00    +0.000 A 
ATOM     14  C   UNL     1       0.751   9.986  19.904  0.00  0.00    +0.000 A 
ATOM     15  C   UNL     1       1.074   8.698  20.336  0.00  0.00    +0.000 A 
ATOM     16  C   UNL     1       1.902   7.844  19.562  0.00  0.00    +0.000 A 
ATOM     17  C   UNL     1       2.186   6.470  19.858  0.00  0.00    +0.000 A 
ATOM     18  C   UNL     1       1.657   5.751  20.953  0.00  0.00    +0.000 A 
ATOM     19  C   UNL     1       1.946   4.401  21.096  0.00  0.00    +0.000 A 
ATOM     20  N   UNL     1       2.735   3.711  20.253  0.00  0.00    +0.000 NA
ATOM     21  C   UNL     1       3.261   4.396  19.208  0.00  0.00    +0.000 A 
ATOM     22  C   UNL     1       3.014   5.749  18.973  0.00  0.00    +0.000 A 
ENDROOT
BRANCH   5  23
ATOM     23  O   UNL     1       6.675   3.517  14.325  0.00  0.00    +0.000 OA
ATOM     24  H   UNL     1       6.984   2.832  14.947  0.00  0.00    +0.000 HD
ENDBRANCH   5  23
TORSDOF 1
ENDMDL
MODEL 2
REMARK VINA RESULT:      -8.6      0.845      1.075
REMARK  Name = 
REMARK  1 active torsions:
REMARK  status: ('A' for Active; 'I' for Inactive)
REMARK    1  A    between atoms: C_5  and  O_6
REMARK                            x       y       z     vdW  Elec       q    Type
REMARK                         _______ _______ _______ _____ _____    ______ ____
ROOT
ATOM      1  O   UNL     1       4.082   1.633  17.813  0.00  0.00    +0.000 OA
ATOM      2  C   UNL     1       3.881   2.839  17.915  0.00  0.00    +0.000 C 
ATOM      3  C   UNL     1       4.485   3.805  16.949  0.00  0.00    +0.000 A 
ATOM      4  N   UNL     1       5.252   3.277  15.956  0.00  0.00    +0.000 NA
ATOM      5  C   UNL     1       5.773   4.153  15.085  0.00  0.00    +0.000 A 
ATOM      6  C   UNL     1       5.593   5.516  15.123  0.00  0.00    +0.000 A 
ATOM      7  C   UNL     1       4.811   6.030  16.149  0.00  0.00    +0.000 A 
ATOM      8  C   UNL     1       4.231   5.169  17.096  0.00  0.00    +0.000 A 
ATOM      9  C   UNL     1       3.383   5.652  18.181  0.00  0.00    +0.000 A 
ATOM     10  N   UNL     1       3.153   6.981  18.202  0.00  0.00    +0.000 NA
ATOM     11  C   UNL     1       2.342   7.486  19.129  0.00  0.00    +0.000 A 
ATOM     12  C   UNL     1       2.060   8.839  19.033  0.00  0.00    +0.000 A 
ATOM     13  C   UNL     1       1.194   9.469  19.921  0.00  0.00    +0.000 A 
ATOM     14  C   UNL     1       0.641   8.740  20.962  0.00  0.00    +0.000 A 
ATOM     15  C   UNL     1       0.920   7.377  21.083  0.00  0.00    +0.000 A 
ATOM     16  C   UNL     1       1.743   6.704  20.143  0.00  0.00    +0.000 A 
ATOM     17  C   UNL     1       1.985   5.292  20.111  0.00  0.00    +0.000 A 
ATOM     18  C   UNL     1       1.412   4.352  20.995  0.00  0.00    +0.000 A 
ATOM     19  C   UNL     1       1.662   2.997  20.821  0.00  0.00    +0.000 A 
ATOM     20  N   UNL     1       2.453   2.502  19.852  0.00  0.00    +0.000 NA
ATOM     21  C   UNL     1       3.021   3.397  19.007  0.00  0.00    +0.000 A 
ATOM     22  C   UNL     1       2.815   4.774  19.095  0.00  0.00    +0.000 A 
ENDROOT
BRANCH   5  23
ATOM     23  O   UNL     1       6.525   3.589  14.113  0.00  0.00    +0.000 OA
ATOM     24  H   UNL     1       6.630   2.688  14.473  0.00  0.00    +0.000 HD
ENDBRANCH   5  23
TORSDOF 1
ENDMDL
MODEL 3
REMARK VINA RESULT:      -7.8      3.220      6.798
REMARK  Name = 
REMARK  1 active torsions:
REMARK  status: ('A' for Active; 'I' for Inactive)
REMARK    1  A    between atoms: C_5  and  O_6
REMARK                            x       y       z     vdW  Elec       q    Type
REMARK                         _______ _______ _______ _____ _____    ______ ____
ROOT
ATOM      1  O   UNL     1       2.174  10.174  17.497  0.00  0.00    +0.000 OA
ATOM      2  C   UNL     1       2.103   9.229  18.275  0.00  0.00    +0.000 C 
ATOM      3  C   UNL     1       1.236   9.295  19.491  0.00  0.00    +0.000 A 
ATOM      4  N   UNL     1       0.531  10.444  19.675  0.00  0.00    +0.000 NA
ATOM      5  C   UNL     1      -0.257  10.484  20.760  0.00  0.00    +0.000 A 
ATOM      6  C   UNL     1      -0.399   9.470  21.678  0.00  0.00    +0.000 A 
ATOM      7  C   UNL     1       0.335   8.310  21.468  0.00  0.00    +0.000 A 
ATOM      8  C   UNL     1       1.179   8.198  20.352  0.00  0.00    +0.000 A 
ATOM      9  C   UNL     1       1.956   6.995  20.071  0.00  0.00    +0.000 A 
ATOM     10  N   UNL     1       1.788   5.972  20.933  0.00  0.00    +0.000 NA
ATOM     11  C   UNL     1       2.421   4.822  20.708  0.00  0.00    +0.000 A 
ATOM     12  C   UNL     1       2.125   3.775  21.565  0.00  0.00    +0.000 A 
ATOM     13  C   UNL     1       2.693   2.516  21.405  0.00  0.00    +0.000 A 
ATOM     14  C   UNL     1       3.622   2.314  20.396  0.00  0.00    +0.000 A 
ATOM     15  C   UNL     1       3.942   3.360  19.526  0.00  0.00    +0.000 A 
ATOM     16  C   UNL     1       3.317   4.629  19.632  0.00  0.00    +0.000 A 
ATOM     17  C   UNL     1       3.486   5.718  18.716  0.00  0.00    +0.000 A 
ATOM     18  C   UNL     1       4.280   5.678  17.548  0.00  0.00    +0.000 A 
ATOM     19  C   UNL     1       4.308   6.773  16.695  0.00  0.00    +0.000 A 
ATOM     20  N   UNL     1       3.630   7.912  16.918  0.00  0.00    +0.000 NA
ATOM     21  C   UNL     1       2.877   7.967  18.044  0.00  0.00    +0.000 A 
ATOM     22  C   UNL     1       2.774   6.912  18.952  0.00  0.00    +0.000 A 
ENDROOT
BRANCH   5  23
ATOM     23  O   UNL     1      -0.942  11.641  20.906  0.00  0.00    +0.000 OA
ATOM     24  H   UNL     1      -1.060  11.653  21.873  0.00  0.00    +0.000 HD
ENDBRANCH   5  23
TORSDOF 1
ENDMDL
MODEL 4
REMARK VINA RESULT:      -7.8      2.445      5.750
REMARK  Name = 
REMARK  1 active torsions:
REMARK  status: ('A' for Active; 'I' for Inactive)
REMARK    1  A    between atoms: C_5  and  O_6
REMARK                            x       y       z     vdW  Elec       q    Type
REMARK                         _______ _______ _______ _____ _____    ______ ____
ROOT
ATOM      1  O   UNL     1       1.169   3.820  21.296  0.00  0.00    +0.000 OA
ATOM      2  C   UNL     1       1.795   4.336  20.376  0.00  0.00    +0.000 C 
ATOM      3  C   UNL     1       1.796   5.817  20.179  0.00  0.00    +0.000 A 
ATOM      4  N   UNL     1       1.081   6.552  21.075  0.00  0.00    +0.000 NA
ATOM      5  C   UNL     1       1.105   7.881  20.899  0.00  0.00    +0.000 A 
ATOM      6  C   UNL     1       1.783   8.540  19.900  0.00  0.00    +0.000 A 
ATOM      7  C   UNL     1       2.501   7.766  18.996  0.00  0.00    +0.000 A 
ATOM      8  C   UNL     1       2.522   6.367  19.122  0.00  0.00    +0.000 A 
ATOM      9  C   UNL     1       3.276   5.508  18.216  0.00  0.00    +0.000 A 
ATOM     10  N   UNL     1       3.989   6.141  17.262  0.00  0.00    +0.000 NA
ATOM     11  C   UNL     1       4.748   5.424  16.434  0.00  0.00    +0.000 A 
ATOM     12  C   UNL     1       5.539   6.137  15.548  0.00  0.00    +0.000 A 
ATOM     13  C   UNL     1       6.402   5.498  14.663  0.00  0.00    +0.000 A 
ATOM     14  C   UNL     1       6.433   4.113  14.626  0.00  0.00    +0.000 A 
ATOM     15  C   UNL     1       5.635   3.375  15.505  0.00  0.00    +0.000 A 
ATOM     16  C   UNL     1       4.804   4.012  16.462  0.00  0.00    +0.000 A 
ATOM     17  C   UNL     1       4.049   3.346  17.482  0.00  0.00    +0.000 A 
ATOM     18  C   UNL     1       4.045   1.952  17.707  0.00  0.00    +0.000 A 
ATOM     19  C   UNL     1       3.332   1.426  18.775  0.00  0.00    +0.000 A 
ATOM     20  N   UNL     1       2.603   2.170  19.626  0.00  0.00    +0.000 NA
ATOM     21  C   UNL     1       2.587   3.509  19.410  0.00  0.00    +0.000 A 
ATOM     22  C   UNL     1       3.286   4.129  18.374  0.00  0.00    +0.000 A 
ENDROOT
BRANCH   5  23
ATOM     23  O   UNL     1       0.385   8.575  21.810  0.00  0.00    +0.000 OA
ATOM     24  H   UNL     1       0.381   9.457  21.395  0.00  0.00    +0.000 HD
ENDBRANCH   5  23
TORSDOF 1
ENDMDL
MODEL 5
REMARK VINA RESULT:      -7.7      2.823      5.782
REMARK  Name = 
REMARK  1 active torsions:
REMARK  status: ('A' for Active; 'I' for Inactive)
REMARK    1  A    between atoms: C_5  and  O_6
REMARK                            x       y       z     vdW  Elec       q    Type
REMARK                         _______ _______ _______ _____ _____    ______ ____
ROOT
ATOM      1  O   UNL     1       0.659   7.333  21.626  0.00  0.00    +0.000 OA
ATOM      2  C   UNL     1       1.336   7.299  20.604  0.00  0.00    +0.000 C 
ATOM      3  C   UNL     1       1.469   8.501  19.727  0.00  0.00    +0.000 A 
ATOM      4  N   UNL     1       0.814   9.625  20.128  0.00  0.00    +0.000 NA
ATOM      5  C   UNL     1       0.957  10.702  19.342  0.00  0.00    +0.000 A 
ATOM      6  C   UNL     1       1.700  10.751  18.185  0.00  0.00    +0.000 A 
ATOM      7  C   UNL     1       2.354   9.589  17.796  0.00  0.00    +0.000 A 
ATOM      8  C   UNL     1       2.250   8.424  18.573  0.00  0.00    +0.000 A 
ATOM      9  C   UNL     1       2.933   7.183  18.223  0.00  0.00    +0.000 A 
ATOM     10  N   UNL     1       3.708   7.228  17.120  0.00  0.00    +0.000 NA
ATOM     11  C   UNL     1       4.407   6.149  16.772  0.00  0.00    +0.000 A 
ATOM     12  C   UNL     1       5.266   6.291  15.694  0.00  0.00    +0.000 A 
ATOM     13  C   UNL     1       6.076   5.246  15.264  0.00  0.00    +0.000 A 
ATOM     14  C   UNL     1       5.985   4.013  15.892  0.00  0.00    +0.000 A 
ATOM     15  C   UNL     1       5.118   3.847  16.974  0.00  0.00    +0.000 A 
ATOM     16  C   UNL     1       4.338   4.923  17.471  0.00  0.00    +0.000 A 
ATOM     17  C   UNL     1       3.519   4.883  18.646  0.00  0.00    +0.000 A 
ATOM     18  C   UNL     1       3.390   3.771  19.506  0.00  0.00    +0.000 A 
ATOM     19  C   UNL     1       2.623   3.874  20.659  0.00  0.00    +0.000 A 
ATOM     20  N   UNL     1       1.956   4.985  21.016  0.00  0.00    +0.000 NA
ATOM     21  C   UNL     1       2.060   6.055  20.189  0.00  0.00    +0.000 A 
ATOM     22  C   UNL     1       2.820   6.050  19.019  0.00  0.00    +0.000 A 
ENDROOT
BRANCH   5  23
ATOM     23  O   UNL     1       0.294  11.798  19.777  0.00  0.00    +0.000 OA
ATOM     24  H   UNL     1       0.660  11.879  20.677  0.00  0.00    +0.000 HD
ENDBRANCH   5  23
TORSDOF 1
ENDMDL
MODEL 6
REMARK VINA RESULT:      -7.3      2.171      4.605
REMARK  Name = 
REMARK  1 active torsions:
REMARK  status: ('A' for Active; 'I' for Inactive)
REMARK    1  A    between atoms: C_5  and  O_6
REMARK                            x       y       z     vdW  Elec       q    Type
REMARK                         _______ _______ _______ _____ _____    ______ ____
ROOT
ATOM      1  O   UNL     1       3.938   6.220  17.149  0.00  0.00    +0.000 OA
ATOM      2  C   UNL     1       3.233   6.495  18.114  0.00  0.00    +0.000 C 
ATOM      3  C   UNL     1       2.960   5.486  19.182  0.00  0.00    +0.000 A 
ATOM      4  N   UNL     1       3.540   4.264  19.029  0.00  0.00    +0.000 NA
ATOM      5  C   UNL     1       3.302   3.374  20.004  0.00  0.00    +0.000 A 
ATOM      6  C   UNL     1       2.530   3.601  21.119  0.00  0.00    +0.000 A 
ATOM      7  C   UNL     1       1.945   4.855  21.247  0.00  0.00    +0.000 A 
ATOM      8  C   UNL     1       2.154   5.837  20.265  0.00  0.00    +0.000 A 
ATOM      9  C   UNL     1       1.583   7.176  20.360  0.00  0.00    +0.000 A 
ATOM     10  N   UNL     1       0.866   7.433  21.473  0.00  0.00    +0.000 NA
ATOM     11  C   UNL     1       0.363   8.653  21.656  0.00  0.00    +0.000 A 
ATOM     12  C   UNL     1      -0.270   8.886  22.866  0.00  0.00    +0.000 A 
ATOM     13  C   UNL     1      -0.799  10.131  23.186  0.00  0.00    +0.000 A 
ATOM     14  C   UNL     1      -0.742  11.153  22.250  0.00  0.00    +0.000 A 
ATOM     15  C   UNL     1      -0.118  10.936  21.020  0.00  0.00    +0.000 A 
ATOM     16  C   UNL     1       0.491   9.693  20.707  0.00  0.00    +0.000 A 
ATOM     17  C   UNL     1       1.259   9.416  19.530  0.00  0.00    +0.000 A 
ATOM     18  C   UNL     1       1.553  10.353  18.515  0.00  0.00    +0.000 A 
ATOM     19  C   UNL     1       2.372   9.990  17.455  0.00  0.00    +0.000 A 
ATOM     20  N   UNL     1       2.905   8.764  17.308  0.00  0.00    +0.000 NA
ATOM     21  C   UNL     1       2.616   7.851  18.268  0.00  0.00    +0.000 A 
ATOM     22  C   UNL     1       1.817   8.129  19.378  0.00  0.00    +0.000 A 
ENDROOT
BRANCH   5  23
ATOM     23  O   UNL     1       3.898   2.174  19.817  0.00  0.00    +0.000 OA
ATOM     24  H   UNL     1       3.128   1.581  19.901  0.00  0.00    +0.000 HD
ENDBRANCH   5  23
TORSDOF 1
ENDMDL
MODEL 7
REMARK VINA RESULT:      -7.3      2.652      5.996
REMARK  Name = 
REMARK  1 active torsions:
REMARK  status: ('A' for Active; 'I' for Inactive)
REMARK    1  A    between atoms: C_5  and  O_6
REMARK                            x       y       z     vdW  Elec       q    Type
REMARK                         _______ _______ _______ _____ _____    ______ ____
ROOT
ATOM      1  O   UNL     1       1.082   6.552  20.944  0.00  0.00    +0.000 OA
ATOM      2  C   UNL     1       1.857   5.927  20.227  0.00  0.00    +0.000 C 
ATOM      3  C   UNL     1       2.121   4.475  20.459  0.00  0.00    +0.000 A 
ATOM      4  N   UNL     1       1.452   3.891  21.490  0.00  0.00    +0.000 NA
ATOM      5  C   UNL     1       1.684   2.583  21.676  0.00  0.00    +0.000 A 
ATOM      6  C   UNL     1       2.530   1.808  20.918  0.00  0.00    +0.000 A 
ATOM      7  C   UNL     1       3.204   2.431  19.875  0.00  0.00    +0.000 A 
ATOM      8  C   UNL     1       3.007   3.798  19.620  0.00  0.00    +0.000 A 
ATOM      9  C   UNL     1       3.671   4.497  18.526  0.00  0.00    +0.000 A 
ATOM     10  N   UNL     1       4.464   3.741  17.740  0.00  0.00    +0.000 NA
ATOM     11  C   UNL     1       5.058   4.299  16.686  0.00  0.00    +0.000 A 
ATOM     12  C   UNL     1       5.771   3.449  15.856  0.00  0.00    +0.000 A 
ATOM     13  C   UNL     1       6.400   3.910  14.705  0.00  0.00    +0.000 A 
ATOM     14  C   UNL     1       6.360   5.263  14.405  0.00  0.00    +0.000 A 
ATOM     15  C   UNL     1       5.655   6.139  15.234  0.00  0.00    +0.000 A 
ATOM     16  C   UNL     1       4.948   5.673  16.373  0.00  0.00    +0.000 A 
ATOM     17  C   UNL     1       4.098   6.469  17.207  0.00  0.00    +0.000 A 
ATOM     18  C   UNL     1       3.812   7.837  17.002  0.00  0.00    +0.000 A 
ATOM     19  C   UNL     1       2.913   8.488  17.835  0.00  0.00    +0.000 A 
ATOM     20  N   UNL     1       2.292   7.897  18.871  0.00  0.00    +0.000 NA
ATOM     21  C   UNL     1       2.571   6.588  19.088  0.00  0.00    +0.000 A 
ATOM     22  C   UNL     1       3.448   5.847  18.294  0.00  0.00    +0.000 A 
ENDROOT
BRANCH   5  23
ATOM     23  O   UNL     1       0.999   2.039  22.708  0.00  0.00    +0.000 OA
ATOM     24  H   UNL     1       1.534   2.356  23.460  0.00  0.00    +0.000 HD
ENDBRANCH   5  23
TORSDOF 1
ENDMDL
MODEL 8
REMARK VINA RESULT:      -7.1      7.652     10.852
REMARK  Name = 
REMARK  1 active torsions:
REMARK  status: ('A' for Active; 'I' for Inactive)
REMARK    1  A    between atoms: C_5  and  O_6
REMARK                            x       y       z     vdW  Elec       q    Type
REMARK                         _______ _______ _______ _____ _____    ______ ____
ROOT
ATOM      1  O   UNL     1      -0.739  13.457  23.669  0.00  0.00    +0.000 OA
ATOM      2  C   UNL     1      -1.447  13.168  22.710  0.00  0.00    +0.000 C 
ATOM      3  C   UNL     1      -2.858  13.654  22.620  0.00  0.00    +0.000 A 
ATOM      4  N   UNL     1      -3.300  14.435  23.643  0.00  0.00    +0.000 NA
ATOM      5  C   UNL     1      -4.561  14.880  23.541  0.00  0.00    +0.000 A 
ATOM      6  C   UNL     1      -5.420  14.608  22.501  0.00  0.00    +0.000 A 
ATOM      7  C   UNL     1      -4.944  13.805  21.472  0.00  0.00    +0.000 A 
ATOM      8  C   UNL     1      -3.632  13.306  21.513  0.00  0.00    +0.000 A 
ATOM      9  C   UNL     1      -3.073  12.476  20.450  0.00  0.00    +0.000 A 
ATOM     10  N   UNL     1      -3.884  12.244  19.398  0.00  0.00    +0.000 NA
ATOM     11  C   UNL     1      -3.422  11.543  18.363  0.00  0.00    +0.000 A 
ATOM     12  C   UNL     1      -4.263  11.430  17.268  0.00  0.00    +0.000 A 
ATOM     13  C   UNL     1      -3.875  10.756  16.116  0.00  0.00    +0.000 A 
ATOM     14  C   UNL     1      -2.636  10.133  16.078  0.00  0.00    +0.000 A 
ATOM     15  C   UNL     1      -1.777  10.226  17.176  0.00  0.00    +0.000 A 
ATOM     16  C   UNL     1      -2.130  10.971  18.331  0.00  0.00    +0.000 A 
ATOM     17  C   UNL     1      -1.271  11.228  19.449  0.00  0.00    +0.000 A 
ATOM     18  C   UNL     1       0.071  10.801  19.554  0.00  0.00    +0.000 A 
ATOM     19  C   UNL     1       0.831  11.174  20.654  0.00  0.00    +0.000 A 
ATOM     20  N   UNL     1       0.359  11.917  21.671  0.00  0.00    +0.000 NA
ATOM     21  C   UNL     1      -0.934  12.319  21.588  0.00  0.00    +0.000 A 
ATOM     22  C   UNL     1      -1.768  12.007  20.514  0.00  0.00    +0.000 A 
ENDROOT
BRANCH   5  23
ATOM     23  O   UNL     1      -4.963  15.654  24.575  0.00  0.00    +0.000 OA
ATOM     24  H   UNL     1      -4.340  15.359  25.265  0.00  0.00    +0.000 HD
ENDBRANCH   5  23
TORSDOF 1
ENDMDL
MODEL 9
REMARK VINA RESULT:      -7.0      5.628      8.706
REMARK  Name = 
REMARK  1 active torsions:
REMARK  status: ('A' for Active; 'I' for Inactive)
REMARK    1  A    between atoms: C_5  and  O_6
REMARK                            x       y       z     vdW  Elec       q    Type
REMARK                         _______ _______ _______ _____ _____    ______ ____
ROOT
ATOM      1  O   UNL     1      -1.389  13.448  23.154  0.00  0.00    +0.000 OA
ATOM      2  C   UNL     1      -0.874  12.918  22.175  0.00  0.00    +0.000 C 
ATOM      3  C   UNL     1      -0.665  13.681  20.907  0.00  0.00    +0.000 A 
ATOM      4  N   UNL     1      -1.062  14.983  20.906  0.00  0.00    +0.000 NA
ATOM      5  C   UNL     1      -0.852  15.661  19.768  0.00  0.00    +0.000 A 
ATOM      6  C   UNL     1      -0.278  15.147  18.629  0.00  0.00    +0.000 A 
ATOM      7  C   UNL     1       0.114  13.815  18.656  0.00  0.00    +0.000 A 
ATOM      8  C   UNL     1      -0.074  13.045  19.815  0.00  0.00    +0.000 A 
ATOM      9  C   UNL     1       0.339  11.648  19.906  0.00  0.00    +0.000 A 
ATOM     10  N   UNL     1       0.951  11.143  18.816  0.00  0.00    +0.000 NA
ATOM     11  C   UNL     1       1.406   9.892  18.847  0.00  0.00    +0.000 A 
ATOM     12  C   UNL     1       2.121   9.466  17.739  0.00  0.00    +0.000 A 
ATOM     13  C   UNL     1       2.679   8.195  17.674  0.00  0.00    +0.000 A 
ATOM     14  C   UNL     1       2.471   7.308  18.719  0.00  0.00    +0.000 A 
ATOM     15  C   UNL     1       1.745   7.714  19.842  0.00  0.00    +0.000 A 
ATOM     16  C   UNL     1       1.231   9.031  19.954  0.00  0.00    +0.000 A 
ATOM     17  C   UNL     1       0.587   9.576  21.112  0.00  0.00    +0.000 A 
ATOM     18  C   UNL     1       0.394   8.889  22.331  0.00  0.00    +0.000 A 
ATOM     19  C   UNL     1      -0.179   9.545  23.411  0.00  0.00    +0.000 A 
ATOM     20  N   UNL     1      -0.596  10.823  23.374  0.00  0.00    +0.000 NA
ATOM     21  C   UNL     1      -0.431  11.488  22.204  0.00  0.00    +0.000 A 
ATOM     22  C   UNL     1       0.149  10.917  21.071  0.00  0.00    +0.000 A 
ENDROOT
BRANCH   5  23
ATOM     23  O   UNL     1      -1.258  16.951  19.808  0.00  0.00    +0.000 OA
ATOM     24  H   UNL     1      -0.397  17.407  19.771  0.00  0.00    +0.000 HD
ENDBRANCH   5  23
TORSDOF 1
ENDMDL
