MODEL 1
REMARK VINA RESULT:      -7.8      0.000      0.000
REMARK  Name = 
REMARK  11 active torsions:
REMARK  status: ('A' for Active; 'I' for Inactive)
REMARK    1  A    between atoms: C_1  and  O_2
REMARK    2  A    between atoms: O_2  and  C_3
REMARK    3  A    between atoms: C_5  and  C_6
REMARK    4  A    between atoms: C_7  and  C_8
REMARK    5  A    between atoms: C_8  and  O_10
REMARK    6  A    between atoms: O_10  and  C_11
REMARK    7  A    between atoms: C_16  and  C_17
REMARK    8  A    between atoms: C_18  and  C_19
REMARK    9  A    between atoms: C_18  and  C_20
REMARK   10  A    between atoms: C_22  and  N_23
REMARK   11  A    between atoms: C_26  and  O_27
REMARK                            x       y       z     vdW  Elec       q    Type
REMARK                         _______ _______ _______ _____ _____    ______ ____
ROOT
ATOM      1  C   UNL     1       2.796   7.954  17.396  0.00  0.00    +0.000 C 
ATOM      2  C   UNL     1       3.936   7.290  17.680  0.00  0.00    +0.000 C 
ENDROOT
BRANCH   1   5
ATOM      3  C   UNL     1       1.340  11.197  18.826  0.00  0.00    +0.000 A 
ATOM      4  C   UNL     1       1.970  10.263  17.965  0.00  0.00    +0.000 A 
ATOM      5  C   UNL     1       2.105   8.902  18.304  0.00  0.00    +0.000 A 
ATOM      6  C   UNL     1       1.620   8.497  19.548  0.00  0.00    +0.000 A 
ATOM      7  C   UNL     1       1.001   9.413  20.416  0.00  0.00    +0.000 A 
ATOM      8  C   UNL     1       0.853  10.769  20.070  0.00  0.00    +0.000 A 
BRANCH   7   9
ATOM      9  N   UNL     1       0.508   8.909  21.706  0.00  0.00    +0.000 N 
ATOM     10  O   UNL     1      -0.444   8.115  21.695  0.00  0.00    +0.000 OA
ATOM     11  O   UNL     1       1.071   9.306  22.737  0.00  0.00    +0.000 OA
ENDBRANCH   7   9
BRANCH   3  13
ATOM     12  C   UNL     1       2.464  13.267  18.320  0.00  0.00    +0.000 C 
ATOM     13  O   UNL     1       1.284  12.464  18.300  0.00  0.00    +0.000 OA
ENDBRANCH   3  13
BRANCH   8  14
ATOM     14  O   UNL     1       0.257  11.678  20.903  0.00  0.00    +0.000 OA
ATOM     15  H   UNL     1       0.442  11.475  21.846  0.00  0.00    +0.000 HD
ENDBRANCH   8  14
ENDBRANCH   1   5
BRANCH   2  16
ATOM     16  C   UNL     1       4.569   6.362  16.703  0.00  0.00    +0.000 C 
ATOM     17  O   UNL     1       5.153   6.711  15.687  0.00  0.00    +0.000 OA
BRANCH  16  18
ATOM     18  O   UNL     1       4.385   5.080  17.130  0.00  0.00    +0.000 OA
BRANCH  18  19
ATOM     19  C   UNL     1       3.742   4.921  18.410  0.00  0.00    +0.000 C 
ATOM     20  C   UNL     1       4.618   4.144  19.415  0.00  0.00    +0.000 C 
ATOM     21  C   UNL     1       3.710   2.965  19.846  0.00  0.00    +0.000 C 
ATOM     22  C   UNL     1       3.705   1.968  18.666  0.00  0.00    +0.000 C 
ATOM     23  C   UNL     1       2.841   2.690  17.618  0.00  0.00    +0.000 C 
ATOM     24  C   UNL     1       2.459   4.017  18.336  0.00  0.00    +0.000 C 
ATOM     25  C   UNL     1       1.265   4.705  17.701  0.00  0.00    +0.000 C 
ATOM     26  C   UNL     1       2.279   3.562  19.819  0.00  0.00    +0.000 C 
ATOM     27  C   UNL     1       1.153   2.534  20.064  0.00  0.00    +0.000 C 
ATOM     28  C   UNL     1       2.049   4.691  20.843  0.00  0.00    +0.000 C 
ENDBRANCH  18  19
ENDBRANCH  16  18
ENDBRANCH   2  16
TORSDOF 7
ENDMDL
MODEL 2
REMARK VINA RESULT:      -7.8      1.214      1.407
REMARK  Name = 
REMARK  11 active torsions:
REMARK  status: ('A' for Active; 'I' for Inactive)
REMARK    1  A    between atoms: C_1  and  O_2
REMARK    2  A    between atoms: O_2  and  C_3
REMARK    3  A    between atoms: C_5  and  C_6
REMARK    4  A    between atoms: C_7  and  C_8
REMARK    5  A    between atoms: C_8  and  O_10
REMARK    6  A    between atoms: O_10  and  C_11
REMARK    7  A    between atoms: C_16  and  C_17
REMARK    8  A    between atoms: C_18  and  C_19
REMARK    9  A    between atoms: C_18  and  C_20
REMARK   10  A    between atoms: C_22  and  N_23
REMARK   11  A    between atoms: C_26  and  O_27
REMARK                            x       y       z     vdW  Elec       q    Type
REMARK                         _______ _______ _______ _____ _____    ______ ____
ROOT
ATOM      1  C   UNL     1       2.542   8.120  17.738  0.00  0.00    +0.000 C 
ATOM      2  C   UNL     1       3.322   7.109  18.178  0.00  0.00    +0.000 C 
ENDROOT
BRANCH   1   5
ATOM      3  C   UNL     1      -0.203  10.591  18.757  0.00  0.00    +0.000 A 
ATOM      4  C   UNL     1       0.705   9.823  17.985  0.00  0.00    +0.000 A 
ATOM      5  C   UNL     1       1.582   8.886  18.568  0.00  0.00    +0.000 A 
ATOM      6  C   UNL     1       1.551   8.755  19.956  0.00  0.00    +0.000 A 
ATOM      7  C   UNL     1       0.662   9.515  20.736  0.00  0.00    +0.000 A 
ATOM      8  C   UNL     1      -0.223  10.439  20.150  0.00  0.00    +0.000 A 
BRANCH   7   9
ATOM      9  N   UNL     1       0.684   9.315  22.192  0.00  0.00    +0.000 N 
ATOM     10  O   UNL     1      -0.390   9.068  22.761  0.00  0.00    +0.000 OA
ATOM     11  O   UNL     1       1.775   9.406  22.774  0.00  0.00    +0.000 OA
ENDBRANCH   7   9
BRANCH   3  13
ATOM     12  C   UNL     1      -2.254  10.944  17.544  0.00  0.00    +0.000 C 
ATOM     13  O   UNL     1      -0.989  11.423  17.997  0.00  0.00    +0.000 OA
ENDBRANCH   3  13
BRANCH   8  14
ATOM     14  O   UNL     1      -1.094  11.192  20.893  0.00  0.00    +0.000 OA
ATOM     15  H   UNL     1      -0.987  12.151  20.708  0.00  0.00    +0.000 HD
ENDBRANCH   8  14
ENDBRANCH   1   5
BRANCH   2  16
ATOM     16  C   UNL     1       4.269   6.397  17.276  0.00  0.00    +0.000 C 
ATOM     17  O   UNL     1       4.911   6.928  16.382  0.00  0.00    +0.000 OA
BRANCH  16  18
ATOM     18  O   UNL     1       4.292   5.078  17.615  0.00  0.00    +0.000 OA
BRANCH  18  19
ATOM     19  C   UNL     1       3.393   4.674  18.667  0.00  0.00    +0.000 C 
ATOM     20  C   UNL     1       4.076   3.754  19.702  0.00  0.00    +0.000 C 
ATOM     21  C   UNL     1       3.179   2.492  19.708  0.00  0.00    +0.000 C 
ATOM     22  C   UNL     1       3.503   1.722  18.409  0.00  0.00    +0.000 C 
ATOM     23  C   UNL     1       2.846   2.595  17.327  0.00  0.00    +0.000 C 
ATOM     24  C   UNL     1       2.224   3.761  18.149  0.00  0.00    +0.000 C 
ATOM     25  C   UNL     1       1.155   4.517  17.381  0.00  0.00    +0.000 C 
ATOM     26  C   UNL     1       1.751   3.043  19.453  0.00  0.00    +0.000 C 
ATOM     27  C   UNL     1       0.672   1.956  19.257  0.00  0.00    +0.000 C 
ATOM     28  C   UNL     1       1.223   3.964  20.571  0.00  0.00    +0.000 C 
ENDBRANCH  18  19
ENDBRANCH  16  18
ENDBRANCH   2  16
TORSDOF 7
ENDMDL
MODEL 3
REMARK VINA RESULT:      -7.7      6.313     10.394
REMARK  Name = 
REMARK  11 active torsions:
REMARK  status: ('A' for Active; 'I' for Inactive)
REMARK    1  A    between atoms: C_1  and  O_2
REMARK    2  A    between atoms: O_2  and  C_3
REMARK    3  A    between atoms: C_5  and  C_6
REMARK    4  A    between atoms: C_7  and  C_8
REMARK    5  A    between atoms: C_8  and  O_10
REMARK    6  A    between atoms: O_10  and  C_11
REMARK    7  A    between atoms: C_16  and  C_17
REMARK    8  A    between atoms: C_18  and  C_19
REMARK    9  A    between atoms: C_18  and  C_20
REMARK   10  A    between atoms: C_22  and  N_23
REMARK   11  A    between atoms: C_26  and  O_27
REMARK                            x       y       z     vdW  Elec       q    Type
REMARK                         _______ _______ _______ _____ _____    ______ ____
ROOT
ATOM      1  C   UNL     1       8.212   7.680  18.736  0.00  0.00    +0.000 C 
ATOM      2  C   UNL     1       8.295   8.938  18.252  0.00  0.00    +0.000 C 
ENDROOT
BRANCH   1   5
ATOM      3  C   UNL     1       6.078   4.531  18.275  0.00  0.00    +0.000 A 
ATOM      4  C   UNL     1       6.759   5.629  18.861  0.00  0.00    +0.000 A 
ATOM      5  C   UNL     1       7.485   6.559  18.092  0.00  0.00    +0.000 A 
ATOM      6  C   UNL     1       7.543   6.349  16.714  0.00  0.00    +0.000 A 
ATOM      7  C   UNL     1       6.882   5.261  16.120  0.00  0.00    +0.000 A 
ATOM      8  C   UNL     1       6.143   4.341  16.887  0.00  0.00    +0.000 A 
BRANCH   7   9
ATOM      9  N   UNL     1       6.983   5.111  14.660  0.00  0.00    +0.000 N 
ATOM     10  O   UNL     1       7.982   5.580  14.095  0.00  0.00    +0.000 OA
ATOM     11  O   UNL     1       6.062   4.524  14.072  0.00  0.00    +0.000 OA
ENDBRANCH   7   9
BRANCH   3  13
ATOM     12  C   UNL     1       4.014   3.996  19.395  0.00  0.00    +0.000 C 
ATOM     13  O   UNL     1       5.407   3.760  19.191  0.00  0.00    +0.000 OA
ENDBRANCH   3  13
BRANCH   8  14
ATOM     14  O   UNL     1       5.495   3.272  16.327  0.00  0.00    +0.000 OA
ATOM     15  H   UNL     1       5.579   2.469  16.886  0.00  0.00    +0.000 HD
ENDBRANCH   8  14
ENDBRANCH   1   5
BRANCH   2  16
ATOM     16  C   UNL     1       9.056  10.004  18.960  0.00  0.00    +0.000 C 
ATOM     17  O   UNL     1       9.327   9.992  20.152  0.00  0.00    +0.000 OA
BRANCH  16  18
ATOM     18  O   UNL     1       9.388  10.976  18.065  0.00  0.00    +0.000 OA
BRANCH  18  19
ATOM     19  C   UNL     1       9.539  12.308  18.595  0.00  0.00    +0.000 C 
ATOM     20  C   UNL     1       9.046  13.391  17.612  0.00  0.00    +0.000 C 
ATOM     21  C   UNL     1      10.279  14.312  17.444  0.00  0.00    +0.000 C 
ATOM     22  C   UNL     1      11.268  13.551  16.534  0.00  0.00    +0.000 C 
ATOM     23  C   UNL     1      11.799  12.446  17.462  0.00  0.00    +0.000 C 
ATOM     24  C   UNL     1      11.042  12.715  18.794  0.00  0.00    +0.000 C 
ATOM     25  C   UNL     1      11.701  12.051  19.989  0.00  0.00    +0.000 C 
ATOM     26  C   UNL     1      10.968  14.275  18.833  0.00  0.00    +0.000 C 
ATOM     27  C   UNL     1      12.329  15.001  18.891  0.00  0.00    +0.000 C 
ATOM     28  C   UNL     1      10.121  14.877  19.972  0.00  0.00    +0.000 C 
ENDBRANCH  18  19
ENDBRANCH  16  18
ENDBRANCH   2  16
TORSDOF 7
ENDMDL
MODEL 4
REMARK VINA RESULT:      -7.3      1.670      2.686
REMARK  Name = 
REMARK  11 active torsions:
REMARK  status: ('A' for Active; 'I' for Inactive)
REMARK    1  A    between atoms: C_1  and  O_2
REMARK    2  A    between atoms: O_2  and  C_3
REMARK    3  A    between atoms: C_5  and  C_6
REMARK    4  A    between atoms: C_7  and  C_8
REMARK    5  A    between atoms: C_8  and  O_10
REMARK    6  A    between atoms: O_10  and  C_11
REMARK    7  A    between atoms: C_16  and  C_17
REMARK    8  A    between atoms: C_18  and  C_19
REMARK    9  A    between atoms: C_18  and  C_20
REMARK   10  A    between atoms: C_22  and  N_23
REMARK   11  A    between atoms: C_26  and  O_27
REMARK                            x       y       z     vdW  Elec       q    Type
REMARK                         _______ _______ _______ _____ _____    ______ ____
ROOT
ATOM      1  C   UNL     1       1.853   8.300  19.104  0.00  0.00    +0.000 C 
ATOM      2  C   UNL     1       2.635   8.372  18.006  0.00  0.00    +0.000 C 
ENDROOT
BRANCH   1   5
ATOM      3  C   UNL     1      -0.729  11.128  18.972  0.00  0.00    +0.000 A 
ATOM      4  C   UNL     1       0.185  10.113  18.589  0.00  0.00    +0.000 A 
ATOM      5  C   UNL     1       0.881   9.334  19.535  0.00  0.00    +0.000 A 
ATOM      6  C   UNL     1       0.666   9.616  20.884  0.00  0.00    +0.000 A 
ATOM      7  C   UNL     1      -0.230  10.625  21.278  0.00  0.00    +0.000 A 
ATOM      8  C   UNL     1      -0.936  11.391  20.333  0.00  0.00    +0.000 A 
BRANCH   7   9
ATOM      9  N   UNL     1      -0.409  10.858  22.719  0.00  0.00    +0.000 N 
ATOM     10  O   UNL     1      -0.622  12.019  23.099  0.00  0.00    +0.000 OA
ATOM     11  O   UNL     1      -0.336   9.879  23.478  0.00  0.00    +0.000 OA
ENDBRANCH   7   9
BRANCH   3  13
ATOM     12  C   UNL     1      -2.560  11.230  17.409  0.00  0.00    +0.000 C 
ATOM     13  O   UNL     1      -1.325  11.749  17.902  0.00  0.00    +0.000 OA
ENDBRANCH   3  13
BRANCH   8  14
ATOM     14  O   UNL     1      -1.810  12.381  20.697  0.00  0.00    +0.000 OA
ATOM     15  H   UNL     1      -2.037  12.958  19.935  0.00  0.00    +0.000 HD
ENDBRANCH   8  14
ENDBRANCH   1   5
BRANCH   2  16
ATOM     16  C   UNL     1       3.579   7.280  17.641  0.00  0.00    +0.000 C 
ATOM     17  O   UNL     1       4.273   7.266  16.635  0.00  0.00    +0.000 OA
BRANCH  16  18
ATOM     18  O   UNL     1       3.534   6.318  18.606  0.00  0.00    +0.000 OA
BRANCH  18  19
ATOM     19  C   UNL     1       3.150   4.998  18.174  0.00  0.00    +0.000 C 
ATOM     20  C   UNL     1       1.646   4.904  17.839  0.00  0.00    +0.000 C 
ATOM     21  C   UNL     1       1.149   3.750  18.745  0.00  0.00    +0.000 C 
ATOM     22  C   UNL     1       1.071   4.324  20.176  0.00  0.00    +0.000 C 
ATOM     23  C   UNL     1       2.552   4.445  20.572  0.00  0.00    +0.000 C 
ATOM     24  C   UNL     1       3.295   3.922  19.309  0.00  0.00    +0.000 C 
ATOM     25  C   UNL     1       4.732   3.526  19.593  0.00  0.00    +0.000 C 
ATOM     26  C   UNL     1       2.355   2.777  18.812  0.00  0.00    +0.000 C 
ATOM     27  C   UNL     1       2.172   1.599  19.792  0.00  0.00    +0.000 C 
ATOM     28  C   UNL     1       2.729   2.144  17.457  0.00  0.00    +0.000 C 
ENDBRANCH  18  19
ENDBRANCH  16  18
ENDBRANCH   2  16
TORSDOF 7
ENDMDL
MODEL 5
REMARK VINA RESULT:      -7.3      1.574      2.268
REMARK  Name = 
REMARK  11 active torsions:
REMARK  status: ('A' for Active; 'I' for Inactive)
REMARK    1  A    between atoms: C_1  and  O_2
REMARK    2  A    between atoms: O_2  and  C_3
REMARK    3  A    between atoms: C_5  and  C_6
REMARK    4  A    between atoms: C_7  and  C_8
REMARK    5  A    between atoms: C_8  and  O_10
REMARK    6  A    between atoms: O_10  and  C_11
REMARK    7  A    between atoms: C_16  and  C_17
REMARK    8  A    between atoms: C_18  and  C_19
REMARK    9  A    between atoms: C_18  and  C_20
REMARK   10  A    between atoms: C_22  and  N_23
REMARK   11  A    between atoms: C_26  and  O_27
REMARK                            x       y       z     vdW  Elec       q    Type
REMARK                         _______ _______ _______ _____ _____    ______ ____
ROOT
ATOM      1  C   UNL     1       1.866   7.906  19.349  0.00  0.00    +0.000 C 
ATOM      2  C   UNL     1       2.464   7.844  18.141  0.00  0.00    +0.000 C 
ENDROOT
BRANCH   1   5
ATOM      3  C   UNL     1      -0.174  11.148  19.400  0.00  0.00    +0.000 A 
ATOM      4  C   UNL     1       0.612  10.053  18.960  0.00  0.00    +0.000 A 
ATOM      5  C   UNL     1       1.020   9.024  19.832  0.00  0.00    +0.000 A 
ATOM      6  C   UNL     1       0.647   9.131  21.172  0.00  0.00    +0.000 A 
ATOM      7  C   UNL     1      -0.124  10.215  21.624  0.00  0.00    +0.000 A 
ATOM      8  C   UNL     1      -0.544  11.234  20.750  0.00  0.00    +0.000 A 
BRANCH   7   9
ATOM      9  N   UNL     1      -0.483  10.253  23.050  0.00  0.00    +0.000 N 
ATOM     10  O   UNL     1      -1.563  10.776  23.364  0.00  0.00    +0.000 OA
ATOM     11  O   UNL     1       0.315   9.762  23.862  0.00  0.00    +0.000 OA
ENDBRANCH   7   9
BRANCH   3  13
ATOM     12  C   UNL     1      -1.732  11.863  17.707  0.00  0.00    +0.000 C 
ATOM     13  O   UNL     1      -0.490  12.026  18.392  0.00  0.00    +0.000 OA
ENDBRANCH   3  13
BRANCH   8  14
ATOM     14  O   UNL     1      -1.292  12.301  21.172  0.00  0.00    +0.000 OA
ATOM     15  H   UNL     1      -2.088  12.425  20.612  0.00  0.00    +0.000 HD
ENDBRANCH   8  14
ENDBRANCH   1   5
BRANCH   2  16
ATOM     16  C   UNL     1       3.292   6.676  17.732  0.00  0.00    +0.000 C 
ATOM     17  O   UNL     1       4.456   6.741  17.364  0.00  0.00    +0.000 OA
BRANCH  16  18
ATOM     18  O   UNL     1       2.539   5.545  17.836  0.00  0.00    +0.000 OA
BRANCH  18  19
ATOM     19  C   UNL     1       3.117   4.460  18.589  0.00  0.00    +0.000 C 
ATOM     20  C   UNL     1       3.015   3.110  17.847  0.00  0.00    +0.000 C 
ATOM     21  C   UNL     1       2.277   2.199  18.859  0.00  0.00    +0.000 C 
ATOM     22  C   UNL     1       0.795   2.634  18.834  0.00  0.00    +0.000 C 
ATOM     23  C   UNL     1       0.828   3.987  19.564  0.00  0.00    +0.000 C 
ATOM     24  C   UNL     1       2.334   4.157  19.916  0.00  0.00    +0.000 C 
ATOM     25  C   UNL     1       2.569   5.182  21.010  0.00  0.00    +0.000 C 
ATOM     26  C   UNL     1       2.774   2.694  20.243  0.00  0.00    +0.000 C 
ATOM     27  C   UNL     1       2.062   2.043  21.448  0.00  0.00    +0.000 C 
ATOM     28  C   UNL     1       4.282   2.486  20.481  0.00  0.00    +0.000 C 
ENDBRANCH  18  19
ENDBRANCH  16  18
ENDBRANCH   2  16
TORSDOF 7
ENDMDL
MODEL 6
REMARK VINA RESULT:      -7.3      1.095      1.760
REMARK  Name = 
REMARK  11 active torsions:
REMARK  status: ('A' for Active; 'I' for Inactive)
REMARK    1  A    between atoms: C_1  and  O_2
REMARK    2  A    between atoms: O_2  and  C_3
REMARK    3  A    between atoms: C_5  and  C_6
REMARK    4  A    between atoms: C_7  and  C_8
REMARK    5  A    between atoms: C_8  and  O_10
REMARK    6  A    between atoms: O_10  and  C_11
REMARK    7  A    between atoms: C_16  and  C_17
REMARK    8  A    between atoms: C_18  and  C_19
REMARK    9  A    between atoms: C_18  and  C_20
REMARK   10  A    between atoms: C_22  and  N_23
REMARK   11  A    between atoms: C_26  and  O_27
REMARK                            x       y       z     vdW  Elec       q    Type
REMARK                         _______ _______ _______ _____ _____    ______ ____
ROOT
ATOM      1  C   UNL     1       2.021   7.797  18.419  0.00  0.00    +0.000 C 
ATOM      2  C   UNL     1       3.289   7.564  18.019  0.00  0.00    +0.000 C 
ENDROOT
BRANCH   1   5
ATOM      3  C   UNL     1       1.194  11.482  19.067  0.00  0.00    +0.000 A 
ATOM      4  C   UNL     1       1.614  10.281  18.440  0.00  0.00    +0.000 A 
ATOM      5  C   UNL     1       1.546   9.032  19.089  0.00  0.00    +0.000 A 
ATOM      6  C   UNL     1       1.073   9.014  20.401  0.00  0.00    +0.000 A 
ATOM      7  C   UNL     1       0.661  10.197  21.038  0.00  0.00    +0.000 A 
ATOM      8  C   UNL     1       0.715  11.441  20.384  0.00  0.00    +0.000 A 
BRANCH   7   9
ATOM      9  N   UNL     1       0.167  10.096  22.419  0.00  0.00    +0.000 N 
ATOM     10  O   UNL     1       0.935   9.643  23.281  0.00  0.00    +0.000 OA
ATOM     11  O   UNL     1      -0.994  10.467  22.649  0.00  0.00    +0.000 OA
ENDBRANCH   7   9
BRANCH   3  13
ATOM     12  C   UNL     1       2.521  13.344  18.309  0.00  0.00    +0.000 C 
ATOM     13  O   UNL     1       1.314  12.585  18.257  0.00  0.00    +0.000 OA
ENDBRANCH   3  13
BRANCH   8  14
ATOM     14  O   UNL     1       0.323  12.606  20.989  0.00  0.00    +0.000 OA
ATOM     15  H   UNL     1       0.865  13.368  20.687  0.00  0.00    +0.000 HD
ENDBRANCH   8  14
ENDBRANCH   1   5
BRANCH   2  16
ATOM     16  C   UNL     1       3.678   6.296  17.342  0.00  0.00    +0.000 C 
ATOM     17  O   UNL     1       4.652   6.166  16.614  0.00  0.00    +0.000 OA
BRANCH  16  18
ATOM     18  O   UNL     1       2.777   5.328  17.669  0.00  0.00    +0.000 OA
BRANCH  18  19
ATOM     19  C   UNL     1       3.253   4.281  18.539  0.00  0.00    +0.000 C 
ATOM     20  C   UNL     1       3.119   2.882  17.902  0.00  0.00    +0.000 C 
ATOM     21  C   UNL     1       2.278   2.095  18.937  0.00  0.00    +0.000 C 
ATOM     22  C   UNL     1       0.825   2.599  18.788  0.00  0.00    +0.000 C 
ATOM     23  C   UNL     1       0.890   4.004  19.409  0.00  0.00    +0.000 C 
ATOM     24  C   UNL     1       2.381   4.128  19.837  0.00  0.00    +0.000 C 
ATOM     25  C   UNL     1       2.610   5.227  20.858  0.00  0.00    +0.000 C 
ATOM     26  C   UNL     1       2.722   2.677  20.304  0.00  0.00    +0.000 C 
ATOM     27  C   UNL     1       1.910   2.162  21.512  0.00  0.00    +0.000 C 
ATOM     28  C   UNL     1       4.202   2.414  20.649  0.00  0.00    +0.000 C 
ENDBRANCH  18  19
ENDBRANCH  16  18
ENDBRANCH   2  16
TORSDOF 7
ENDMDL
MODEL 7
REMARK VINA RESULT:      -7.3      1.777      2.624
REMARK  Name = 
REMARK  11 active torsions:
REMARK  status: ('A' for Active; 'I' for Inactive)
REMARK    1  A    between atoms: C_1  and  O_2
REMARK    2  A    between atoms: O_2  and  C_3
REMARK    3  A    between atoms: C_5  and  C_6
REMARK    4  A    between atoms: C_7  and  C_8
REMARK    5  A    between atoms: C_8  and  O_10
REMARK    6  A    between atoms: O_10  and  C_11
REMARK    7  A    between atoms: C_16  and  C_17
REMARK    8  A    between atoms: C_18  and  C_19
REMARK    9  A    between atoms: C_18  and  C_20
REMARK   10  A    between atoms: C_22  and  N_23
REMARK   11  A    between atoms: C_26  and  O_27
REMARK                            x       y       z     vdW  Elec       q    Type
REMARK                         _______ _______ _______ _____ _____    ______ ____
ROOT
ATOM      1  C   UNL     1       2.370   8.185  17.694  0.00  0.00    +0.000 C 
ATOM      2  C   UNL     1       3.251   7.305  18.216  0.00  0.00    +0.000 C 
ENDROOT
BRANCH   1   5
ATOM      3  C   UNL     1       0.709   9.993  20.635  0.00  0.00    +0.000 A 
ATOM      4  C   UNL     1       1.611   9.224  19.857  0.00  0.00    +0.000 A 
ATOM      5  C   UNL     1       1.425   9.019  18.475  0.00  0.00    +0.000 A 
ATOM      6  C   UNL     1       0.290   9.579  17.889  0.00  0.00    +0.000 A 
ATOM      7  C   UNL     1      -0.618  10.336  18.649  0.00  0.00    +0.000 A 
ATOM      8  C   UNL     1      -0.423  10.553  20.025  0.00  0.00    +0.000 A 
BRANCH   7   9
ATOM      9  N   UNL     1      -1.786  10.901  17.957  0.00  0.00    +0.000 N 
ATOM     10  O   UNL     1      -2.492  10.134  17.285  0.00  0.00    +0.000 OA
ATOM     11  O   UNL     1      -2.003  12.115  18.082  0.00  0.00    +0.000 OA
ENDBRANCH   7   9
BRANCH   3  13
ATOM     12  C   UNL     1       0.391   9.313  22.924  0.00  0.00    +0.000 C 
ATOM     13  O   UNL     1       1.083  10.097  21.952  0.00  0.00    +0.000 OA
ENDBRANCH   3  13
BRANCH   8  14
ATOM     14  O   UNL     1      -1.299  11.284  20.783  0.00  0.00    +0.000 OA
ATOM     15  H   UNL     1      -1.881  10.703  21.319  0.00  0.00    +0.000 HD
ENDBRANCH   8  14
ENDBRANCH   1   5
BRANCH   2  16
ATOM     16  C   UNL     1       4.174   6.513  17.356  0.00  0.00    +0.000 C 
ATOM     17  O   UNL     1       4.711   6.930  16.341  0.00  0.00    +0.000 OA
BRANCH  16  18
ATOM     18  O   UNL     1       4.309   5.266  17.889  0.00  0.00    +0.000 OA
BRANCH  18  19
ATOM     19  C   UNL     1       3.296   4.861  18.832  0.00  0.00    +0.000 C 
ATOM     20  C   UNL     1       3.871   4.003  19.979  0.00  0.00    +0.000 C 
ATOM     21  C   UNL     1       3.025   2.708  19.917  0.00  0.00    +0.000 C 
ATOM     22  C   UNL     1       3.540   1.910  18.699  0.00  0.00    +0.000 C 
ATOM     23  C   UNL     1       2.998   2.721  17.511  0.00  0.00    +0.000 C 
ATOM     24  C   UNL     1       2.236   3.888  18.203  0.00  0.00    +0.000 C 
ATOM     25  C   UNL     1       1.250   4.576  17.277  0.00  0.00    +0.000 C 
ATOM     26  C   UNL     1       1.624   3.194  19.462  0.00  0.00    +0.000 C 
ATOM     27  C   UNL     1       0.617   2.061  19.169  0.00  0.00    +0.000 C 
ATOM     28  C   UNL     1       0.925   4.130  20.468  0.00  0.00    +0.000 C 
ENDBRANCH  18  19
ENDBRANCH  16  18
ENDBRANCH   2  16
TORSDOF 7
ENDMDL
MODEL 8
REMARK VINA RESULT:      -7.2      1.729      3.111
REMARK  Name = 
REMARK  11 active torsions:
REMARK  status: ('A' for Active; 'I' for Inactive)
REMARK    1  A    between atoms: C_1  and  O_2
REMARK    2  A    between atoms: O_2  and  C_3
REMARK    3  A    between atoms: C_5  and  C_6
REMARK    4  A    between atoms: C_7  and  C_8
REMARK    5  A    between atoms: C_8  and  O_10
REMARK    6  A    between atoms: O_10  and  C_11
REMARK    7  A    between atoms: C_16  and  C_17
REMARK    8  A    between atoms: C_18  and  C_19
REMARK    9  A    between atoms: C_18  and  C_20
REMARK   10  A    between atoms: C_22  and  N_23
REMARK   11  A    between atoms: C_26  and  O_27
REMARK                            x       y       z     vdW  Elec       q    Type
REMARK                         _______ _______ _______ _____ _____    ______ ____
ROOT
ATOM      1  C   UNL     1       1.855   7.970  18.008  0.00  0.00    +0.000 C 
ATOM      2  C   UNL     1       3.039   7.397  18.311  0.00  0.00    +0.000 C 
ENDROOT
BRANCH   1   5
ATOM      3  C   UNL     1       0.694  10.151  20.936  0.00  0.00    +0.000 A 
ATOM      4  C   UNL     1       1.323   9.132  20.176  0.00  0.00    +0.000 A 
ATOM      5  C   UNL     1       1.210   9.064  18.773  0.00  0.00    +0.000 A 
ATOM      6  C   UNL     1       0.422  10.028  18.144  0.00  0.00    +0.000 A 
ATOM      7  C   UNL     1      -0.215  11.038  18.885  0.00  0.00    +0.000 A 
ATOM      8  C   UNL     1      -0.088  11.114  20.284  0.00  0.00    +0.000 A 
BRANCH   7   9
ATOM      9  N   UNL     1      -1.022  12.022  18.149  0.00  0.00    +0.000 N 
ATOM     10  O   UNL     1      -0.669  13.210  18.188  0.00  0.00    +0.000 OA
ATOM     11  O   UNL     1      -2.015  11.611  17.530  0.00  0.00    +0.000 OA
ENDBRANCH   7   9
BRANCH   3  13
ATOM     12  C   UNL     1      -0.059   9.521  23.136  0.00  0.00    +0.000 C 
ATOM     13  O   UNL     1       0.951  10.057  22.282  0.00  0.00    +0.000 OA
ENDBRANCH   3  13
BRANCH   8  14
ATOM     14  O   UNL     1      -0.705  12.088  21.025  0.00  0.00    +0.000 OA
ATOM     15  H   UNL     1      -0.061  12.758  21.343  0.00  0.00    +0.000 HD
ENDBRANCH   8  14
ENDBRANCH   1   5
BRANCH   2  16
ATOM     16  C   UNL     1       3.620   6.306  17.480  0.00  0.00    +0.000 C 
ATOM     17  O   UNL     1       4.635   6.409  16.806  0.00  0.00    +0.000 OA
BRANCH  16  18
ATOM     18  O   UNL     1       2.838   5.197  17.599  0.00  0.00    +0.000 OA
BRANCH  18  19
ATOM     19  C   UNL     1       3.298   4.187  18.519  0.00  0.00    +0.000 C 
ATOM     20  C   UNL     1       3.184   2.763  17.933  0.00  0.00    +0.000 C 
ATOM     21  C   UNL     1       2.323   2.013  18.979  0.00  0.00    +0.000 C 
ATOM     22  C   UNL     1       0.872   2.504  18.779  0.00  0.00    +0.000 C 
ATOM     23  C   UNL     1       0.918   3.933  19.347  0.00  0.00    +0.000 C 
ATOM     24  C   UNL     1       2.398   4.080  19.802  0.00  0.00    +0.000 C 
ATOM     25  C   UNL     1       2.601   5.218  20.785  0.00  0.00    +0.000 C 
ATOM     26  C   UNL     1       2.735   2.649  20.333  0.00  0.00    +0.000 C 
ATOM     27  C   UNL     1       1.898   2.178  21.541  0.00  0.00    +0.000 C 
ATOM     28  C   UNL     1       4.207   2.407  20.719  0.00  0.00    +0.000 C 
ENDBRANCH  18  19
ENDBRANCH  16  18
ENDBRANCH   2  16
TORSDOF 7
ENDMDL
MODEL 9
REMARK VINA RESULT:      -7.2      1.292      2.739
REMARK  Name = 
REMARK  11 active torsions:
REMARK  status: ('A' for Active; 'I' for Inactive)
REMARK    1  A    between atoms: C_1  and  O_2
REMARK    2  A    between atoms: O_2  and  C_3
REMARK    3  A    between atoms: C_5  and  C_6
REMARK    4  A    between atoms: C_7  and  C_8
REMARK    5  A    between atoms: C_8  and  O_10
REMARK    6  A    between atoms: O_10  and  C_11
REMARK    7  A    between atoms: C_16  and  C_17
REMARK    8  A    between atoms: C_18  and  C_19
REMARK    9  A    between atoms: C_18  and  C_20
REMARK   10  A    between atoms: C_22  and  N_23
REMARK   11  A    between atoms: C_26  and  O_27
REMARK                            x       y       z     vdW  Elec       q    Type
REMARK                         _______ _______ _______ _____ _____    ______ ____
ROOT
ATOM      1  C   UNL     1       2.705   8.300  17.641  0.00  0.00    +0.000 C 
ATOM      2  C   UNL     1       3.464   7.278  18.091  0.00  0.00    +0.000 C 
ENDROOT
BRANCH   1   5
ATOM      3  C   UNL     1       0.430   9.488  20.485  0.00  0.00    +0.000 A 
ATOM      4  C   UNL     1       1.271   8.686  19.673  0.00  0.00    +0.000 A 
ATOM      5  C   UNL     1       1.853   9.172  18.485  0.00  0.00    +0.000 A 
ATOM      6  C   UNL     1       1.548  10.479  18.108  0.00  0.00    +0.000 A 
ATOM      7  C   UNL     1       0.709  11.283  18.897  0.00  0.00    +0.000 A 
ATOM      8  C   UNL     1       0.140  10.802  20.091  0.00  0.00    +0.000 A 
BRANCH   7   9
ATOM      9  N   UNL     1       0.440  12.654  18.436  0.00  0.00    +0.000 N 
ATOM     10  O   UNL     1       1.409  13.403  18.244  0.00  0.00    +0.000 OA
ATOM     11  O   UNL     1      -0.742  12.988  18.267  0.00  0.00    +0.000 OA
ENDBRANCH   7   9
BRANCH   3  13
ATOM     12  C   UNL     1       0.480   9.264  22.883  0.00  0.00    +0.000 C 
ATOM     13  O   UNL     1      -0.012   8.839  21.612  0.00  0.00    +0.000 OA
ENDBRANCH   3  13
BRANCH   8  14
ATOM     14  O   UNL     1      -0.684  11.569  20.872  0.00  0.00    +0.000 OA
ATOM     15  H   UNL     1      -0.791  12.472  20.502  0.00  0.00    +0.000 HD
ENDBRANCH   8  14
ENDBRANCH   1   5
BRANCH   2  16
ATOM     16  C   UNL     1       4.301   6.457  17.172  0.00  0.00    +0.000 C 
ATOM     17  O   UNL     1       4.852   6.879  16.166  0.00  0.00    +0.000 OA
BRANCH  16  18
ATOM     18  O   UNL     1       4.341   5.177  17.640  0.00  0.00    +0.000 OA
BRANCH  18  19
ATOM     19  C   UNL     1       3.408   4.852  18.689  0.00  0.00    +0.000 C 
ATOM     20  C   UNL     1       4.044   3.975  19.790  0.00  0.00    +0.000 C 
ATOM     21  C   UNL     1       3.117   2.736  19.842  0.00  0.00    +0.000 C 
ATOM     22  C   UNL     1       3.455   1.889  18.595  0.00  0.00    +0.000 C 
ATOM     23  C   UNL     1       2.844   2.715  17.451  0.00  0.00    +0.000 C 
ATOM     24  C   UNL     1       2.231   3.938  18.192  0.00  0.00    +0.000 C 
ATOM     25  C   UNL     1       1.199   4.674  17.358  0.00  0.00    +0.000 C 
ATOM     26  C   UNL     1       1.710   3.303  19.522  0.00  0.00    +0.000 C 
ATOM     27  C   UNL     1       0.611   2.232  19.357  0.00  0.00    +0.000 C 
ATOM     28  C   UNL     1       1.177   4.296  20.574  0.00  0.00    +0.000 C 
ENDBRANCH  18  19
ENDBRANCH  16  18
ENDBRANCH   2  16
TORSDOF 7
ENDMDL
