MODEL 1
REMARK VINA RESULT:      -6.9      0.000      0.000
REMARK  Name = 
REMARK  7 active torsions:
REMARK  status: ('A' for Active; 'I' for Inactive)
REMARK    1  A    between atoms: C_1  and  O_2
REMARK    2  A    between atoms: O_2  and  C_3
REMARK    3  A    between atoms: C_6  and  C_7
REMARK    4  A    between atoms: C_8  and  C_9
REMARK    5  A    between atoms: C_12  and  O_13
REMARK    6  A    between atoms: O_13  and  C_14
REMARK    7  A    between atoms: C_14  and  C_15
REMARK                            x       y       z     vdW  Elec       q    Type
REMARK                         _______ _______ _______ _____ _____    ______ ____
ROOT
ATOM      1  C   UNL     1       4.485   4.258  17.083  0.00  0.00    +0.000 C 
ATOM      2  C   UNL     1       3.203   4.356  17.466  0.00  0.00    +0.000 C 
ENDROOT
BRANCH   1   6
ATOM      3  C   UNL     1       7.607   6.879  18.326  0.00  0.00    +0.000 A 
ATOM      4  C   UNL     1       6.911   7.127  17.142  0.00  0.00    +0.000 A 
ATOM      5  C   UNL     1       5.903   6.257  16.715  0.00  0.00    +0.000 A 
ATOM      6  C   UNL     1       5.599   5.117  17.465  0.00  0.00    +0.000 A 
ATOM      7  C   UNL     1       6.313   4.858  18.637  0.00  0.00    +0.000 A 
ATOM      8  C   UNL     1       7.314   5.734  19.068  0.00  0.00    +0.000 A 
BRANCH   3  10
ATOM      9  C   UNL     1       8.375   9.111  18.134  0.00  0.00    +0.000 C 
ATOM     10  O   UNL     1       8.576   7.795  18.637  0.00  0.00    +0.000 OA
ENDBRANCH   3  10
ENDBRANCH   1   6
BRANCH   2  11
ATOM     11  C   UNL     1       2.573   5.331  18.359  0.00  0.00    +0.000 A 
ATOM     12  C   UNL     1       2.118   4.940  19.621  0.00  0.00    +0.000 A 
ATOM     13  C   UNL     1       1.749   5.907  20.561  0.00  0.00    +0.000 A 
ATOM     14  C   UNL     1       1.839   7.262  20.239  0.00  0.00    +0.000 A 
ATOM     15  C   UNL     1       2.203   7.660  18.957  0.00  0.00    +0.000 A 
ATOM     16  C   UNL     1       2.579   6.689  18.021  0.00  0.00    +0.000 A 
BRANCH  14  17
ATOM     17  O   UNL     1       1.531   8.161  21.281  0.00  0.00    +0.000 OA
BRANCH  17  18
ATOM     18  C   UNL     1       0.256   8.717  21.409  0.00  0.00    +0.000 C 
ATOM     19  C   UNL     1       0.273  10.117  20.864  0.00  0.00    +0.000 C 
ATOM     20  O   UNL     1      -0.753   8.163  21.823  0.00  0.00    +0.000 OA
ENDBRANCH  17  18
ENDBRANCH  14  17
ENDBRANCH   2  11
TORSDOF 5
ENDMDL
MODEL 2
REMARK VINA RESULT:      -6.8      0.930      1.111
REMARK  Name = 
REMARK  7 active torsions:
REMARK  status: ('A' for Active; 'I' for Inactive)
REMARK    1  A    between atoms: C_1  and  O_2
REMARK    2  A    between atoms: O_2  and  C_3
REMARK    3  A    between atoms: C_6  and  C_7
REMARK    4  A    between atoms: C_8  and  C_9
REMARK    5  A    between atoms: C_12  and  O_13
REMARK    6  A    between atoms: O_13  and  C_14
REMARK    7  A    between atoms: C_14  and  C_15
REMARK                            x       y       z     vdW  Elec       q    Type
REMARK                         _______ _______ _______ _____ _____    ______ ____
ROOT
ATOM      1  C   UNL     1       3.783   3.282  17.418  0.00  0.00    +0.000 C 
ATOM      2  C   UNL     1       2.630   3.504  18.065  0.00  0.00    +0.000 C 
ENDROOT
BRANCH   1   6
ATOM      3  C   UNL     1       6.925   6.130  16.981  0.00  0.00    +0.000 A 
ATOM      4  C   UNL     1       6.101   5.818  15.897  0.00  0.00    +0.000 A 
ATOM      5  C   UNL     1       5.085   4.866  16.026  0.00  0.00    +0.000 A 
ATOM      6  C   UNL     1       4.901   4.202  17.242  0.00  0.00    +0.000 A 
ATOM      7  C   UNL     1       5.740   4.496  18.318  0.00  0.00    +0.000 A 
ATOM      8  C   UNL     1       6.749   5.456  18.190  0.00  0.00    +0.000 A 
BRANCH   3  10
ATOM      9  C   UNL     1       7.904   8.192  17.607  0.00  0.00    +0.000 C 
ATOM     10  O   UNL     1       7.887   7.070  16.732  0.00  0.00    +0.000 OA
ENDBRANCH   3  10
ENDBRANCH   1   6
BRANCH   2  11
ATOM     11  C   UNL     1       2.176   4.707  18.765  0.00  0.00    +0.000 A 
ATOM     12  C   UNL     1       1.737   4.629  20.090  0.00  0.00    +0.000 A 
ATOM     13  C   UNL     1       1.543   5.797  20.832  0.00  0.00    +0.000 A 
ATOM     14  C   UNL     1       1.791   7.041  20.250  0.00  0.00    +0.000 A 
ATOM     15  C   UNL     1       2.139   7.136  18.907  0.00  0.00    +0.000 A 
ATOM     16  C   UNL     1       2.340   5.963  18.169  0.00  0.00    +0.000 A 
BRANCH  14  17
ATOM     17  O   UNL     1       1.654   8.155  21.105  0.00  0.00    +0.000 OA
BRANCH  17  18
ATOM     18  C   UNL     1       0.443   8.846  21.211  0.00  0.00    +0.000 C 
ATOM     19  C   UNL     1       0.519  10.100  20.387  0.00  0.00    +0.000 C 
ATOM     20  O   UNL     1      -0.562   8.486  21.807  0.00  0.00    +0.000 OA
ENDBRANCH  17  18
ENDBRANCH  14  17
ENDBRANCH   2  11
TORSDOF 5
ENDMDL
MODEL 3
REMARK VINA RESULT:      -6.6      3.389      4.973
REMARK  Name = 
REMARK  7 active torsions:
REMARK  status: ('A' for Active; 'I' for Inactive)
REMARK    1  A    between atoms: C_1  and  O_2
REMARK    2  A    between atoms: O_2  and  C_3
REMARK    3  A    between atoms: C_6  and  C_7
REMARK    4  A    between atoms: C_8  and  C_9
REMARK    5  A    between atoms: C_12  and  O_13
REMARK    6  A    between atoms: O_13  and  C_14
REMARK    7  A    between atoms: C_14  and  C_15
REMARK                            x       y       z     vdW  Elec       q    Type
REMARK                         _______ _______ _______ _____ _____    ______ ____
ROOT
ATOM      1  C   UNL     1       3.414   6.880  17.748  0.00  0.00    +0.000 C 
ATOM      2  C   UNL     1       2.952   8.137  17.810  0.00  0.00    +0.000 C 
ENDROOT
BRANCH   1   6
ATOM      3  C   UNL     1       1.697   3.547  19.775  0.00  0.00    +0.000 A 
ATOM      4  C   UNL     1       2.661   4.334  20.408  0.00  0.00    +0.000 A 
ATOM      5  C   UNL     1       3.248   5.414  19.739  0.00  0.00    +0.000 A 
ATOM      6  C   UNL     1       2.885   5.699  18.420  0.00  0.00    +0.000 A 
ATOM      7  C   UNL     1       1.938   4.896  17.780  0.00  0.00    +0.000 A 
ATOM      8  C   UNL     1       1.346   3.823  18.454  0.00  0.00    +0.000 A 
BRANCH   3  10
ATOM      9  C   UNL     1       1.655   2.449  21.873  0.00  0.00    +0.000 C 
ATOM     10  O   UNL     1       1.202   2.515  20.526  0.00  0.00    +0.000 OA
ENDBRANCH   3  10
ENDBRANCH   1   6
BRANCH   2  11
ATOM     11  C   UNL     1       1.807   8.669  18.551  0.00  0.00    +0.000 A 
ATOM     12  C   UNL     1       1.702   8.465  19.930  0.00  0.00    +0.000 A 
ATOM     13  C   UNL     1       0.754   9.175  20.672  0.00  0.00    +0.000 A 
ATOM     14  C   UNL     1      -0.085  10.091  20.035  0.00  0.00    +0.000 A 
ATOM     15  C   UNL     1      -0.052  10.235  18.652  0.00  0.00    +0.000 A 
ATOM     16  C   UNL     1       0.904   9.528  17.914  0.00  0.00    +0.000 A 
BRANCH  14  17
ATOM     17  O   UNL     1      -0.946  10.823  20.880  0.00  0.00    +0.000 OA
BRANCH  17  18
ATOM     18  C   UNL     1      -0.449  11.585  21.941  0.00  0.00    +0.000 C 
ATOM     19  C   UNL     1       0.159  12.847  21.397  0.00  0.00    +0.000 C 
ATOM     20  O   UNL     1      -0.541  11.336  23.135  0.00  0.00    +0.000 OA
ENDBRANCH  17  18
ENDBRANCH  14  17
ENDBRANCH   2  11
TORSDOF 5
ENDMDL
MODEL 4
REMARK VINA RESULT:      -6.6      3.678      7.597
REMARK  Name = 
REMARK  7 active torsions:
REMARK  status: ('A' for Active; 'I' for Inactive)
REMARK    1  A    between atoms: C_1  and  O_2
REMARK    2  A    between atoms: O_2  and  C_3
REMARK    3  A    between atoms: C_6  and  C_7
REMARK    4  A    between atoms: C_8  and  C_9
REMARK    5  A    between atoms: C_12  and  O_13
REMARK    6  A    between atoms: O_13  and  C_14
REMARK    7  A    between atoms: C_14  and  C_15
REMARK                            x       y       z     vdW  Elec       q    Type
REMARK                         _______ _______ _______ _____ _____    ______ ____
ROOT
ATOM      1  C   UNL     1       6.165   5.525  19.419  0.00  0.00    +0.000 C 
ATOM      2  C   UNL     1       6.871   5.840  18.323  0.00  0.00    +0.000 C 
ENDROOT
BRANCH   1   6
ATOM      3  C   UNL     1       2.586   3.252  19.859  0.00  0.00    +0.000 A 
ATOM      4  C   UNL     1       3.811   2.607  19.679  0.00  0.00    +0.000 A 
ATOM      5  C   UNL     1       4.986   3.347  19.507  0.00  0.00    +0.000 A 
ATOM      6  C   UNL     1       4.936   4.744  19.495  0.00  0.00    +0.000 A 
ATOM      7  C   UNL     1       3.707   5.387  19.652  0.00  0.00    +0.000 A 
ATOM      8  C   UNL     1       2.535   4.646  19.833  0.00  0.00    +0.000 A 
BRANCH   3  10
ATOM      9  C   UNL     1       0.563   2.432  18.944  0.00  0.00    +0.000 C 
ATOM     10  O   UNL     1       1.507   2.424  20.008  0.00  0.00    +0.000 OA
ENDBRANCH   3  10
ENDBRANCH   1   6
BRANCH   2  11
ATOM     11  C   UNL     1       6.616   5.494  16.923  0.00  0.00    +0.000 A 
ATOM     12  C   UNL     1       7.187   4.348  16.364  0.00  0.00    +0.000 A 
ATOM     13  C   UNL     1       6.751   3.886  15.119  0.00  0.00    +0.000 A 
ATOM     14  C   UNL     1       5.742   4.568  14.437  0.00  0.00    +0.000 A 
ATOM     15  C   UNL     1       5.231   5.759  14.941  0.00  0.00    +0.000 A 
ATOM     16  C   UNL     1       5.665   6.215  16.191  0.00  0.00    +0.000 A 
BRANCH  14  17
ATOM     17  O   UNL     1       5.308   3.975  13.233  0.00  0.00    +0.000 OA
BRANCH  17  18
ATOM     18  C   UNL     1       6.218   3.543  12.265  0.00  0.00    +0.000 C 
ATOM     19  C   UNL     1       5.726   2.254  11.668  0.00  0.00    +0.000 C 
ATOM     20  O   UNL     1       7.223   4.126  11.883  0.00  0.00    +0.000 OA
ENDBRANCH  17  18
ENDBRANCH  14  17
ENDBRANCH   2  11
TORSDOF 5
ENDMDL
MODEL 5
REMARK VINA RESULT:      -6.6      2.201      3.265
REMARK  Name = 
REMARK  7 active torsions:
REMARK  status: ('A' for Active; 'I' for Inactive)
REMARK    1  A    between atoms: C_1  and  O_2
REMARK    2  A    between atoms: O_2  and  C_3
REMARK    3  A    between atoms: C_6  and  C_7
REMARK    4  A    between atoms: C_8  and  C_9
REMARK    5  A    between atoms: C_12  and  O_13
REMARK    6  A    between atoms: O_13  and  C_14
REMARK    7  A    between atoms: C_14  and  C_15
REMARK                            x       y       z     vdW  Elec       q    Type
REMARK                         _______ _______ _______ _____ _____    ______ ____
ROOT
ATOM      1  C   UNL     1       3.244   4.404  19.804  0.00  0.00    +0.000 C 
ATOM      2  C   UNL     1       2.364   5.321  20.231  0.00  0.00    +0.000 C 
ENDROOT
BRANCH   1   6
ATOM      3  C   UNL     1       6.337   4.671  16.882  0.00  0.00    +0.000 A 
ATOM      4  C   UNL     1       6.534   5.186  18.165  0.00  0.00    +0.000 A 
ATOM      5  C   UNL     1       5.515   5.125  19.120  0.00  0.00    +0.000 A 
ATOM      6  C   UNL     1       4.279   4.563  18.788  0.00  0.00    +0.000 A 
ATOM      7  C   UNL     1       4.074   4.070  17.498  0.00  0.00    +0.000 A 
ATOM      8  C   UNL     1       5.098   4.123  16.547  0.00  0.00    +0.000 A 
BRANCH   3  10
ATOM      9  C   UNL     1       7.091   4.833  14.644  0.00  0.00    +0.000 C 
ATOM     10  O   UNL     1       7.402   4.794  16.032  0.00  0.00    +0.000 OA
ENDBRANCH   3  10
ENDBRANCH   1   6
BRANCH   2  11
ATOM     11  C   UNL     1       2.197   6.713  19.811  0.00  0.00    +0.000 A 
ATOM     12  C   UNL     1       2.430   7.083  18.484  0.00  0.00    +0.000 A 
ATOM     13  C   UNL     1       2.035   8.345  18.030  0.00  0.00    +0.000 A 
ATOM     14  C   UNL     1       1.404   9.233  18.902  0.00  0.00    +0.000 A 
ATOM     15  C   UNL     1       1.249   8.911  20.247  0.00  0.00    +0.000 A 
ATOM     16  C   UNL     1       1.639   7.644  20.696  0.00  0.00    +0.000 A 
BRANCH  14  17
ATOM     17  O   UNL     1       0.962  10.444  18.330  0.00  0.00    +0.000 OA
BRANCH  17  18
ATOM     18  C   UNL     1      -0.312  10.953  18.596  0.00  0.00    +0.000 C 
ATOM     19  C   UNL     1      -1.328  10.166  17.817  0.00  0.00    +0.000 C 
ATOM     20  O   UNL     1      -0.602  11.842  19.383  0.00  0.00    +0.000 OA
ENDBRANCH  17  18
ENDBRANCH  14  17
ENDBRANCH   2  11
TORSDOF 5
ENDMDL
MODEL 6
REMARK VINA RESULT:      -6.6      0.769      6.108
REMARK  Name = 
REMARK  7 active torsions:
REMARK  status: ('A' for Active; 'I' for Inactive)
REMARK    1  A    between atoms: C_1  and  O_2
REMARK    2  A    between atoms: O_2  and  C_3
REMARK    3  A    between atoms: C_6  and  C_7
REMARK    4  A    between atoms: C_8  and  C_9
REMARK    5  A    between atoms: C_12  and  O_13
REMARK    6  A    between atoms: O_13  and  C_14
REMARK    7  A    between atoms: C_14  and  C_15
REMARK                            x       y       z     vdW  Elec       q    Type
REMARK                         _______ _______ _______ _____ _____    ______ ____
ROOT
ATOM      1  C   UNL     1       2.978   4.034  17.636  0.00  0.00    +0.000 C 
ATOM      2  C   UNL     1       4.239   3.815  17.236  0.00  0.00    +0.000 C 
ENDROOT
BRANCH   1   6
ATOM      3  C   UNL     1       1.748   7.156  20.265  0.00  0.00    +0.000 A 
ATOM      4  C   UNL     1       1.610   5.820  20.646  0.00  0.00    +0.000 A 
ATOM      5  C   UNL     1       1.987   4.790  19.778  0.00  0.00    +0.000 A 
ATOM      6  C   UNL     1       2.488   5.094  18.509  0.00  0.00    +0.000 A 
ATOM      7  C   UNL     1       2.604   6.430  18.120  0.00  0.00    +0.000 A 
ATOM      8  C   UNL     1       2.235   7.459  18.993  0.00  0.00    +0.000 A 
BRANCH   3  10
ATOM      9  C   UNL     1       0.796   9.284  20.677  0.00  0.00    +0.000 C 
ATOM     10  O   UNL     1       1.339   8.074  21.193  0.00  0.00    +0.000 OA
ENDBRANCH   3  10
ENDBRANCH   1   6
BRANCH   2  11
ATOM     11  C   UNL     1       5.456   4.565  17.553  0.00  0.00    +0.000 A 
ATOM     12  C   UNL     1       6.130   5.273  16.555  0.00  0.00    +0.000 A 
ATOM     13  C   UNL     1       7.136   6.181  16.898  0.00  0.00    +0.000 A 
ATOM     14  C   UNL     1       7.464   6.382  18.240  0.00  0.00    +0.000 A 
ATOM     15  C   UNL     1       6.865   5.617  19.235  0.00  0.00    +0.000 A 
ATOM     16  C   UNL     1       5.853   4.714  18.887  0.00  0.00    +0.000 A 
BRANCH  14  17
ATOM     17  O   UNL     1       8.427   7.381  18.491  0.00  0.00    +0.000 OA
BRANCH  17  18
ATOM     18  C   UNL     1       8.200   8.715  18.141  0.00  0.00    +0.000 C 
ATOM     19  C   UNL     1       9.077   9.599  18.981  0.00  0.00    +0.000 C 
ATOM     20  O   UNL     1       7.472   9.131  17.251  0.00  0.00    +0.000 OA
ENDBRANCH  17  18
ENDBRANCH  14  17
ENDBRANCH   2  11
TORSDOF 5
ENDMDL
MODEL 7
REMARK VINA RESULT:      -6.5      3.722      7.462
REMARK  Name = 
REMARK  7 active torsions:
REMARK  status: ('A' for Active; 'I' for Inactive)
REMARK    1  A    between atoms: C_1  and  O_2
REMARK    2  A    between atoms: O_2  and  C_3
REMARK    3  A    between atoms: C_6  and  C_7
REMARK    4  A    between atoms: C_8  and  C_9
REMARK    5  A    between atoms: C_12  and  O_13
REMARK    6  A    between atoms: O_13  and  C_14
REMARK    7  A    between atoms: C_14  and  C_15
REMARK                            x       y       z     vdW  Elec       q    Type
REMARK                         _______ _______ _______ _____ _____    ______ ____
ROOT
ATOM      1  C   UNL     1       6.232   5.518  19.342  0.00  0.00    +0.000 C 
ATOM      2  C   UNL     1       6.983   5.671  18.241  0.00  0.00    +0.000 C 
ENDROOT
BRANCH   1   6
ATOM      3  C   UNL     1       2.270   3.949  19.391  0.00  0.00    +0.000 A 
ATOM      4  C   UNL     1       2.481   5.327  19.453  0.00  0.00    +0.000 A 
ATOM      5  C   UNL     1       3.779   5.848  19.464  0.00  0.00    +0.000 A 
ATOM      6  C   UNL     1       4.878   4.985  19.433  0.00  0.00    +0.000 A 
ATOM      7  C   UNL     1       4.666   3.605  19.394  0.00  0.00    +0.000 A 
ATOM      8  C   UNL     1       3.367   3.087  19.374  0.00  0.00    +0.000 A 
BRANCH   3  10
ATOM      9  C   UNL     1       0.695   2.253  18.891  0.00  0.00    +0.000 C 
ATOM     10  O   UNL     1       0.958   3.558  19.395  0.00  0.00    +0.000 OA
ENDBRANCH   3  10
ENDBRANCH   1   6
BRANCH   2  11
ATOM     11  C   UNL     1       6.665   5.351  16.848  0.00  0.00    +0.000 A 
ATOM     12  C   UNL     1       7.067   4.132  16.295  0.00  0.00    +0.000 A 
ATOM     13  C   UNL     1       6.556   3.722  15.060  0.00  0.00    +0.000 A 
ATOM     14  C   UNL     1       5.640   4.528  14.384  0.00  0.00    +0.000 A 
ATOM     15  C   UNL     1       5.301   5.783  14.880  0.00  0.00    +0.000 A 
ATOM     16  C   UNL     1       5.810   6.187  16.121  0.00  0.00    +0.000 A 
BRANCH  14  17
ATOM     17  O   UNL     1       5.113   3.989  13.192  0.00  0.00    +0.000 OA
BRANCH  17  18
ATOM     18  C   UNL     1       5.935   3.365  12.249  0.00  0.00    +0.000 C 
ATOM     19  C   UNL     1       7.110   4.255  11.957  0.00  0.00    +0.000 C 
ATOM     20  O   UNL     1       5.796   2.248  11.772  0.00  0.00    +0.000 OA
ENDBRANCH  17  18
ENDBRANCH  14  17
ENDBRANCH   2  11
TORSDOF 5
ENDMDL
MODEL 8
REMARK VINA RESULT:      -6.4      2.361      6.555
REMARK  Name = 
REMARK  7 active torsions:
REMARK  status: ('A' for Active; 'I' for Inactive)
REMARK    1  A    between atoms: C_1  and  O_2
REMARK    2  A    between atoms: O_2  and  C_3
REMARK    3  A    between atoms: C_6  and  C_7
REMARK    4  A    between atoms: C_8  and  C_9
REMARK    5  A    between atoms: C_12  and  O_13
REMARK    6  A    between atoms: O_13  and  C_14
REMARK    7  A    between atoms: C_14  and  C_15
REMARK                            x       y       z     vdW  Elec       q    Type
REMARK                         _______ _______ _______ _____ _____    ______ ____
ROOT
ATOM      1  C   UNL     1       1.960   5.827  20.664  0.00  0.00    +0.000 C 
ATOM      2  C   UNL     1       2.753   4.824  20.258  0.00  0.00    +0.000 C 
ENDROOT
BRANCH   1   6
ATOM      3  C   UNL     1       1.345   9.645  18.871  0.00  0.00    +0.000 A 
ATOM      4  C   UNL     1       1.959   8.619  18.149  0.00  0.00    +0.000 A 
ATOM      5  C   UNL     1       2.187   7.372  18.740  0.00  0.00    +0.000 A 
ATOM      6  C   UNL     1       1.818   7.151  20.070  0.00  0.00    +0.000 A 
ATOM      7  C   UNL     1       1.226   8.185  20.798  0.00  0.00    +0.000 A 
ATOM      8  C   UNL     1       0.990   9.428  20.203  0.00  0.00    +0.000 A 
BRANCH   3  10
ATOM      9  C   UNL     1       2.054  11.883  18.563  0.00  0.00    +0.000 C 
ATOM     10  O   UNL     1       1.182  10.821  18.191  0.00  0.00    +0.000 OA
ENDBRANCH   3  10
ENDBRANCH   1   6
BRANCH   2  11
ATOM     11  C   UNL     1       3.680   4.775  19.126  0.00  0.00    +0.000 A 
ATOM     12  C   UNL     1       5.008   5.181  19.283  0.00  0.00    +0.000 A 
ATOM     13  C   UNL     1       5.947   4.903  18.285  0.00  0.00    +0.000 A 
ATOM     14  C   UNL     1       5.558   4.216  17.135  0.00  0.00    +0.000 A 
ATOM     15  C   UNL     1       4.222   3.887  16.927  0.00  0.00    +0.000 A 
ATOM     16  C   UNL     1       3.287   4.160  17.931  0.00  0.00    +0.000 A 
BRANCH  14  17
ATOM     17  O   UNL     1       6.593   3.904  16.229  0.00  0.00    +0.000 OA
BRANCH  17  18
ATOM     18  C   UNL     1       6.902   4.747  15.158  0.00  0.00    +0.000 C 
ATOM     19  C   UNL     1       6.257   4.214  13.910  0.00  0.00    +0.000 C 
ATOM     20  O   UNL     1       7.529   5.796  15.202  0.00  0.00    +0.000 OA
ENDBRANCH  17  18
ENDBRANCH  14  17
ENDBRANCH   2  11
TORSDOF 5
ENDMDL
MODEL 9
REMARK VINA RESULT:      -6.3      3.552      5.069
REMARK  Name = 
REMARK  7 active torsions:
REMARK  status: ('A' for Active; 'I' for Inactive)
REMARK    1  A    between atoms: C_1  and  O_2
REMARK    2  A    between atoms: O_2  and  C_3
REMARK    3  A    between atoms: C_6  and  C_7
REMARK    4  A    between atoms: C_8  and  C_9
REMARK    5  A    between atoms: C_12  and  O_13
REMARK    6  A    between atoms: O_13  and  C_14
REMARK    7  A    between atoms: C_14  and  C_15
REMARK                            x       y       z     vdW  Elec       q    Type
REMARK                         _______ _______ _______ _____ _____    ______ ____
ROOT
ATOM      1  C   UNL     1       3.069   7.202  17.752  0.00  0.00    +0.000 C 
ATOM      2  C   UNL     1       2.599   8.456  17.810  0.00  0.00    +0.000 C 
ENDROOT
BRANCH   1   6
ATOM      3  C   UNL     1       1.844   3.684  19.825  0.00  0.00    +0.000 A 
ATOM      4  C   UNL     1       1.460   3.889  18.498  0.00  0.00    +0.000 A 
ATOM      5  C   UNL     1       1.837   5.052  17.820  0.00  0.00    +0.000 A 
ATOM      6  C   UNL     1       2.587   6.032  18.477  0.00  0.00    +0.000 A 
ATOM      7  C   UNL     1       2.950   5.837  19.811  0.00  0.00    +0.000 A 
ATOM      8  C   UNL     1       2.581   4.668  20.485  0.00  0.00    +0.000 A 
BRANCH   3  10
ATOM      9  C   UNL     1       1.513   2.424  21.801  0.00  0.00    +0.000 C 
ATOM     10  O   UNL     1       1.411   2.513  20.385  0.00  0.00    +0.000 OA
ENDBRANCH   3  10
ENDBRANCH   1   6
BRANCH   2  11
ATOM     11  C   UNL     1       1.490   8.996  18.598  0.00  0.00    +0.000 A 
ATOM     12  C   UNL     1       1.480   8.860  19.989  0.00  0.00    +0.000 A 
ATOM     13  C   UNL     1       0.562   9.582  20.757  0.00  0.00    +0.000 A 
ATOM     14  C   UNL     1      -0.342  10.443  20.133  0.00  0.00    +0.000 A 
ATOM     15  C   UNL     1      -0.403  10.518  18.745  0.00  0.00    +0.000 A 
ATOM     16  C   UNL     1       0.524   9.799  17.981  0.00  0.00    +0.000 A 
BRANCH  14  17
ATOM     17  O   UNL     1      -1.167  11.195  20.995  0.00  0.00    +0.000 OA
BRANCH  17  18
ATOM     18  C   UNL     1      -0.638  11.887  22.088  0.00  0.00    +0.000 C 
ATOM     19  C   UNL     1      -0.026  13.172  21.606  0.00  0.00    +0.000 C 
ATOM     20  O   UNL     1      -0.707  11.569  23.267  0.00  0.00    +0.000 OA
ENDBRANCH  17  18
ENDBRANCH  14  17
ENDBRANCH   2  11
TORSDOF 5
ENDMDL
