MODEL 1
REMARK VINA RESULT:      -8.0      0.000      0.000
REMARK  Name = 
REMARK  7 active torsions:
REMARK  status: ('A' for Active; 'I' for Inactive)
REMARK    1  A    between atoms: C_1  and  O_2
REMARK    2  A    between atoms: O_2  and  C_3
REMARK    3  A    between atoms: C_5  and  O_6
REMARK    4  A    between atoms: O_6  and  C_7
REMARK    5  A    between atoms: C_12  and  C_13
REMARK    6  A    between atoms: C_20  and  O_21
REMARK    7  A    between atoms: C_20  and  C_22
REMARK                            x       y       z     vdW  Elec       q    Type
REMARK                         _______ _______ _______ _____ _____    ______ ____
ROOT
ATOM      1  C   UNL     1       4.996   5.560  16.579  0.00  0.00    +0.000 A 
ATOM      2  C   UNL     1       4.968   4.309  17.189  0.00  0.00    +0.000 A 
ATOM      3  C   UNL     1       4.203   4.079  18.345  0.00  0.00    +0.000 A 
ATOM      4  C   UNL     1       3.443   5.122  18.913  0.00  0.00    +0.000 A 
ATOM      5  C   UNL     1       3.517   6.395  18.303  0.00  0.00    +0.000 A 
ATOM      6  C   UNL     1       4.288   6.609  17.156  0.00  0.00    +0.000 A 
ATOM      7  O   UNL     1       2.811   7.500  18.743  0.00  0.00    +0.000 OA
ATOM      8  C   UNL     1       2.021   7.364  19.859  0.00  0.00    +0.000 C 
ATOM      9  C   UNL     1       1.843   6.216  20.512  0.00  0.00    +0.000 C 
ATOM     10  C   UNL     1       2.464   4.924  20.062  0.00  0.00    +0.000 C 
ENDROOT
BRANCH   8  11
ATOM     11  C   UNL     1       1.299   8.551  20.321  0.00  0.00    +0.000 A 
ATOM     12  C   UNL     1       0.794   8.607  21.626  0.00  0.00    +0.000 A 
ATOM     13  C   UNL     1      -0.049   9.656  22.003  0.00  0.00    +0.000 A 
ATOM     14  C   UNL     1      -0.387  10.651  21.081  0.00  0.00    +0.000 A 
ATOM     15  C   UNL     1       0.132  10.611  19.788  0.00  0.00    +0.000 A 
ATOM     16  C   UNL     1       0.974   9.566  19.409  0.00  0.00    +0.000 A 
ENDBRANCH   8  11
BRANCH  10  17
ATOM     17  C   UNL     1       1.303   3.917  19.684  0.00  0.00    +0.000 C 
ATOM     18  F   UNL     1       1.571   2.631  20.010  0.00  0.00    +0.000 F 
ATOM     19  F   UNL     1       0.130   4.244  20.281  0.00  0.00    +0.000 F 
ATOM     20  F   UNL     1       1.052   3.913  18.345  0.00  0.00    +0.000 F 
ENDBRANCH  10  17
BRANCH   1  22
ATOM     21  C   UNL     1       6.636   4.905  15.003  0.00  0.00    +0.000 C 
ATOM     22  O   UNL     1       5.671   5.865  15.428  0.00  0.00    +0.000 OA
ENDBRANCH   1  22
BRANCH   3  23
ATOM     23  O   UNL     1       4.118   2.750  18.672  0.00  0.00    +0.000 OA
ATOM     24  C   UNL     1       3.557   1.858  17.716  0.00  0.00    +0.000 C 
ENDBRANCH   3  23
BRANCH  10  25
ATOM     25  O   UNL     1       3.215   4.552  21.240  0.00  0.00    +0.000 OA
ATOM     26  H   UNL     1       2.729   3.822  21.663  0.00  0.00    +0.000 HD
ENDBRANCH  10  25
TORSDOF 5
ENDMDL
MODEL 2
REMARK VINA RESULT:      -7.9      0.238      1.249
REMARK  Name = 
REMARK  7 active torsions:
REMARK  status: ('A' for Active; 'I' for Inactive)
REMARK    1  A    between atoms: C_1  and  O_2
REMARK    2  A    between atoms: O_2  and  C_3
REMARK    3  A    between atoms: C_5  and  O_6
REMARK    4  A    between atoms: O_6  and  C_7
REMARK    5  A    between atoms: C_12  and  C_13
REMARK    6  A    between atoms: C_20  and  O_21
REMARK    7  A    between atoms: C_20  and  C_22
REMARK                            x       y       z     vdW  Elec       q    Type
REMARK                         _______ _______ _______ _____ _____    ______ ____
ROOT
ATOM      1  C   UNL     1       4.967   5.558  16.616  0.00  0.00    +0.000 A 
ATOM      2  C   UNL     1       4.957   4.310  17.232  0.00  0.00    +0.000 A 
ATOM      3  C   UNL     1       4.197   4.075  18.391  0.00  0.00    +0.000 A 
ATOM      4  C   UNL     1       3.424   5.111  18.956  0.00  0.00    +0.000 A 
ATOM      5  C   UNL     1       3.481   6.382  18.340  0.00  0.00    +0.000 A 
ATOM      6  C   UNL     1       4.246   6.600  17.190  0.00  0.00    +0.000 A 
ATOM      7  O   UNL     1       2.761   7.479  18.776  0.00  0.00    +0.000 OA
ATOM      8  C   UNL     1       1.975   7.338  19.894  0.00  0.00    +0.000 C 
ATOM      9  C   UNL     1       1.814   6.191  20.553  0.00  0.00    +0.000 C 
ATOM     10  C   UNL     1       2.451   4.906  20.108  0.00  0.00    +0.000 C 
ENDROOT
BRANCH   8  11
ATOM     11  C   UNL     1       1.239   8.518  20.353  0.00  0.00    +0.000 A 
ATOM     12  C   UNL     1       1.006   9.588  19.482  0.00  0.00    +0.000 A 
ATOM     13  C   UNL     1       0.468  10.782  19.972  0.00  0.00    +0.000 A 
ATOM     14  C   UNL     1       0.161  10.908  21.329  0.00  0.00    +0.000 A 
ATOM     15  C   UNL     1       0.370   9.837  22.196  0.00  0.00    +0.000 A 
ATOM     16  C   UNL     1       0.905   8.644  21.709  0.00  0.00    +0.000 A 
ENDBRANCH   8  11
BRANCH  10  17
ATOM     17  C   UNL     1       1.302   3.881  19.737  0.00  0.00    +0.000 C 
ATOM     18  F   UNL     1       1.012   3.846  18.415  0.00  0.00    +0.000 F 
ATOM     19  F   UNL     1       1.609   2.614  20.112  0.00  0.00    +0.000 F 
ATOM     20  F   UNL     1       0.131   4.183  20.363  0.00  0.00    +0.000 F 
ENDBRANCH  10  17
BRANCH   1  22
ATOM     21  C   UNL     1       6.063   4.756  14.678  0.00  0.00    +0.000 C 
ATOM     22  O   UNL     1       5.635   5.867  15.462  0.00  0.00    +0.000 OA
ENDBRANCH   1  22
BRANCH   3  23
ATOM     23  O   UNL     1       4.131   2.746  18.724  0.00  0.00    +0.000 OA
ATOM     24  C   UNL     1       3.573   1.844  17.777  0.00  0.00    +0.000 C 
ENDBRANCH   3  23
BRANCH  10  25
ATOM     25  O   UNL     1       3.210   4.549  21.286  0.00  0.00    +0.000 OA
ATOM     26  H   UNL     1       2.653   4.769  22.054  0.00  0.00    +0.000 HD
ENDBRANCH  10  25
TORSDOF 5
ENDMDL
MODEL 3
REMARK VINA RESULT:      -7.6      0.829      1.088
REMARK  Name = 
REMARK  7 active torsions:
REMARK  status: ('A' for Active; 'I' for Inactive)
REMARK    1  A    between atoms: C_1  and  O_2
REMARK    2  A    between atoms: O_2  and  C_3
REMARK    3  A    between atoms: C_5  and  O_6
REMARK    4  A    between atoms: O_6  and  C_7
REMARK    5  A    between atoms: C_12  and  C_13
REMARK    6  A    between atoms: C_20  and  O_21
REMARK    7  A    between atoms: C_20  and  C_22
REMARK                            x       y       z     vdW  Elec       q    Type
REMARK                         _______ _______ _______ _____ _____    ______ ____
ROOT
ATOM      1  C   UNL     1       5.454   5.007  17.564  0.00  0.00    +0.000 A 
ATOM      2  C   UNL     1       5.212   3.792  18.200  0.00  0.00    +0.000 A 
ATOM      3  C   UNL     1       4.210   3.669  19.179  0.00  0.00    +0.000 A 
ATOM      4  C   UNL     1       3.427   4.787  19.538  0.00  0.00    +0.000 A 
ATOM      5  C   UNL     1       3.717   6.020  18.911  0.00  0.00    +0.000 A 
ATOM      6  C   UNL     1       4.720   6.126  17.943  0.00  0.00    +0.000 A 
ATOM      7  O   UNL     1       3.018   7.188  19.154  0.00  0.00    +0.000 OA
ATOM      8  C   UNL     1       2.008   7.159  20.085  0.00  0.00    +0.000 C 
ATOM      9  C   UNL     1       1.617   6.058  20.728  0.00  0.00    +0.000 C 
ATOM     10  C   UNL     1       2.222   4.709  20.465  0.00  0.00    +0.000 C 
ENDROOT
BRANCH   8  11
ATOM     11  C   UNL     1       1.294   8.410  20.344  0.00  0.00    +0.000 A 
ATOM     12  C   UNL     1       0.644   8.613  21.567  0.00  0.00    +0.000 A 
ATOM     13  C   UNL     1      -0.186   9.724  21.740  0.00  0.00    +0.000 A 
ATOM     14  C   UNL     1      -0.368  10.634  20.695  0.00  0.00    +0.000 A 
ATOM     15  C   UNL     1       0.296  10.448  19.483  0.00  0.00    +0.000 A 
ATOM     16  C   UNL     1       1.125   9.341  19.308  0.00  0.00    +0.000 A 
ENDBRANCH   8  11
BRANCH  10  17
ATOM     17  C   UNL     1       1.094   3.759  19.889  0.00  0.00    +0.000 C 
ATOM     18  F   UNL     1       1.120   3.638  18.541  0.00  0.00    +0.000 F 
ATOM     19  F   UNL     1       1.171   2.507  20.404  0.00  0.00    +0.000 F 
ATOM     20  F   UNL     1      -0.154   4.212  20.193  0.00  0.00    +0.000 F 
ENDBRANCH  10  17
BRANCH   1  22
ATOM     21  C   UNL     1       7.216   6.347  16.728  0.00  0.00    +0.000 C 
ATOM     22  O   UNL     1       6.371   5.210  16.569  0.00  0.00    +0.000 OA
ENDBRANCH   1  22
BRANCH   3  23
ATOM     23  O   UNL     1       3.965   2.367  19.529  0.00  0.00    +0.000 OA
ATOM     24  C   UNL     1       3.649   1.442  18.495  0.00  0.00    +0.000 C 
ENDBRANCH   3  23
BRANCH  10  25
ATOM     25  O   UNL     1       2.687   4.350  21.785  0.00  0.00    +0.000 OA
ATOM     26  H   UNL     1       2.781   5.181  22.284  0.00  0.00    +0.000 HD
ENDBRANCH  10  25
TORSDOF 5
ENDMDL
MODEL 4
REMARK VINA RESULT:      -7.5      0.971      1.585
REMARK  Name = 
REMARK  7 active torsions:
REMARK  status: ('A' for Active; 'I' for Inactive)
REMARK    1  A    between atoms: C_1  and  O_2
REMARK    2  A    between atoms: O_2  and  C_3
REMARK    3  A    between atoms: C_5  and  O_6
REMARK    4  A    between atoms: O_6  and  C_7
REMARK    5  A    between atoms: C_12  and  C_13
REMARK    6  A    between atoms: C_20  and  O_21
REMARK    7  A    between atoms: C_20  and  C_22
REMARK                            x       y       z     vdW  Elec       q    Type
REMARK                         _______ _______ _______ _____ _____    ______ ____
ROOT
ATOM      1  C   UNL     1       4.907   4.390  16.561  0.00  0.00    +0.000 A 
ATOM      2  C   UNL     1       4.767   3.328  17.451  0.00  0.00    +0.000 A 
ATOM      3  C   UNL     1       4.005   3.457  18.625  0.00  0.00    +0.000 A 
ATOM      4  C   UNL     1       3.364   4.677  18.926  0.00  0.00    +0.000 A 
ATOM      5  C   UNL     1       3.552   5.754  18.031  0.00  0.00    +0.000 A 
ATOM      6  C   UNL     1       4.317   5.611  16.869  0.00  0.00    +0.000 A 
ATOM      7  O   UNL     1       2.968   6.998  18.192  0.00  0.00    +0.000 OA
ATOM      8  C   UNL     1       2.190   7.210  19.305  0.00  0.00    +0.000 C 
ATOM      9  C   UNL     1       1.912   6.274  20.211  0.00  0.00    +0.000 C 
ATOM     10  C   UNL     1       2.392   4.856  20.084  0.00  0.00    +0.000 C 
ENDROOT
BRANCH   8  11
ATOM     11  C   UNL     1       1.598   8.540  19.469  0.00  0.00    +0.000 A 
ATOM     12  C   UNL     1       1.682   9.483  18.438  0.00  0.00    +0.000 A 
ATOM     13  C   UNL     1       1.282  10.803  18.665  0.00  0.00    +0.000 A 
ATOM     14  C   UNL     1       0.797  11.183  19.919  0.00  0.00    +0.000 A 
ATOM     15  C   UNL     1       0.690  10.242  20.942  0.00  0.00    +0.000 A 
ATOM     16  C   UNL     1       1.088   8.924  20.717  0.00  0.00    +0.000 A 
ENDBRANCH   8  11
BRANCH  10  17
ATOM     17  C   UNL     1       1.130   3.911  19.950  0.00  0.00    +0.000 C 
ATOM     18  F   UNL     1       0.896   3.492  18.684  0.00  0.00    +0.000 F 
ATOM     19  F   UNL     1       1.241   2.801  20.723  0.00  0.00    +0.000 F 
ATOM     20  F   UNL     1      -0.014   4.532  20.350  0.00  0.00    +0.000 F 
ENDBRANCH  10  17
BRANCH   1  22
ATOM     21  C   UNL     1       6.930   4.818  15.410  0.00  0.00    +0.000 C 
ATOM     22  O   UNL     1       5.585   4.344  15.374  0.00  0.00    +0.000 OA
ENDBRANCH   1  22
BRANCH   3  23
ATOM     23  O   UNL     1       3.795   2.259  19.258  0.00  0.00    +0.000 OA
ATOM     24  C   UNL     1       4.708   1.870  20.278  0.00  0.00    +0.000 C 
ENDBRANCH   3  23
BRANCH  10  25
ATOM     25  O   UNL     1       3.126   4.700  21.320  0.00  0.00    +0.000 OA
ATOM     26  H   UNL     1       2.603   4.101  21.882  0.00  0.00    +0.000 HD
ENDBRANCH  10  25
TORSDOF 5
ENDMDL
MODEL 5
REMARK VINA RESULT:      -7.4      2.666      4.312
REMARK  Name = 
REMARK  7 active torsions:
REMARK  status: ('A' for Active; 'I' for Inactive)
REMARK    1  A    between atoms: C_1  and  O_2
REMARK    2  A    between atoms: O_2  and  C_3
REMARK    3  A    between atoms: C_5  and  O_6
REMARK    4  A    between atoms: O_6  and  C_7
REMARK    5  A    between atoms: C_12  and  C_13
REMARK    6  A    between atoms: C_20  and  O_21
REMARK    7  A    between atoms: C_20  and  C_22
REMARK                            x       y       z     vdW  Elec       q    Type
REMARK                         _______ _______ _______ _____ _____    ______ ____
ROOT
ATOM      1  C   UNL     1       3.503   2.677  17.775  0.00  0.00    +0.000 A 
ATOM      2  C   UNL     1       4.596   2.806  16.921  0.00  0.00    +0.000 A 
ATOM      3  C   UNL     1       5.068   4.070  16.528  0.00  0.00    +0.000 A 
ATOM      4  C   UNL     1       4.436   5.241  16.995  0.00  0.00    +0.000 A 
ATOM      5  C   UNL     1       3.304   5.088  17.827  0.00  0.00    +0.000 A 
ATOM      6  C   UNL     1       2.843   3.823  18.205  0.00  0.00    +0.000 A 
ATOM      7  O   UNL     1       2.601   6.148  18.370  0.00  0.00    +0.000 OA
ATOM      8  C   UNL     1       3.002   7.424  18.055  0.00  0.00    +0.000 C 
ATOM      9  C   UNL     1       4.066   7.707  17.304  0.00  0.00    +0.000 C 
ATOM     10  C   UNL     1       4.974   6.645  16.753  0.00  0.00    +0.000 C 
ENDROOT
BRANCH   8  11
ATOM     11  C   UNL     1       2.232   8.532  18.622  0.00  0.00    +0.000 A 
ATOM     12  C   UNL     1       1.634   8.406  19.882  0.00  0.00    +0.000 A 
ATOM     13  C   UNL     1       0.752   9.389  20.337  0.00  0.00    +0.000 A 
ATOM     14  C   UNL     1       0.466  10.499  19.539  0.00  0.00    +0.000 A 
ATOM     15  C   UNL     1       1.076  10.641  18.293  0.00  0.00    +0.000 A 
ATOM     16  C   UNL     1       1.957   9.661  17.837  0.00  0.00    +0.000 A 
ENDBRANCH   8  11
BRANCH  10  17
ATOM     17  C   UNL     1       6.414   6.843  17.382  0.00  0.00    +0.000 C 
ATOM     18  F   UNL     1       6.721   8.136  17.641  0.00  0.00    +0.000 F 
ATOM     19  F   UNL     1       6.561   6.158  18.543  0.00  0.00    +0.000 F 
ATOM     20  F   UNL     1       7.395   6.390  16.554  0.00  0.00    +0.000 F 
ENDBRANCH  10  17
BRANCH   1  22
ATOM     21  C   UNL     1       1.871   1.600  19.108  0.00  0.00    +0.000 C 
ATOM     22  O   UNL     1       3.004   1.494  18.249  0.00  0.00    +0.000 OA
ENDBRANCH   1  22
BRANCH   3  23
ATOM     23  O   UNL     1       6.273   4.010  15.877  0.00  0.00    +0.000 OA
ATOM     24  C   UNL     1       6.264   3.904  14.458  0.00  0.00    +0.000 C 
ENDBRANCH   3  23
BRANCH  10  25
ATOM     25  O   UNL     1       4.899   6.922  15.337  0.00  0.00    +0.000 OA
ATOM     26  H   UNL     1       5.121   6.092  14.878  0.00  0.00    +0.000 HD
ENDBRANCH  10  25
TORSDOF 5
ENDMDL
MODEL 6
REMARK VINA RESULT:      -7.3      2.672      4.414
REMARK  Name = 
REMARK  7 active torsions:
REMARK  status: ('A' for Active; 'I' for Inactive)
REMARK    1  A    between atoms: C_1  and  O_2
REMARK    2  A    between atoms: O_2  and  C_3
REMARK    3  A    between atoms: C_5  and  O_6
REMARK    4  A    between atoms: O_6  and  C_7
REMARK    5  A    between atoms: C_12  and  C_13
REMARK    6  A    between atoms: C_20  and  O_21
REMARK    7  A    between atoms: C_20  and  C_22
REMARK                            x       y       z     vdW  Elec       q    Type
REMARK                         _______ _______ _______ _____ _____    ______ ____
ROOT
ATOM      1  C   UNL     1       3.415   2.746  17.853  0.00  0.00    +0.000 A 
ATOM      2  C   UNL     1       4.533   2.848  17.029  0.00  0.00    +0.000 A 
ATOM      3  C   UNL     1       5.018   4.099  16.611  0.00  0.00    +0.000 A 
ATOM      4  C   UNL     1       4.375   5.285  17.023  0.00  0.00    +0.000 A 
ATOM      5  C   UNL     1       3.218   5.158  17.825  0.00  0.00    +0.000 A 
ATOM      6  C   UNL     1       2.744   3.906  18.228  0.00  0.00    +0.000 A 
ATOM      7  O   UNL     1       2.501   6.235  18.314  0.00  0.00    +0.000 OA
ATOM      8  C   UNL     1       2.913   7.500  17.971  0.00  0.00    +0.000 C 
ATOM      9  C   UNL     1       4.000   7.759  17.244  0.00  0.00    +0.000 C 
ATOM     10  C   UNL     1       4.922   6.680  16.754  0.00  0.00    +0.000 C 
ENDROOT
BRANCH   8  11
ATOM     11  C   UNL     1       2.129   8.626  18.481  0.00  0.00    +0.000 A 
ATOM     12  C   UNL     1       2.146   9.858  17.817  0.00  0.00    +0.000 A 
ATOM     13  C   UNL     1       1.548  10.976  18.404  0.00  0.00    +0.000 A 
ATOM     14  C   UNL     1       0.930  10.867  19.653  0.00  0.00    +0.000 A 
ATOM     15  C   UNL     1       0.890   9.637  20.307  0.00  0.00    +0.000 A 
ATOM     16  C   UNL     1       1.486   8.519  19.723  0.00  0.00    +0.000 A 
ENDBRANCH   8  11
BRANCH  10  17
ATOM     17  C   UNL     1       6.342   6.896  17.419  0.00  0.00    +0.000 C 
ATOM     18  F   UNL     1       7.373   6.467  16.652  0.00  0.00    +0.000 F 
ATOM     19  F   UNL     1       6.577   8.200  17.708  0.00  0.00    +0.000 F 
ATOM     20  F   UNL     1       6.458   6.225  18.598  0.00  0.00    +0.000 F 
ENDBRANCH  10  17
BRANCH   1  22
ATOM     21  C   UNL     1       1.738   1.712  19.165  0.00  0.00    +0.000 C 
ATOM     22  O   UNL     1       2.900   1.579  18.349  0.00  0.00    +0.000 OA
ENDBRANCH   1  22
BRANCH   3  23
ATOM     23  O   UNL     1       6.242   4.018  15.998  0.00  0.00    +0.000 OA
ATOM     24  C   UNL     1       6.276   3.888  14.582  0.00  0.00    +0.000 C 
ENDBRANCH   3  23
BRANCH  10  25
ATOM     25  O   UNL     1       4.890   6.913  15.328  0.00  0.00    +0.000 OA
ATOM     26  H   UNL     1       3.958   6.840  15.054  0.00  0.00    +0.000 HD
ENDBRANCH  10  25
TORSDOF 5
ENDMDL
MODEL 7
REMARK VINA RESULT:      -7.1      1.952      6.337
REMARK  Name = 
REMARK  7 active torsions:
REMARK  status: ('A' for Active; 'I' for Inactive)
REMARK    1  A    between atoms: C_1  and  O_2
REMARK    2  A    between atoms: O_2  and  C_3
REMARK    3  A    between atoms: C_5  and  O_6
REMARK    4  A    between atoms: O_6  and  C_7
REMARK    5  A    between atoms: C_12  and  C_13
REMARK    6  A    between atoms: C_20  and  O_21
REMARK    7  A    between atoms: C_20  and  C_22
REMARK                            x       y       z     vdW  Elec       q    Type
REMARK                         _______ _______ _______ _____ _____    ______ ____
ROOT
ATOM      1  C   UNL     1       2.220   6.806  19.800  0.00  0.00    +0.000 A 
ATOM      2  C   UNL     1       1.471   5.689  20.159  0.00  0.00    +0.000 A 
ATOM      3  C   UNL     1       1.650   4.453  19.515  0.00  0.00    +0.000 A 
ATOM      4  C   UNL     1       2.601   4.322  18.481  0.00  0.00    +0.000 A 
ATOM      5  C   UNL     1       3.321   5.478  18.103  0.00  0.00    +0.000 A 
ATOM      6  C   UNL     1       3.128   6.702  18.751  0.00  0.00    +0.000 A 
ATOM      7  O   UNL     1       4.295   5.488  17.121  0.00  0.00    +0.000 OA
ATOM      8  C   UNL     1       4.551   4.319  16.447  0.00  0.00    +0.000 C 
ATOM      9  C   UNL     1       3.962   3.155  16.722  0.00  0.00    +0.000 C 
ATOM     10  C   UNL     1       2.975   2.992  17.842  0.00  0.00    +0.000 C 
ENDROOT
BRANCH   8  11
ATOM     11  C   UNL     1       5.570   4.356  15.396  0.00  0.00    +0.000 A 
ATOM     12  C   UNL     1       6.707   5.160  15.541  0.00  0.00    +0.000 A 
ATOM     13  C   UNL     1       7.580   5.335  14.464  0.00  0.00    +0.000 A 
ATOM     14  C   UNL     1       7.322   4.708  13.243  0.00  0.00    +0.000 A 
ATOM     15  C   UNL     1       6.203   3.888  13.100  0.00  0.00    +0.000 A 
ATOM     16  C   UNL     1       5.331   3.711  14.174  0.00  0.00    +0.000 A 
ENDBRANCH   8  11
BRANCH  10  17
ATOM     17  C   UNL     1       3.578   1.977  18.896  0.00  0.00    +0.000 C 
ATOM     18  F   UNL     1       4.319   2.572  19.862  0.00  0.00    +0.000 F 
ATOM     19  F   UNL     1       2.612   1.258  19.521  0.00  0.00    +0.000 F 
ATOM     20  F   UNL     1       4.402   1.066  18.310  0.00  0.00    +0.000 F 
ENDBRANCH  10  17
BRANCH   1  22
ATOM     21  C   UNL     1       1.090   8.204  21.339  0.00  0.00    +0.000 C 
ATOM     22  O   UNL     1       2.149   8.034  20.400  0.00  0.00    +0.000 OA
ENDBRANCH   1  22
BRANCH   3  23
ATOM     23  O   UNL     1       0.997   3.424  20.144  0.00  0.00    +0.000 OA
ATOM     24  C   UNL     1       1.320   3.155  21.502  0.00  0.00    +0.000 C 
ENDBRANCH   3  23
BRANCH  10  25
ATOM     25  O   UNL     1       1.823   2.493  17.126  0.00  0.00    +0.000 OA
ATOM     26  H   UNL     1       1.754   1.544  17.334  0.00  0.00    +0.000 HD
ENDBRANCH  10  25
TORSDOF 5
ENDMDL
MODEL 8
REMARK VINA RESULT:      -7.0      1.959      6.278
REMARK  Name = 
REMARK  7 active torsions:
REMARK  status: ('A' for Active; 'I' for Inactive)
REMARK    1  A    between atoms: C_1  and  O_2
REMARK    2  A    between atoms: O_2  and  C_3
REMARK    3  A    between atoms: C_5  and  O_6
REMARK    4  A    between atoms: O_6  and  C_7
REMARK    5  A    between atoms: C_12  and  C_13
REMARK    6  A    between atoms: C_20  and  O_21
REMARK    7  A    between atoms: C_20  and  C_22
REMARK                            x       y       z     vdW  Elec       q    Type
REMARK                         _______ _______ _______ _____ _____    ______ ____
ROOT
ATOM      1  C   UNL     1       2.051   6.774  20.197  0.00  0.00    +0.000 A 
ATOM      2  C   UNL     1       1.332   5.622  20.505  0.00  0.00    +0.000 A 
ATOM      3  C   UNL     1       1.511   4.434  19.775  0.00  0.00    +0.000 A 
ATOM      4  C   UNL     1       2.432   4.388  18.708  0.00  0.00    +0.000 A 
ATOM      5  C   UNL     1       3.122   5.579  18.385  0.00  0.00    +0.000 A 
ATOM      6  C   UNL     1       2.928   6.754  19.118  0.00  0.00    +0.000 A 
ATOM      7  O   UNL     1       4.064   5.672  17.377  0.00  0.00    +0.000 OA
ATOM      8  C   UNL     1       4.319   4.554  16.621  0.00  0.00    +0.000 C 
ATOM      9  C   UNL     1       3.758   3.364  16.836  0.00  0.00    +0.000 C 
ATOM     10  C   UNL     1       2.808   3.110  17.971  0.00  0.00    +0.000 C 
ENDROOT
BRANCH   8  11
ATOM     11  C   UNL     1       5.304   4.678  15.545  0.00  0.00    +0.000 A 
ATOM     12  C   UNL     1       5.132   3.977  14.345  0.00  0.00    +0.000 A 
ATOM     13  C   UNL     1       6.160   3.953  13.399  0.00  0.00    +0.000 A 
ATOM     14  C   UNL     1       7.359   4.627  13.646  0.00  0.00    +0.000 A 
ATOM     15  C   UNL     1       7.525   5.345  14.829  0.00  0.00    +0.000 A 
ATOM     16  C   UNL     1       6.501   5.372  15.776  0.00  0.00    +0.000 A 
ENDBRANCH   8  11
BRANCH  10  17
ATOM     17  C   UNL     1       3.460   2.040  18.939  0.00  0.00    +0.000 C 
ATOM     18  F   UNL     1       4.319   1.197  18.318  0.00  0.00    +0.000 F 
ATOM     19  F   UNL     1       4.139   2.621  19.959  0.00  0.00    +0.000 F 
ATOM     20  F   UNL     1       2.520   1.244  19.521  0.00  0.00    +0.000 F 
ENDBRANCH  10  17
BRANCH   1  22
ATOM     21  C   UNL     1       0.677   8.343  21.316  0.00  0.00    +0.000 C 
ATOM     22  O   UNL     1       1.979   7.958  20.880  0.00  0.00    +0.000 OA
ENDBRANCH   1  22
BRANCH   3  23
ATOM     23  O   UNL     1       0.895   3.354  20.354  0.00  0.00    +0.000 OA
ATOM     24  C   UNL     1       1.304   2.969  21.661  0.00  0.00    +0.000 C 
ENDBRANCH   3  23
BRANCH  10  25
ATOM     25  O   UNL     1       1.643   2.638  17.258  0.00  0.00    +0.000 OA
ATOM     26  H   UNL     1       0.937   2.525  17.920  0.00  0.00    +0.000 HD
ENDBRANCH  10  25
TORSDOF 5
ENDMDL
MODEL 9
REMARK VINA RESULT:      -6.6      4.317      7.076
REMARK  Name = 
REMARK  7 active torsions:
REMARK  status: ('A' for Active; 'I' for Inactive)
REMARK    1  A    between atoms: C_1  and  O_2
REMARK    2  A    between atoms: O_2  and  C_3
REMARK    3  A    between atoms: C_5  and  O_6
REMARK    4  A    between atoms: O_6  and  C_7
REMARK    5  A    between atoms: C_12  and  C_13
REMARK    6  A    between atoms: C_20  and  O_21
REMARK    7  A    between atoms: C_20  and  C_22
REMARK                            x       y       z     vdW  Elec       q    Type
REMARK                         _______ _______ _______ _____ _____    ______ ____
ROOT
ATOM      1  C   UNL     1      -1.425  10.186  17.483  0.00  0.00    +0.000 A 
ATOM      2  C   UNL     1      -0.193   9.627  17.814  0.00  0.00    +0.000 A 
ATOM      3  C   UNL     1       0.374   9.814  19.086  0.00  0.00    +0.000 A 
ATOM      4  C   UNL     1      -0.302  10.579  20.060  0.00  0.00    +0.000 A 
ATOM      5  C   UNL     1      -1.531  11.172  19.691  0.00  0.00    +0.000 A 
ATOM      6  C   UNL     1      -2.079  10.981  18.419  0.00  0.00    +0.000 A 
ATOM      7  O   UNL     1      -2.306  11.930  20.550  0.00  0.00    +0.000 OA
ATOM      8  C   UNL     1      -1.839  12.152  21.822  0.00  0.00    +0.000 C 
ATOM      9  C   UNL     1      -0.710  11.631  22.304  0.00  0.00    +0.000 C 
ATOM     10  C   UNL     1       0.157  10.699  21.506  0.00  0.00    +0.000 C 
ENDROOT
BRANCH   8  11
ATOM     11  C   UNL     1      -2.663  12.975  22.709  0.00  0.00    +0.000 A 
ATOM     12  C   UNL     1      -3.329  12.394  23.795  0.00  0.00    +0.000 A 
ATOM     13  C   UNL     1      -4.257  13.143  24.525  0.00  0.00    +0.000 A 
ATOM     14  C   UNL     1      -4.520  14.469  24.175  0.00  0.00    +0.000 A 
ATOM     15  C   UNL     1      -3.843  15.058  23.108  0.00  0.00    +0.000 A 
ATOM     16  C   UNL     1      -2.916  14.314  22.378  0.00  0.00    +0.000 A 
ENDBRANCH   8  11
BRANCH  10  17
ATOM     17  C   UNL     1       0.186   9.295  22.236  0.00  0.00    +0.000 C 
ATOM     18  F   UNL     1      -0.185   9.350  23.537  0.00  0.00    +0.000 F 
ATOM     19  F   UNL     1      -0.621   8.389  21.630  0.00  0.00    +0.000 F 
ATOM     20  F   UNL     1       1.432   8.747  22.232  0.00  0.00    +0.000 F 
ENDBRANCH  10  17
BRANCH   1  22
ATOM     21  C   UNL     1      -3.127  10.946  16.024  0.00  0.00    +0.000 C 
ATOM     22  O   UNL     1      -2.076  10.019  16.291  0.00  0.00    +0.000 OA
ENDBRANCH   1  22
BRANCH   3  23
ATOM     23  O   UNL     1       1.467   9.015  19.305  0.00  0.00    +0.000 OA
ATOM     24  C   UNL     1       2.183   8.533  18.174  0.00  0.00    +0.000 C 
ENDBRANCH   3  23
BRANCH  10  25
ATOM     25  O   UNL     1       1.417  11.407  21.526  0.00  0.00    +0.000 OA
ATOM     26  H   UNL     1       1.248  12.289  21.148  0.00  0.00    +0.000 HD
ENDBRANCH  10  25
TORSDOF 5
ENDMDL
