MODEL 1
REMARK VINA RESULT:      -7.5      0.000      0.000
REMARK  Name = 
REMARK  2 active torsions:
REMARK  status: ('A' for Active; 'I' for Inactive)
REMARK    1  A    between atoms: C_1  and  C_2
REMARK    2  A    between atoms: C_2  and  C_3
REMARK                            x       y       z     vdW  Elec       q    Type
REMARK                         _______ _______ _______ _____ _____    ______ ____
ROOT
ATOM      1  C   UNL     1       0.801   3.742  19.487  0.00  0.00    +0.000 C 
ATOM      2  C   UNL     1       2.135   3.370  20.123  0.00  0.00    +0.000 C 
ATOM      3  C   UNL     1       1.994   2.951  21.580  0.00  0.00    +0.000 C 
ATOM      4  S   UNL     1       3.265   4.785  20.034  0.00  0.00    +0.000 S 
ATOM      5  C   UNL     1       4.286   3.932  18.888  0.00  0.00    +0.000 C 
ATOM      6  N   UNL     1       5.364   4.611  18.367  0.00  0.00    +0.000 N 
ATOM      7  C   UNL     1       6.110   5.625  19.114  0.00  0.00    +0.000 C 
ATOM      8  C   UNL     1       7.596   5.454  18.838  0.00  0.00    +0.000 C 
ATOM      9  O   UNL     1       7.912   5.680  17.463  0.00  0.00    +0.000 OA
ATOM     10  C   UNL     1       7.006   5.110  16.598  0.00  0.00    +0.000 A 
ATOM     11  C   UNL     1       7.383   5.132  15.252  0.00  0.00    +0.000 A 
ATOM     12  C   UNL     1       6.527   4.625  14.280  0.00  0.00    +0.000 A 
ATOM     13  C   UNL     1       5.296   4.095  14.652  0.00  0.00    +0.000 A 
ATOM     14  C   UNL     1       4.922   4.064  15.999  0.00  0.00    +0.000 A 
ATOM     15  C   UNL     1       5.764   4.573  17.003  0.00  0.00    +0.000 A 
ATOM     16  N   UNL     1       3.932   2.719  18.607  0.00  0.00    +0.000 NA
ATOM     17  C   UNL     1       2.820   2.291  19.290  0.00  0.00    +0.000 C 
ATOM     18  O   UNL     1       2.391   1.146  19.223  0.00  0.00    +0.000 OA
ENDROOT
TORSDOF 0
ENDMDL
MODEL 2
REMARK VINA RESULT:      -7.2      4.339      5.937
REMARK  Name = 
REMARK  2 active torsions:
REMARK  status: ('A' for Active; 'I' for Inactive)
REMARK    1  A    between atoms: C_1  and  C_2
REMARK    2  A    between atoms: C_2  and  C_3
REMARK                            x       y       z     vdW  Elec       q    Type
REMARK                         _______ _______ _______ _____ _____    ______ ____
ROOT
ATOM      1  C   UNL     1      -0.305   9.624  18.135  0.00  0.00    +0.000 C 
ATOM      2  C   UNL     1       1.106   9.694  18.704  0.00  0.00    +0.000 C 
ATOM      3  C   UNL     1       1.708  11.089  18.612  0.00  0.00    +0.000 C 
ATOM      4  S   UNL     1       2.179   8.541  17.806  0.00  0.00    +0.000 S 
ATOM      5  C   UNL     1       2.328   7.526  19.231  0.00  0.00    +0.000 C 
ATOM      6  N   UNL     1       3.041   6.355  19.108  0.00  0.00    +0.000 N 
ATOM      7  C   UNL     1       4.184   6.203  18.206  0.00  0.00    +0.000 C 
ATOM      8  C   UNL     1       5.266   5.395  18.908  0.00  0.00    +0.000 C 
ATOM      9  O   UNL     1       4.831   4.067  19.204  0.00  0.00    +0.000 OA
ATOM     10  C   UNL     1       3.544   4.013  19.689  0.00  0.00    +0.000 A 
ATOM     11  C   UNL     1       3.152   2.765  20.180  0.00  0.00    +0.000 A 
ATOM     12  C   UNL     1       1.857   2.577  20.654  0.00  0.00    +0.000 A 
ATOM     13  C   UNL     1       0.956   3.637  20.638  0.00  0.00    +0.000 A 
ATOM     14  C   UNL     1       1.351   4.888  20.156  0.00  0.00    +0.000 A 
ATOM     15  C   UNL     1       2.650   5.107  19.666  0.00  0.00    +0.000 A 
ATOM     16  N   UNL     1       1.737   7.958  20.298  0.00  0.00    +0.000 NA
ATOM     17  C   UNL     1       1.112   9.170  20.136  0.00  0.00    +0.000 C 
ATOM     18  O   UNL     1       0.578   9.778  21.057  0.00  0.00    +0.000 OA
ENDROOT
TORSDOF 0
ENDMDL
MODEL 3
REMARK VINA RESULT:      -7.2      0.992      1.016
REMARK  Name = 
REMARK  2 active torsions:
REMARK  status: ('A' for Active; 'I' for Inactive)
REMARK    1  A    between atoms: C_1  and  C_2
REMARK    2  A    between atoms: C_2  and  C_3
REMARK                            x       y       z     vdW  Elec       q    Type
REMARK                         _______ _______ _______ _____ _____    ______ ____
ROOT
ATOM      1  C   UNL     1       1.046   3.623  18.822  0.00  0.00    +0.000 C 
ATOM      2  C   UNL     1       2.406   3.700  19.504  0.00  0.00    +0.000 C 
ATOM      3  C   UNL     1       2.305   3.637  21.022  0.00  0.00    +0.000 C 
ATOM      4  S   UNL     1       3.230   5.248  19.042  0.00  0.00    +0.000 S 
ATOM      5  C   UNL     1       4.438   4.363  18.126  0.00  0.00    +0.000 C 
ATOM      6  N   UNL     1       5.374   5.096  17.430  0.00  0.00    +0.000 N 
ATOM      7  C   UNL     1       5.875   6.394  17.885  0.00  0.00    +0.000 C 
ATOM      8  C   UNL     1       7.373   6.465  17.631  0.00  0.00    +0.000 C 
ATOM      9  O   UNL     1       7.681   6.401  16.238  0.00  0.00    +0.000 OA
ATOM     10  C   UNL     1       6.937   5.462  15.561  0.00  0.00    +0.000 A 
ATOM     11  C   UNL     1       7.345   5.224  14.246  0.00  0.00    +0.000 A 
ATOM     12  C   UNL     1       6.641   4.328  13.448  0.00  0.00    +0.000 A 
ATOM     13  C   UNL     1       5.531   3.669  13.964  0.00  0.00    +0.000 A 
ATOM     14  C   UNL     1       5.128   3.898  15.284  0.00  0.00    +0.000 A 
ATOM     15  C   UNL     1       5.816   4.802  16.112  0.00  0.00    +0.000 A 
ATOM     16  N   UNL     1       4.346   3.073  18.164  0.00  0.00    +0.000 NA
ATOM     17  C   UNL     1       3.322   2.611  18.954  0.00  0.00    +0.000 C 
ATOM     18  O   UNL     1       3.135   1.422  19.184  0.00  0.00    +0.000 OA
ENDROOT
TORSDOF 0
ENDMDL
MODEL 4
REMARK VINA RESULT:      -6.6      4.247      5.212
REMARK  Name = 
REMARK  2 active torsions:
REMARK  status: ('A' for Active; 'I' for Inactive)
REMARK    1  A    between atoms: C_1  and  C_2
REMARK    2  A    between atoms: C_2  and  C_3
REMARK                            x       y       z     vdW  Elec       q    Type
REMARK                         _______ _______ _______ _____ _____    ______ ____
ROOT
ATOM      1  C   UNL     1      -0.418   9.730  18.521  0.00  0.00    +0.000 C 
ATOM      2  C   UNL     1       1.009   9.705  19.054  0.00  0.00    +0.000 C 
ATOM      3  C   UNL     1       1.482  11.073  19.526  0.00  0.00    +0.000 C 
ATOM      4  S   UNL     1       2.131   9.121  17.756  0.00  0.00    +0.000 S 
ATOM      5  C   UNL     1       2.438   7.641  18.649  0.00  0.00    +0.000 C 
ATOM      6  N   UNL     1       3.242   6.694  18.056  0.00  0.00    +0.000 N 
ATOM      7  C   UNL     1       4.348   7.029  17.157  0.00  0.00    +0.000 C 
ATOM      8  C   UNL     1       5.529   6.120  17.462  0.00  0.00    +0.000 C 
ATOM      9  O   UNL     1       5.226   4.748  17.202  0.00  0.00    +0.000 OA
ATOM     10  C   UNL     1       3.974   4.378  17.638  0.00  0.00    +0.000 A 
ATOM     11  C   UNL     1       3.716   3.005  17.589  0.00  0.00    +0.000 A 
ATOM     12  C   UNL     1       2.468   2.516  17.961  0.00  0.00    +0.000 A 
ATOM     13  C   UNL     1       1.478   3.398  18.383  0.00  0.00    +0.000 A 
ATOM     14  C   UNL     1       1.739   4.771  18.443  0.00  0.00    +0.000 A 
ATOM     15  C   UNL     1       2.989   5.294  18.068  0.00  0.00    +0.000 A 
ATOM     16  N   UNL     1       1.866   7.548  19.806  0.00  0.00    +0.000 NA
ATOM     17  C   UNL     1       1.131   8.656  20.154  0.00  0.00    +0.000 C 
ATOM     18  O   UNL     1       0.594   8.788  21.247  0.00  0.00    +0.000 OA
ENDROOT
TORSDOF 0
ENDMDL
MODEL 5
REMARK VINA RESULT:      -6.4      1.828      3.139
REMARK  Name = 
REMARK  2 active torsions:
REMARK  status: ('A' for Active; 'I' for Inactive)
REMARK    1  A    between atoms: C_1  and  C_2
REMARK    2  A    between atoms: C_2  and  C_3
REMARK                            x       y       z     vdW  Elec       q    Type
REMARK                         _______ _______ _______ _____ _____    ______ ____
ROOT
ATOM      1  C   UNL     1       2.199   1.740  20.258  0.00  0.00    +0.000 C 
ATOM      2  C   UNL     1       1.781   2.783  19.229  0.00  0.00    +0.000 C 
ATOM      3  C   UNL     1       0.345   2.598  18.757  0.00  0.00    +0.000 C 
ATOM      4  S   UNL     1       2.879   2.689  17.790  0.00  0.00    +0.000 S 
ATOM      5  C   UNL     1       3.565   4.258  18.177  0.00  0.00    +0.000 C 
ATOM      6  N   UNL     1       4.598   4.714  17.389  0.00  0.00    +0.000 N 
ATOM      7  C   UNL     1       4.717   4.402  15.964  0.00  0.00    +0.000 C 
ATOM      8  C   UNL     1       5.179   5.646  15.219  0.00  0.00    +0.000 C 
ATOM      9  O   UNL     1       6.482   6.061  15.633  0.00  0.00    +0.000 OA
ATOM     10  C   UNL     1       6.665   5.997  16.995  0.00  0.00    +0.000 A 
ATOM     11  C   UNL     1       7.846   6.583  17.459  0.00  0.00    +0.000 A 
ATOM     12  C   UNL     1       8.162   6.540  18.813  0.00  0.00    +0.000 A 
ATOM     13  C   UNL     1       7.297   5.913  19.704  0.00  0.00    +0.000 A 
ATOM     14  C   UNL     1       6.109   5.336  19.242  0.00  0.00    +0.000 A 
ATOM     15  C   UNL     1       5.767   5.359  17.879  0.00  0.00    +0.000 A 
ATOM     16  N   UNL     1       3.049   4.867  19.196  0.00  0.00    +0.000 NA
ATOM     17  C   UNL     1       2.015   4.182  19.787  0.00  0.00    +0.000 C 
ATOM     18  O   UNL     1       1.346   4.640  20.706  0.00  0.00    +0.000 OA
ENDROOT
TORSDOF 0
ENDMDL
MODEL 6
REMARK VINA RESULT:      -6.3      3.505      6.172
REMARK  Name = 
REMARK  2 active torsions:
REMARK  status: ('A' for Active; 'I' for Inactive)
REMARK    1  A    between atoms: C_1  and  C_2
REMARK    2  A    between atoms: C_2  and  C_3
REMARK                            x       y       z     vdW  Elec       q    Type
REMARK                         _______ _______ _______ _____ _____    ______ ____
ROOT
ATOM      1  C   UNL     1       5.590   5.363  14.548  0.00  0.00    +0.000 C 
ATOM      2  C   UNL     1       5.916   5.064  16.006  0.00  0.00    +0.000 C 
ATOM      3  C   UNL     1       7.001   4.007  16.159  0.00  0.00    +0.000 C 
ATOM      4  S   UNL     1       4.422   4.489  16.856  0.00  0.00    +0.000 S 
ATOM      5  C   UNL     1       4.372   5.956  17.819  0.00  0.00    +0.000 C 
ATOM      6  N   UNL     1       3.307   6.119  18.677  0.00  0.00    +0.000 N 
ATOM      7  C   UNL     1       2.638   5.002  19.346  0.00  0.00    +0.000 C 
ATOM      8  C   UNL     1       2.323   5.399  20.781  0.00  0.00    +0.000 C 
ATOM      9  O   UNL     1       1.403   6.491  20.841  0.00  0.00    +0.000 OA
ATOM     10  C   UNL     1       1.674   7.479  19.923  0.00  0.00    +0.000 A 
ATOM     11  C   UNL     1       0.928   8.650  20.083  0.00  0.00    +0.000 A 
ATOM     12  C   UNL     1       1.082   9.703  19.186  0.00  0.00    +0.000 A 
ATOM     13  C   UNL     1       1.982   9.586  18.132  0.00  0.00    +0.000 A 
ATOM     14  C   UNL     1       2.736   8.419  17.979  0.00  0.00    +0.000 A 
ATOM     15  C   UNL     1       2.598   7.337  18.865  0.00  0.00    +0.000 A 
ATOM     16  N   UNL     1       5.346   6.788  17.636  0.00  0.00    +0.000 NA
ATOM     17  C   UNL     1       6.282   6.357  16.728  0.00  0.00    +0.000 C 
ATOM     18  O   UNL     1       7.318   6.967  16.492  0.00  0.00    +0.000 OA
ENDROOT
TORSDOF 0
ENDMDL
MODEL 7
REMARK VINA RESULT:      -6.2      2.198      5.753
REMARK  Name = 
REMARK  2 active torsions:
REMARK  status: ('A' for Active; 'I' for Inactive)
REMARK    1  A    between atoms: C_1  and  C_2
REMARK    2  A    between atoms: C_2  and  C_3
REMARK                            x       y       z     vdW  Elec       q    Type
REMARK                         _______ _______ _______ _____ _____    ______ ____
ROOT
ATOM      1  C   UNL     1       7.803   4.655  17.154  0.00  0.00    +0.000 C 
ATOM      2  C   UNL     1       6.820   5.812  17.275  0.00  0.00    +0.000 C 
ATOM      3  C   UNL     1       7.486   7.169  17.088  0.00  0.00    +0.000 C 
ATOM      4  S   UNL     1       6.035   5.774  18.909  0.00  0.00    +0.000 S 
ATOM      5  C   UNL     1       4.490   5.358  18.187  0.00  0.00    +0.000 C 
ATOM      6  N   UNL     1       3.435   5.111  19.036  0.00  0.00    +0.000 N 
ATOM      7  C   UNL     1       3.272   5.781  20.328  0.00  0.00    +0.000 C 
ATOM      8  C   UNL     1       1.804   6.129  20.526  0.00  0.00    +0.000 C 
ATOM      9  O   UNL     1       0.984   4.962  20.592  0.00  0.00    +0.000 OA
ATOM     10  C   UNL     1       1.320   4.010  19.657  0.00  0.00    +0.000 A 
ATOM     11  C   UNL     1       0.420   2.945  19.552  0.00  0.00    +0.000 A 
ATOM     12  C   UNL     1       0.677   1.898  18.673  0.00  0.00    +0.000 A 
ATOM     13  C   UNL     1       1.832   1.916  17.898  0.00  0.00    +0.000 A 
ATOM     14  C   UNL     1       2.727   2.986  17.994  0.00  0.00    +0.000 A 
ATOM     15  C   UNL     1       2.497   4.054  18.878  0.00  0.00    +0.000 A 
ATOM     16  N   UNL     1       4.465   5.301  16.894  0.00  0.00    +0.000 NA
ATOM     17  C   UNL     1       5.664   5.612  16.300  0.00  0.00    +0.000 C 
ATOM     18  O   UNL     1       5.809   5.699  15.087  0.00  0.00    +0.000 OA
ENDROOT
TORSDOF 0
ENDMDL
MODEL 8
REMARK VINA RESULT:      -6.1      1.790      1.877
REMARK  Name = 
REMARK  2 active torsions:
REMARK  status: ('A' for Active; 'I' for Inactive)
REMARK    1  A    between atoms: C_1  and  C_2
REMARK    2  A    between atoms: C_2  and  C_3
REMARK                            x       y       z     vdW  Elec       q    Type
REMARK                         _______ _______ _______ _____ _____    ______ ____
ROOT
ATOM      1  C   UNL     1       1.703   1.770  19.743  0.00  0.00    +0.000 C 
ATOM      2  C   UNL     1       2.530   2.935  20.272  0.00  0.00    +0.000 C 
ATOM      3  C   UNL     1       2.192   3.288  21.714  0.00  0.00    +0.000 C 
ATOM      4  S   UNL     1       2.249   4.397  19.237  0.00  0.00    +0.000 S 
ATOM      5  C   UNL     1       3.895   4.319  18.632  0.00  0.00    +0.000 C 
ATOM      6  N   UNL     1       4.264   5.229  17.667  0.00  0.00    +0.000 N 
ATOM      7  C   UNL     1       3.718   6.586  17.595  0.00  0.00    +0.000 C 
ATOM      8  C   UNL     1       4.839   7.555  17.246  0.00  0.00    +0.000 C 
ATOM      9  O   UNL     1       5.387   7.291  15.953  0.00  0.00    +0.000 OA
ATOM     10  C   UNL     1       5.567   5.950  15.704  0.00  0.00    +0.000 A 
ATOM     11  C   UNL     1       6.286   5.659  14.541  0.00  0.00    +0.000 A 
ATOM     12  C   UNL     1       6.492   4.336  14.161  0.00  0.00    +0.000 A 
ATOM     13  C   UNL     1       5.983   3.306  14.943  0.00  0.00    +0.000 A 
ATOM     14  C   UNL     1       5.274   3.596  16.113  0.00  0.00    +0.000 A 
ATOM     15  C   UNL     1       5.044   4.922  16.519  0.00  0.00    +0.000 A 
ATOM     16  N   UNL     1       4.642   3.391  19.138  0.00  0.00    +0.000 NA
ATOM     17  C   UNL     1       4.016   2.635  20.099  0.00  0.00    +0.000 C 
ATOM     18  O   UNL     1       4.589   1.771  20.751  0.00  0.00    +0.000 OA
ENDROOT
TORSDOF 0
ENDMDL
MODEL 9
REMARK VINA RESULT:      -6.0      5.166      7.120
REMARK  Name = 
REMARK  2 active torsions:
REMARK  status: ('A' for Active; 'I' for Inactive)
REMARK    1  A    between atoms: C_1  and  C_2
REMARK    2  A    between atoms: C_2  and  C_3
REMARK                            x       y       z     vdW  Elec       q    Type
REMARK                         _______ _______ _______ _____ _____    ______ ____
ROOT
ATOM      1  C   UNL     1       5.463   5.449  19.219  0.00  0.00    +0.000 C 
ATOM      2  C   UNL     1       4.196   5.463  18.373  0.00  0.00    +0.000 C 
ATOM      3  C   UNL     1       4.316   4.602  17.123  0.00  0.00    +0.000 C 
ATOM      4  S   UNL     1       3.822   7.164  17.870  0.00  0.00    +0.000 S 
ATOM      5  C   UNL     1       2.392   7.180  18.889  0.00  0.00    +0.000 C 
ATOM      6  N   UNL     1       1.679   8.355  18.967  0.00  0.00    +0.000 N 
ATOM      7  C   UNL     1       1.569   9.302  17.857  0.00  0.00    +0.000 C 
ATOM      8  C   UNL     1       0.143   9.829  17.791  0.00  0.00    +0.000 C 
ATOM      9  O   UNL     1      -0.207  10.568  18.962  0.00  0.00    +0.000 OA
ATOM     10  C   UNL     1       0.229   9.977  20.126  0.00  0.00    +0.000 A 
ATOM     11  C   UNL     1      -0.263  10.554  21.300  0.00  0.00    +0.000 A 
ATOM     12  C   UNL     1       0.144  10.071  22.539  0.00  0.00    +0.000 A 
ATOM     13  C   UNL     1       1.041   9.010  22.606  0.00  0.00    +0.000 A 
ATOM     14  C   UNL     1       1.526   8.425  21.432  0.00  0.00    +0.000 A 
ATOM     15  C   UNL     1       1.137   8.895  20.166  0.00  0.00    +0.000 A 
ATOM     16  N   UNL     1       2.124   6.075  19.506  0.00  0.00    +0.000 NA
ATOM     17  C   UNL     1       3.000   5.055  19.227  0.00  0.00    +0.000 C 
ATOM     18  O   UNL     1       2.856   3.913  19.647  0.00  0.00    +0.000 OA
ENDROOT
TORSDOF 0
ENDMDL
