MODEL 1
REMARK VINA RESULT:      -6.9      0.000      0.000
REMARK  Name = 
REMARK  10 active torsions:
REMARK  status: ('A' for Active; 'I' for Inactive)
REMARK    1  A    between atoms: C_1  and  C_2
REMARK    2  A    between atoms: C_2  and  C_3
REMARK    3  A    between atoms: C_3  and  C_4
REMARK    4  A    between atoms: C_4  and  C_5
REMARK    5  A    between atoms: C_5  and  C_6
REMARK    6  A    between atoms: C_6  and  C_7
REMARK    7  A    between atoms: C_7  and  C_8
REMARK    8  A    between atoms: C_8  and  N_9
REMARK    9  A    between atoms: C_10  and  C_12
REMARK   10  A    between atoms: C_12  and  C_13
REMARK                            x       y       z     vdW  Elec       q    Type
REMARK                         _______ _______ _______ _____ _____    ______ ____
ROOT
ATOM      1  N   UNL     1       6.031   4.972  15.722  0.00  0.00    +0.000 N 
ATOM      2  C   UNL     1       5.338   6.106  16.049  0.00  0.00    +0.000 C 
ATOM      3  O   UNL     1       5.101   6.989  15.223  0.00  0.00    +0.000 OA
ATOM      4  H   UNL     1       6.141   4.245  16.429  0.00  0.00    +0.000 HD
ENDROOT
BRANCH   1   5
ATOM      5  C   UNL     1       6.598   4.757  14.409  0.00  0.00    +0.000 C 
BRANCH   5   6
ATOM      6  C   UNL     1       5.943   3.584  13.681  0.00  0.00    +0.000 C 
BRANCH   6   7
ATOM      7  C   UNL     1       6.193   3.626  12.171  0.00  0.00    +0.000 C 
BRANCH   7   8
ATOM      8  C   UNL     1       4.933   4.033  11.410  0.00  0.00    +0.000 C 
BRANCH   8   9
ATOM      9  C   UNL     1       3.967   2.856  11.278  0.00  0.00    +0.000 C 
BRANCH   9  10
ATOM     10  C   UNL     1       2.976   3.083  10.138  0.00  0.00    +0.000 C 
BRANCH  10  12
ATOM     11  C   UNL     1       1.969   5.078   8.986  0.00  0.00    +0.000 C 
ATOM     12  C   UNL     1       3.259   4.394   9.407  0.00  0.00    +0.000 C 
ENDBRANCH  10  12
ENDBRANCH   9  10
ENDBRANCH   8   9
ENDBRANCH   7   8
ENDBRANCH   6   7
ENDBRANCH   5   6
ENDBRANCH   1   5
BRANCH   2  13
ATOM     13  C   UNL     1       4.914   6.280  17.486  0.00  0.00    +0.000 C 
BRANCH  13  14
ATOM     14  C   UNL     1       3.514   6.778  17.777  0.00  0.00    +0.000 C 
ATOM     15  O   UNL     1       3.215   7.975  17.690  0.00  0.00    +0.000 OA
ATOM     16  N   UNL     1       2.519   5.898  18.097  0.00  0.00    +0.000 N 
ATOM     17  C   UNL     1       2.616   4.523  18.322  0.00  0.00    +0.000 A 
ATOM     18  C   UNL     1       1.445   3.776  18.288  0.00  0.00    +0.000 A 
ATOM     19  C   UNL     1       1.534   2.389  18.410  0.00  0.00    +0.000 A 
ATOM     20  C   UNL     1       2.776   1.795  18.599  0.00  0.00    +0.000 A 
ATOM     21  C   UNL     1       3.882   2.620  18.670  0.00  0.00    +0.000 A 
ATOM     22  N   UNL     1       3.820   3.962  18.538  0.00  0.00    +0.000 NA
ATOM     23  H   UNL     1       1.603   6.321  18.138  0.00  0.00    +0.000 HD
ENDBRANCH  13  14
ENDBRANCH   2  13
TORSDOF 9
ENDMDL
MODEL 2
REMARK VINA RESULT:      -6.9      2.629      7.146
REMARK  Name = 
REMARK  10 active torsions:
REMARK  status: ('A' for Active; 'I' for Inactive)
REMARK    1  A    between atoms: C_1  and  C_2
REMARK    2  A    between atoms: C_2  and  C_3
REMARK    3  A    between atoms: C_3  and  C_4
REMARK    4  A    between atoms: C_4  and  C_5
REMARK    5  A    between atoms: C_5  and  C_6
REMARK    6  A    between atoms: C_6  and  C_7
REMARK    7  A    between atoms: C_7  and  C_8
REMARK    8  A    between atoms: C_8  and  N_9
REMARK    9  A    between atoms: C_10  and  C_12
REMARK   10  A    between atoms: C_12  and  C_13
REMARK                            x       y       z     vdW  Elec       q    Type
REMARK                         _______ _______ _______ _____ _____    ______ ____
ROOT
ATOM      1  N   UNL     1       4.893   5.586  18.530  0.00  0.00    +0.000 N 
ATOM      2  C   UNL     1       5.489   4.375  18.309  0.00  0.00    +0.000 C 
ATOM      3  O   UNL     1       5.298   3.407  19.048  0.00  0.00    +0.000 OA
ATOM      4  H   UNL     1       5.036   6.333  17.850  0.00  0.00    +0.000 HD
ENDROOT
BRANCH   1   5
ATOM      5  C   UNL     1       4.057   5.845  19.682  0.00  0.00    +0.000 C 
BRANCH   5   6
ATOM      6  C   UNL     1       2.600   6.097  19.293  0.00  0.00    +0.000 C 
BRANCH   6   7
ATOM      7  C   UNL     1       1.619   5.426  20.258  0.00  0.00    +0.000 C 
BRANCH   7   8
ATOM      8  C   UNL     1       2.341   4.484  21.219  0.00  0.00    +0.000 C 
BRANCH   8   9
ATOM      9  C   UNL     1       1.867   3.042  21.035  0.00  0.00    +0.000 C 
BRANCH   9  10
ATOM     10  C   UNL     1       0.887   2.930  19.869  0.00  0.00    +0.000 C 
BRANCH  10  12
ATOM     11  C   UNL     1       2.155   2.781  17.703  0.00  0.00    +0.000 C 
ATOM     12  C   UNL     1       1.421   2.001  18.781  0.00  0.00    +0.000 C 
ENDBRANCH  10  12
ENDBRANCH   9  10
ENDBRANCH   8   9
ENDBRANCH   7   8
ENDBRANCH   6   7
ENDBRANCH   5   6
ENDBRANCH   1   5
BRANCH   2  13
ATOM     13  C   UNL     1       6.449   4.265  17.151  0.00  0.00    +0.000 C 
BRANCH  13  14
ATOM     14  C   UNL     1       7.224   5.495  16.727  0.00  0.00    +0.000 C 
ATOM     15  O   UNL     1       7.671   6.302  17.551  0.00  0.00    +0.000 OA
ATOM     16  N   UNL     1       7.498   5.719  15.407  0.00  0.00    +0.000 N 
ATOM     17  C   UNL     1       7.053   5.003  14.295  0.00  0.00    +0.000 A 
ATOM     18  C   UNL     1       7.724   5.187  13.092  0.00  0.00    +0.000 A 
ATOM     19  C   UNL     1       7.359   4.406  11.996  0.00  0.00    +0.000 A 
ATOM     20  C   UNL     1       6.316   3.496  12.120  0.00  0.00    +0.000 A 
ATOM     21  C   UNL     1       5.671   3.414  13.338  0.00  0.00    +0.000 A 
ATOM     22  N   UNL     1       6.019   4.149  14.416  0.00  0.00    +0.000 NA
ATOM     23  H   UNL     1       8.131   6.491  15.251  0.00  0.00    +0.000 HD
ENDBRANCH  13  14
ENDBRANCH   2  13
TORSDOF 9
ENDMDL
MODEL 3
REMARK VINA RESULT:      -6.9      2.635      7.202
REMARK  Name = 
REMARK  10 active torsions:
REMARK  status: ('A' for Active; 'I' for Inactive)
REMARK    1  A    between atoms: C_1  and  C_2
REMARK    2  A    between atoms: C_2  and  C_3
REMARK    3  A    between atoms: C_3  and  C_4
REMARK    4  A    between atoms: C_4  and  C_5
REMARK    5  A    between atoms: C_5  and  C_6
REMARK    6  A    between atoms: C_6  and  C_7
REMARK    7  A    between atoms: C_7  and  C_8
REMARK    8  A    between atoms: C_8  and  N_9
REMARK    9  A    between atoms: C_10  and  C_12
REMARK   10  A    between atoms: C_12  and  C_13
REMARK                            x       y       z     vdW  Elec       q    Type
REMARK                         _______ _______ _______ _____ _____    ______ ____
ROOT
ATOM      1  N   UNL     1       4.148   4.790  17.147  0.00  0.00    +0.000 N 
ATOM      2  C   UNL     1       5.170   4.256  17.884  0.00  0.00    +0.000 C 
ATOM      3  O   UNL     1       4.999   3.838  19.031  0.00  0.00    +0.000 OA
ATOM      4  H   UNL     1       4.331   5.060  16.181  0.00  0.00    +0.000 HD
ENDROOT
BRANCH   1   5
ATOM      5  C   UNL     1       2.815   4.972  17.679  0.00  0.00    +0.000 C 
BRANCH   5   6
ATOM      6  C   UNL     1       2.597   6.384  18.221  0.00  0.00    +0.000 C 
BRANCH   6   7
ATOM      7  C   UNL     1       2.746   6.451  19.743  0.00  0.00    +0.000 C 
BRANCH   7   8
ATOM      8  C   UNL     1       1.655   5.645  20.445  0.00  0.00    +0.000 C 
BRANCH   8   9
ATOM      9  C   UNL     1       2.247   4.444  21.181  0.00  0.00    +0.000 C 
BRANCH   9  10
ATOM     10  C   UNL     1       1.326   3.229  21.082  0.00  0.00    +0.000 C 
BRANCH  10  12
ATOM     11  C   UNL     1       0.743   2.289  18.824  0.00  0.00    +0.000 C 
ATOM     12  C   UNL     1       1.759   2.294  19.954  0.00  0.00    +0.000 C 
ENDBRANCH  10  12
ENDBRANCH   9  10
ENDBRANCH   8   9
ENDBRANCH   7   8
ENDBRANCH   6   7
ENDBRANCH   5   6
ENDBRANCH   1   5
BRANCH   2  13
ATOM     13  C   UNL     1       6.547   4.244  17.270  0.00  0.00    +0.000 C 
BRANCH  13  14
ATOM     14  C   UNL     1       7.175   5.560  16.862  0.00  0.00    +0.000 C 
ATOM     15  O   UNL     1       7.534   6.400  17.697  0.00  0.00    +0.000 OA
ATOM     16  N   UNL     1       7.412   5.834  15.545  0.00  0.00    +0.000 N 
ATOM     17  C   UNL     1       7.043   5.089  14.424  0.00  0.00    +0.000 A 
ATOM     18  C   UNL     1       7.681   5.366  13.221  0.00  0.00    +0.000 A 
ATOM     19  C   UNL     1       7.399   4.566  12.113  0.00  0.00    +0.000 A 
ATOM     20  C   UNL     1       6.466   3.542  12.228  0.00  0.00    +0.000 A 
ATOM     21  C   UNL     1       5.843   3.369  13.448  0.00  0.00    +0.000 A 
ATOM     22  N   UNL     1       6.114   4.122  14.536  0.00  0.00    +0.000 NA
ATOM     23  H   UNL     1       7.953   6.675  15.398  0.00  0.00    +0.000 HD
ENDBRANCH  13  14
ENDBRANCH   2  13
TORSDOF 9
ENDMDL
MODEL 4
REMARK VINA RESULT:      -6.8      1.364      1.513
REMARK  Name = 
REMARK  10 active torsions:
REMARK  status: ('A' for Active; 'I' for Inactive)
REMARK    1  A    between atoms: C_1  and  C_2
REMARK    2  A    between atoms: C_2  and  C_3
REMARK    3  A    between atoms: C_3  and  C_4
REMARK    4  A    between atoms: C_4  and  C_5
REMARK    5  A    between atoms: C_5  and  C_6
REMARK    6  A    between atoms: C_6  and  C_7
REMARK    7  A    between atoms: C_7  and  C_8
REMARK    8  A    between atoms: C_8  and  N_9
REMARK    9  A    between atoms: C_10  and  C_12
REMARK   10  A    between atoms: C_12  and  C_13
REMARK                            x       y       z     vdW  Elec       q    Type
REMARK                         _______ _______ _______ _____ _____    ______ ____
ROOT
ATOM      1  N   UNL     1       6.087   5.519  16.393  0.00  0.00    +0.000 N 
ATOM      2  C   UNL     1       6.199   5.179  17.714  0.00  0.00    +0.000 C 
ATOM      3  O   UNL     1       7.087   4.428  18.122  0.00  0.00    +0.000 OA
ATOM      4  H   UNL     1       5.373   6.195  16.121  0.00  0.00    +0.000 HD
ENDROOT
BRANCH   1   5
ATOM      5  C   UNL     1       6.951   4.970  15.371  0.00  0.00    +0.000 C 
BRANCH   5   6
ATOM      6  C   UNL     1       6.354   3.723  14.718  0.00  0.00    +0.000 C 
BRANCH   6   7
ATOM      7  C   UNL     1       5.351   4.071  13.615  0.00  0.00    +0.000 C 
BRANCH   7   8
ATOM      8  C   UNL     1       5.896   3.710  12.234  0.00  0.00    +0.000 C 
BRANCH   8   9
ATOM      9  C   UNL     1       5.274   2.412  11.720  0.00  0.00    +0.000 C 
BRANCH   9  10
ATOM     10  C   UNL     1       3.917   2.672  11.068  0.00  0.00    +0.000 C 
BRANCH  10  12
ATOM     11  C   UNL     1       2.861   4.216   9.388  0.00  0.00    +0.000 C 
ATOM     12  C   UNL     1       3.805   4.113  10.574  0.00  0.00    +0.000 C 
ENDBRANCH  10  12
ENDBRANCH   9  10
ENDBRANCH   8   9
ENDBRANCH   7   8
ENDBRANCH   6   7
ENDBRANCH   5   6
ENDBRANCH   1   5
BRANCH   2  13
ATOM     13  C   UNL     1       5.156   5.707  18.666  0.00  0.00    +0.000 C 
BRANCH  13  14
ATOM     14  C   UNL     1       3.917   6.366  18.098  0.00  0.00    +0.000 C 
ATOM     15  O   UNL     1       3.951   7.496  17.595  0.00  0.00    +0.000 OA
ATOM     16  N   UNL     1       2.725   5.699  18.079  0.00  0.00    +0.000 N 
ATOM     17  C   UNL     1       2.417   4.457  18.638  0.00  0.00    +0.000 A 
ATOM     18  C   UNL     1       1.261   3.819  18.205  0.00  0.00    +0.000 A 
ATOM     19  C   UNL     1       0.989   2.535  18.678  0.00  0.00    +0.000 A 
ATOM     20  C   UNL     1       1.854   1.943  19.591  0.00  0.00    +0.000 A 
ATOM     21  C   UNL     1       2.952   2.671  20.005  0.00  0.00    +0.000 A 
ATOM     22  N   UNL     1       3.242   3.908  19.549  0.00  0.00    +0.000 NA
ATOM     23  H   UNL     1       2.003   6.177  17.559  0.00  0.00    +0.000 HD
ENDBRANCH  13  14
ENDBRANCH   2  13
TORSDOF 9
ENDMDL
MODEL 5
REMARK VINA RESULT:      -6.8      1.932      2.287
REMARK  Name = 
REMARK  10 active torsions:
REMARK  status: ('A' for Active; 'I' for Inactive)
REMARK    1  A    between atoms: C_1  and  C_2
REMARK    2  A    between atoms: C_2  and  C_3
REMARK    3  A    between atoms: C_3  and  C_4
REMARK    4  A    between atoms: C_4  and  C_5
REMARK    5  A    between atoms: C_5  and  C_6
REMARK    6  A    between atoms: C_6  and  C_7
REMARK    7  A    between atoms: C_7  and  C_8
REMARK    8  A    between atoms: C_8  and  N_9
REMARK    9  A    between atoms: C_10  and  C_12
REMARK   10  A    between atoms: C_12  and  C_13
REMARK                            x       y       z     vdW  Elec       q    Type
REMARK                         _______ _______ _______ _____ _____    ______ ____
ROOT
ATOM      1  N   UNL     1       7.383   4.745  15.323  0.00  0.00    +0.000 N 
ATOM      2  C   UNL     1       7.028   5.350  16.498  0.00  0.00    +0.000 C 
ATOM      3  O   UNL     1       6.673   6.530  16.544  0.00  0.00    +0.000 OA
ATOM      4  H   UNL     1       7.606   3.750  15.334  0.00  0.00    +0.000 HD
ENDROOT
BRANCH   1   5
ATOM      5  C   UNL     1       7.439   5.457  14.065  0.00  0.00    +0.000 C 
BRANCH   5   6
ATOM      6  C   UNL     1       7.234   4.531  12.867  0.00  0.00    +0.000 C 
BRANCH   6   7
ATOM      7  C   UNL     1       6.238   3.407  13.166  0.00  0.00    +0.000 C 
BRANCH   7   8
ATOM      8  C   UNL     1       4.848   3.739  12.629  0.00  0.00    +0.000 C 
BRANCH   8   9
ATOM      9  C   UNL     1       4.700   3.294  11.174  0.00  0.00    +0.000 C 
BRANCH   9  10
ATOM     10  C   UNL     1       3.231   3.246  10.759  0.00  0.00    +0.000 C 
BRANCH  10  12
ATOM     11  C   UNL     1       2.275   4.939   9.164  0.00  0.00    +0.000 C 
ATOM     12  C   UNL     1       3.054   3.640   9.294  0.00  0.00    +0.000 C 
ENDBRANCH  10  12
ENDBRANCH   9  10
ENDBRANCH   8   9
ENDBRANCH   7   8
ENDBRANCH   6   7
ENDBRANCH   5   6
ENDBRANCH   1   5
BRANCH   2  13
ATOM     13  C   UNL     1       7.141   4.543  17.766  0.00  0.00    +0.000 C 
BRANCH  13  14
ATOM     14  C   UNL     1       6.795   5.204  19.084  0.00  0.00    +0.000 C 
ATOM     15  O   UNL     1       7.666   5.674  19.827  0.00  0.00    +0.000 OA
ATOM     16  N   UNL     1       5.491   5.346  19.465  0.00  0.00    +0.000 N 
ATOM     17  C   UNL     1       4.346   4.848  18.842  0.00  0.00    +0.000 A 
ATOM     18  C   UNL     1       3.121   5.399  19.199  0.00  0.00    +0.000 A 
ATOM     19  C   UNL     1       1.977   4.984  18.516  0.00  0.00    +0.000 A 
ATOM     20  C   UNL     1       2.083   4.012  17.529  0.00  0.00    +0.000 A 
ATOM     21  C   UNL     1       3.333   3.483  17.275  0.00  0.00    +0.000 A 
ATOM     22  N   UNL     1       4.454   3.881  17.913  0.00  0.00    +0.000 NA
ATOM     23  H   UNL     1       5.371   5.917  20.290  0.00  0.00    +0.000 HD
ENDBRANCH  13  14
ENDBRANCH   2  13
TORSDOF 9
ENDMDL
MODEL 6
REMARK VINA RESULT:      -6.8      5.294      8.688
REMARK  Name = 
REMARK  10 active torsions:
REMARK  status: ('A' for Active; 'I' for Inactive)
REMARK    1  A    between atoms: C_1  and  C_2
REMARK    2  A    between atoms: C_2  and  C_3
REMARK    3  A    between atoms: C_3  and  C_4
REMARK    4  A    between atoms: C_4  and  C_5
REMARK    5  A    between atoms: C_5  and  C_6
REMARK    6  A    between atoms: C_6  and  C_7
REMARK    7  A    between atoms: C_7  and  C_8
REMARK    8  A    between atoms: C_8  and  N_9
REMARK    9  A    between atoms: C_10  and  C_12
REMARK   10  A    between atoms: C_12  and  C_13
REMARK                            x       y       z     vdW  Elec       q    Type
REMARK                         _______ _______ _______ _____ _____    ______ ____
ROOT
ATOM      1  N   UNL     1       8.010   8.243  18.550  0.00  0.00    +0.000 N 
ATOM      2  C   UNL     1       7.669   7.183  17.755  0.00  0.00    +0.000 C 
ATOM      3  O   UNL     1       7.766   7.229  16.527  0.00  0.00    +0.000 OA
ATOM      4  H   UNL     1       7.971   8.127  19.563  0.00  0.00    +0.000 HD
ENDROOT
BRANCH   1   5
ATOM      5  C   UNL     1       8.437   9.516  18.012  0.00  0.00    +0.000 C 
BRANCH   5   6
ATOM      6  C   UNL     1       9.269  10.317  19.013  0.00  0.00    +0.000 C 
BRANCH   6   7
ATOM      7  C   UNL     1      10.249  11.269  18.322  0.00  0.00    +0.000 C 
BRANCH   7   8
ATOM      8  C   UNL     1      10.938  12.186  19.330  0.00  0.00    +0.000 C 
BRANCH   8   9
ATOM      9  C   UNL     1      10.430  11.923  20.748  0.00  0.00    +0.000 C 
BRANCH   9  10
ATOM     10  C   UNL     1       9.887  13.201  21.384  0.00  0.00    +0.000 C 
BRANCH  10  12
ATOM     11  C   UNL     1       8.308  11.724  22.667  0.00  0.00    +0.000 C 
ATOM     12  C   UNL     1       8.453  13.012  21.875  0.00  0.00    +0.000 C 
ENDBRANCH  10  12
ENDBRANCH   9  10
ENDBRANCH   8   9
ENDBRANCH   7   8
ENDBRANCH   6   7
ENDBRANCH   5   6
ENDBRANCH   1   5
BRANCH   2  13
ATOM     13  C   UNL     1       7.107   5.955  18.425  0.00  0.00    +0.000 C 
BRANCH  13  14
ATOM     14  C   UNL     1       7.199   4.626  17.705  0.00  0.00    +0.000 C 
ATOM     15  O   UNL     1       8.288   4.104  17.432  0.00  0.00    +0.000 OA
ATOM     16  N   UNL     1       6.066   3.934  17.382  0.00  0.00    +0.000 N 
ATOM     17  C   UNL     1       4.736   4.335  17.520  0.00  0.00    +0.000 A 
ATOM     18  C   UNL     1       3.753   3.355  17.457  0.00  0.00    +0.000 A 
ATOM     19  C   UNL     1       2.427   3.721  17.693  0.00  0.00    +0.000 A 
ATOM     20  C   UNL     1       2.119   5.052  17.947  0.00  0.00    +0.000 A 
ATOM     21  C   UNL     1       3.153   5.967  17.941  0.00  0.00    +0.000 A 
ATOM     22  N   UNL     1       4.444   5.632  17.731  0.00  0.00    +0.000 NA
ATOM     23  H   UNL     1       6.247   3.005  17.028  0.00  0.00    +0.000 HD
ENDBRANCH  13  14
ENDBRANCH   2  13
TORSDOF 9
ENDMDL
MODEL 7
REMARK VINA RESULT:      -6.7      4.753      7.778
REMARK  Name = 
REMARK  10 active torsions:
REMARK  status: ('A' for Active; 'I' for Inactive)
REMARK    1  A    between atoms: C_1  and  C_2
REMARK    2  A    between atoms: C_2  and  C_3
REMARK    3  A    between atoms: C_3  and  C_4
REMARK    4  A    between atoms: C_4  and  C_5
REMARK    5  A    between atoms: C_5  and  C_6
REMARK    6  A    between atoms: C_6  and  C_7
REMARK    7  A    between atoms: C_7  and  C_8
REMARK    8  A    between atoms: C_8  and  N_9
REMARK    9  A    between atoms: C_10  and  C_12
REMARK   10  A    between atoms: C_12  and  C_13
REMARK                            x       y       z     vdW  Elec       q    Type
REMARK                         _______ _______ _______ _____ _____    ______ ____
ROOT
ATOM      1  N   UNL     1       7.006   6.302  18.261  0.00  0.00    +0.000 N 
ATOM      2  C   UNL     1       6.786   5.349  19.218  0.00  0.00    +0.000 C 
ATOM      3  O   UNL     1       7.413   5.331  20.279  0.00  0.00    +0.000 OA
ATOM      4  H   UNL     1       6.413   6.307  17.431  0.00  0.00    +0.000 HD
ENDROOT
BRANCH   1   5
ATOM      5  C   UNL     1       8.035   7.311  18.387  0.00  0.00    +0.000 C 
BRANCH   5   6
ATOM      6  C   UNL     1       7.845   8.458  17.395  0.00  0.00    +0.000 C 
BRANCH   6   7
ATOM      7  C   UNL     1       8.061   9.827  18.045  0.00  0.00    +0.000 C 
BRANCH   7   8
ATOM      8  C   UNL     1       9.243   9.803  19.012  0.00  0.00    +0.000 C 
BRANCH   8   9
ATOM      9  C   UNL     1      10.133  11.031  18.822  0.00  0.00    +0.000 C 
BRANCH   9  10
ATOM     10  C   UNL     1      10.661  11.542  20.162  0.00  0.00    +0.000 C 
BRANCH  10  12
ATOM     11  C   UNL     1      12.256  12.762  18.649  0.00  0.00    +0.000 C 
ATOM     12  C   UNL     1      12.061  12.133  20.019  0.00  0.00    +0.000 C 
ENDBRANCH  10  12
ENDBRANCH   9  10
ENDBRANCH   8   9
ENDBRANCH   7   8
ENDBRANCH   6   7
ENDBRANCH   5   6
ENDBRANCH   1   5
BRANCH   2  13
ATOM     13  C   UNL     1       5.780   4.267  18.914  0.00  0.00    +0.000 C 
BRANCH  13  14
ATOM     14  C   UNL     1       5.049   4.303  17.588  0.00  0.00    +0.000 C 
ATOM     15  O   UNL     1       5.636   4.538  16.524  0.00  0.00    +0.000 OA
ATOM     16  N   UNL     1       3.714   4.020  17.527  0.00  0.00    +0.000 N 
ATOM     17  C   UNL     1       2.826   3.794  18.580  0.00  0.00    +0.000 A 
ATOM     18  C   UNL     1       1.610   3.188  18.286  0.00  0.00    +0.000 A 
ATOM     19  C   UNL     1       0.753   2.863  19.337  0.00  0.00    +0.000 A 
ATOM     20  C   UNL     1       1.115   3.183  20.640  0.00  0.00    +0.000 A 
ATOM     21  C   UNL     1       2.319   3.831  20.836  0.00  0.00    +0.000 A 
ATOM     22  N   UNL     1       3.170   4.140  19.834  0.00  0.00    +0.000 NA
ATOM     23  H   UNL     1       3.360   3.942  16.584  0.00  0.00    +0.000 HD
ENDBRANCH  13  14
ENDBRANCH   2  13
TORSDOF 9
ENDMDL
MODEL 8
REMARK VINA RESULT:      -6.7      1.634      1.776
REMARK  Name = 
REMARK  10 active torsions:
REMARK  status: ('A' for Active; 'I' for Inactive)
REMARK    1  A    between atoms: C_1  and  C_2
REMARK    2  A    between atoms: C_2  and  C_3
REMARK    3  A    between atoms: C_3  and  C_4
REMARK    4  A    between atoms: C_4  and  C_5
REMARK    5  A    between atoms: C_5  and  C_6
REMARK    6  A    between atoms: C_6  and  C_7
REMARK    7  A    between atoms: C_7  and  C_8
REMARK    8  A    between atoms: C_8  and  N_9
REMARK    9  A    between atoms: C_10  and  C_12
REMARK   10  A    between atoms: C_12  and  C_13
REMARK                            x       y       z     vdW  Elec       q    Type
REMARK                         _______ _______ _______ _____ _____    ______ ____
ROOT
ATOM      1  N   UNL     1       6.459   5.304  15.208  0.00  0.00    +0.000 N 
ATOM      2  C   UNL     1       6.679   4.835  16.474  0.00  0.00    +0.000 C 
ATOM      3  O   UNL     1       7.776   4.397  16.827  0.00  0.00    +0.000 OA
ATOM      4  H   UNL     1       5.551   5.715  14.990  0.00  0.00    +0.000 HD
ENDROOT
BRANCH   1   5
ATOM      5  C   UNL     1       7.467   5.255  14.172  0.00  0.00    +0.000 C 
BRANCH   5   6
ATOM      6  C   UNL     1       6.931   4.658  12.871  0.00  0.00    +0.000 C 
BRANCH   6   7
ATOM      7  C   UNL     1       6.220   3.321  13.097  0.00  0.00    +0.000 C 
BRANCH   7   8
ATOM      8  C   UNL     1       5.570   2.813  11.811  0.00  0.00    +0.000 C 
BRANCH   8   9
ATOM      9  C   UNL     1       4.428   3.731  11.374  0.00  0.00    +0.000 C 
BRANCH   9  10
ATOM     10  C   UNL     1       3.243   2.923  10.848  0.00  0.00    +0.000 C 
BRANCH  10  12
ATOM     11  C   UNL     1       2.521   4.780   9.315  0.00  0.00    +0.000 C 
ATOM     12  C   UNL     1       2.899   3.312   9.412  0.00  0.00    +0.000 C 
ENDBRANCH  10  12
ENDBRANCH   9  10
ENDBRANCH   8   9
ENDBRANCH   7   8
ENDBRANCH   6   7
ENDBRANCH   5   6
ENDBRANCH   1   5
BRANCH   2  13
ATOM     13  C   UNL     1       5.512   4.811  17.428  0.00  0.00    +0.000 C 
BRANCH  13  14
ATOM     14  C   UNL     1       4.809   6.113  17.752  0.00  0.00    +0.000 C 
ATOM     15  O   UNL     1       5.143   7.184  17.230  0.00  0.00    +0.000 OA
ATOM     16  N   UNL     1       3.738   6.128  18.601  0.00  0.00    +0.000 N 
ATOM     17  C   UNL     1       3.217   5.078  19.359  0.00  0.00    +0.000 A 
ATOM     18  C   UNL     1       1.934   5.223  19.874  0.00  0.00    +0.000 A 
ATOM     19  C   UNL     1       1.359   4.146  20.548  0.00  0.00    +0.000 A 
ATOM     20  C   UNL     1       2.089   2.975  20.719  0.00  0.00    +0.000 A 
ATOM     21  C   UNL     1       3.375   2.937  20.219  0.00  0.00    +0.000 A 
ATOM     22  N   UNL     1       3.945   3.962  19.550  0.00  0.00    +0.000 NA
ATOM     23  H   UNL     1       3.266   7.020  18.640  0.00  0.00    +0.000 HD
ENDBRANCH  13  14
ENDBRANCH   2  13
TORSDOF 9
ENDMDL
MODEL 9
REMARK VINA RESULT:      -6.7      4.836      7.573
REMARK  Name = 
REMARK  10 active torsions:
REMARK  status: ('A' for Active; 'I' for Inactive)
REMARK    1  A    between atoms: C_1  and  C_2
REMARK    2  A    between atoms: C_2  and  C_3
REMARK    3  A    between atoms: C_3  and  C_4
REMARK    4  A    between atoms: C_4  and  C_5
REMARK    5  A    between atoms: C_5  and  C_6
REMARK    6  A    between atoms: C_6  and  C_7
REMARK    7  A    between atoms: C_7  and  C_8
REMARK    8  A    between atoms: C_8  and  N_9
REMARK    9  A    between atoms: C_10  and  C_12
REMARK   10  A    between atoms: C_12  and  C_13
REMARK                            x       y       z     vdW  Elec       q    Type
REMARK                         _______ _______ _______ _____ _____    ______ ____
ROOT
ATOM      1  N   UNL     1       6.849   6.801  18.068  0.00  0.00    +0.000 N 
ATOM      2  C   UNL     1       6.789   5.474  18.396  0.00  0.00    +0.000 C 
ATOM      3  O   UNL     1       7.804   4.786  18.523  0.00  0.00    +0.000 OA
ATOM      4  H   UNL     1       5.981   7.337  18.039  0.00  0.00    +0.000 HD
ENDROOT
BRANCH   1   5
ATOM      5  C   UNL     1       8.093   7.477  17.775  0.00  0.00    +0.000 C 
BRANCH   5   6
ATOM      6  C   UNL     1       7.961   8.997  17.864  0.00  0.00    +0.000 C 
BRANCH   6   7
ATOM      7  C   UNL     1       8.897   9.600  18.914  0.00  0.00    +0.000 C 
BRANCH   7   8
ATOM      8  C   UNL     1       9.592  10.853  18.384  0.00  0.00    +0.000 C 
BRANCH   8   9
ATOM      9  C   UNL     1      10.653  11.349  19.367  0.00  0.00    +0.000 C 
BRANCH   9  10
ATOM     10  C   UNL     1      11.553  12.400  18.720  0.00  0.00    +0.000 C 
BRANCH  10  12
ATOM     11  C   UNL     1      11.533  13.434  16.428  0.00  0.00    +0.000 C 
ATOM     12  C   UNL     1      10.774  13.269  17.735  0.00  0.00    +0.000 C 
ENDBRANCH  10  12
ENDBRANCH   9  10
ENDBRANCH   8   9
ENDBRANCH   7   8
ENDBRANCH   6   7
ENDBRANCH   5   6
ENDBRANCH   1   5
BRANCH   2  13
ATOM     13  C   UNL     1       5.426   4.846  18.543  0.00  0.00    +0.000 C 
BRANCH  13  14
ATOM     14  C   UNL     1       4.499   4.828  17.346  0.00  0.00    +0.000 C 
ATOM     15  O   UNL     1       4.884   5.150  16.215  0.00  0.00    +0.000 OA
ATOM     16  N   UNL     1       3.209   4.397  17.477  0.00  0.00    +0.000 N 
ATOM     17  C   UNL     1       2.525   4.050  18.643  0.00  0.00    +0.000 A 
ATOM     18  C   UNL     1       1.351   3.316  18.513  0.00  0.00    +0.000 A 
ATOM     19  C   UNL     1       0.707   2.874  19.669  0.00  0.00    +0.000 A 
ATOM     20  C   UNL     1       1.230   3.205  20.914  0.00  0.00    +0.000 A 
ATOM     21  C   UNL     1       2.372   3.980  20.949  0.00  0.00    +0.000 A 
ATOM     22  N   UNL     1       3.019   4.405  19.843  0.00  0.00    +0.000 NA
ATOM     23  H   UNL     1       2.724   4.300  16.596  0.00  0.00    +0.000 HD
ENDBRANCH  13  14
ENDBRANCH   2  13
TORSDOF 9
ENDMDL
