MODEL 1
REMARK VINA RESULT:      -9.4      0.000      0.000
REMARK  Name = 
REMARK  7 active torsions:
REMARK  status: ('A' for Active; 'I' for Inactive)
REMARK    1  A    between atoms: C_1  and  C_2
REMARK    2  A    between atoms: C_2  and  C_3
REMARK    3  A    between atoms: C_7  and  N_8
REMARK    4  A    between atoms: C_9  and  C_11
REMARK    5  A    between atoms: C_11  and  N_12
REMARK    6  A    between atoms: C_18  and  C_19
REMARK    7  A    between atoms: C_21  and  C_22
REMARK                            x       y       z     vdW  Elec       q    Type
REMARK                         _______ _______ _______ _____ _____    ______ ____
ROOT
ATOM      1  N   UNL     1       3.928   4.542  18.491  0.00  0.00    +0.000 N 
ATOM      2  C   UNL     1       3.489   4.005  17.196  0.00  0.00    +0.000 C 
ATOM      3  C   UNL     1       4.654   3.594  16.317  0.00  0.00    +0.000 C 
ATOM      4  N   UNL     1       5.643   4.645  16.368  0.00  0.00    +0.000 N 
ATOM      5  N   UNL     1       6.517   4.823  15.379  0.00  0.00    +0.000 NA
ATOM      6  N   UNL     1       7.291   5.829  15.744  0.00  0.00    +0.000 NA
ATOM      7  C   UNL     1       6.895   6.271  16.996  0.00  0.00    +0.000 A 
ATOM      8  C   UNL     1       5.820   5.510  17.416  0.00  0.00    +0.000 A 
ATOM      9  C   UNL     1       5.012   5.425  18.600  0.00  0.00    +0.000 C 
ATOM     10  O   UNL     1       5.260   6.005  19.651  0.00  0.00    +0.000 OA
ENDROOT
BRANCH   7  11
ATOM     11  C   UNL     1       7.651   7.402  17.607  0.00  0.00    +0.000 A 
ATOM     12  N   UNL     1       7.752   8.666  17.226  0.00  0.00    +0.000 NA
ATOM     13  C   UNL     1       8.554   9.225  18.212  0.00  0.00    +0.000 A 
ATOM     14  N   UNL     1       8.958   8.345  19.142  0.00  0.00    +0.000 NA
ATOM     15  O   UNL     1       8.367   7.163  18.754  0.00  0.00    +0.000 OA
BRANCH  13  16
ATOM     16  C   UNL     1       8.943  10.636  18.294  0.00  0.00    +0.000 A 
ATOM     17  C   UNL     1      10.027  11.060  19.071  0.00  0.00    +0.000 A 
ATOM     18  C   UNL     1      10.377  12.417  19.117  0.00  0.00    +0.000 A 
ATOM     19  C   UNL     1       9.653  13.362  18.388  0.00  0.00    +0.000 A 
ATOM     20  C   UNL     1       8.570  12.957  17.616  0.00  0.00    +0.000 A 
ATOM     21  C   UNL     1       8.219  11.606  17.571  0.00  0.00    +0.000 A 
ENDBRANCH  13  16
ENDBRANCH   7  11
BRANCH   1  22
ATOM     22  C   UNL     1       3.205   4.123  19.689  0.00  0.00    +0.000 C 
BRANCH  22  24
ATOM     23  N   UNL     1       2.563   6.483  19.698  0.00  0.00    +0.000 N 
ATOM     24  C   UNL     1       2.169   5.200  20.044  0.00  0.00    +0.000 C 
ATOM     25  O   UNL     1       1.149   4.892  20.659  0.00  0.00    +0.000 OA
ATOM     26  H   UNL     1       3.443   6.575  19.200  0.00  0.00    +0.000 HD
BRANCH  23  31
ATOM     27  C   UNL     1       0.723   9.074  21.617  0.00  0.00    +0.000 A 
ATOM     28  C   UNL     1       0.462  10.029  20.631  0.00  0.00    +0.000 A 
ATOM     29  C   UNL     1       0.897   9.819  19.325  0.00  0.00    +0.000 A 
ATOM     30  C   UNL     1       1.600   8.657  18.993  0.00  0.00    +0.000 A 
ATOM     31  C   UNL     1       1.875   7.689  19.961  0.00  0.00    +0.000 A 
ATOM     32  C   UNL     1       1.427   7.906  21.272  0.00  0.00    +0.000 A 
BRANCH  27  34
ATOM     33  C   UNL     1      -0.929  10.290  23.035  0.00  0.00    +0.000 C 
ATOM     34  C   UNL     1       0.195   9.264  23.016  0.00  0.00    +0.000 C 
ENDBRANCH  27  34
ENDBRANCH  23  31
ENDBRANCH  22  24
ENDBRANCH   1  22
TORSDOF 6
ENDMDL
MODEL 2
REMARK VINA RESULT:      -9.2      0.540      1.421
REMARK  Name = 
REMARK  7 active torsions:
REMARK  status: ('A' for Active; 'I' for Inactive)
REMARK    1  A    between atoms: C_1  and  C_2
REMARK    2  A    between atoms: C_2  and  C_3
REMARK    3  A    between atoms: C_7  and  N_8
REMARK    4  A    between atoms: C_9  and  C_11
REMARK    5  A    between atoms: C_11  and  N_12
REMARK    6  A    between atoms: C_18  and  C_19
REMARK    7  A    between atoms: C_21  and  C_22
REMARK                            x       y       z     vdW  Elec       q    Type
REMARK                         _______ _______ _______ _____ _____    ______ ____
ROOT
ATOM      1  N   UNL     1       3.962   4.450  18.531  0.00  0.00    +0.000 N 
ATOM      2  C   UNL     1       3.521   3.895  17.244  0.00  0.00    +0.000 C 
ATOM      3  C   UNL     1       4.686   3.491  16.360  0.00  0.00    +0.000 C 
ATOM      4  N   UNL     1       5.660   4.556  16.394  0.00  0.00    +0.000 N 
ATOM      5  N   UNL     1       6.524   4.738  15.397  0.00  0.00    +0.000 NA
ATOM      6  N   UNL     1       7.286   5.758  15.746  0.00  0.00    +0.000 NA
ATOM      7  C   UNL     1       6.893   6.206  16.997  0.00  0.00    +0.000 A 
ATOM      8  C   UNL     1       5.832   5.434  17.432  0.00  0.00    +0.000 A 
ATOM      9  C   UNL     1       5.034   5.349  18.623  0.00  0.00    +0.000 C 
ATOM     10  O   UNL     1       5.281   5.943  19.667  0.00  0.00    +0.000 OA
ENDROOT
BRANCH   7  11
ATOM     11  C   UNL     1       7.637   7.354  17.591  0.00  0.00    +0.000 A 
ATOM     12  N   UNL     1       7.781   8.595  17.155  0.00  0.00    +0.000 NA
ATOM     13  C   UNL     1       8.542   9.189  18.155  0.00  0.00    +0.000 A 
ATOM     14  N   UNL     1       8.880   8.349  19.146  0.00  0.00    +0.000 NA
ATOM     15  O   UNL     1       8.289   7.160  18.785  0.00  0.00    +0.000 OA
BRANCH  13  16
ATOM     16  C   UNL     1       8.952  10.596  18.188  0.00  0.00    +0.000 A 
ATOM     17  C   UNL     1      10.170  10.997  18.749  0.00  0.00    +0.000 A 
ATOM     18  C   UNL     1      10.535  12.351  18.754  0.00  0.00    +0.000 A 
ATOM     19  C   UNL     1       9.692  13.316  18.199  0.00  0.00    +0.000 A 
ATOM     20  C   UNL     1       8.476  12.934  17.644  0.00  0.00    +0.000 A 
ATOM     21  C   UNL     1       8.110  11.585  17.641  0.00  0.00    +0.000 A 
ENDBRANCH  13  16
ENDBRANCH   7  11
BRANCH   1  22
ATOM     22  C   UNL     1       3.253   4.032  19.738  0.00  0.00    +0.000 C 
BRANCH  22  24
ATOM     23  N   UNL     1       2.490   6.334  20.054  0.00  0.00    +0.000 N 
ATOM     24  C   UNL     1       2.095   5.007  19.994  0.00  0.00    +0.000 C 
ATOM     25  O   UNL     1       0.964   4.574  20.208  0.00  0.00    +0.000 OA
ATOM     26  H   UNL     1       3.468   6.532  19.862  0.00  0.00    +0.000 HD
BRANCH  23  31
ATOM     27  C   UNL     1       0.853   9.637  19.620  0.00  0.00    +0.000 A 
ATOM     28  C   UNL     1       0.143   9.764  20.817  0.00  0.00    +0.000 A 
ATOM     29  C   UNL     1       0.202   8.754  21.773  0.00  0.00    +0.000 A 
ATOM     30  C   UNL     1       0.966   7.606  21.541  0.00  0.00    +0.000 A 
ATOM     31  C   UNL     1       1.683   7.455  20.352  0.00  0.00    +0.000 A 
ATOM     32  C   UNL     1       1.623   8.481  19.398  0.00  0.00    +0.000 A 
BRANCH  27  34
ATOM     33  C   UNL     1      -0.181  11.816  18.985  0.00  0.00    +0.000 C 
ATOM     34  C   UNL     1       0.848  10.759  18.612  0.00  0.00    +0.000 C 
ENDBRANCH  27  34
ENDBRANCH  23  31
ENDBRANCH  22  24
ENDBRANCH   1  22
TORSDOF 6
ENDMDL
MODEL 3
REMARK VINA RESULT:      -9.0      4.011      8.394
REMARK  Name = 
REMARK  7 active torsions:
REMARK  status: ('A' for Active; 'I' for Inactive)
REMARK    1  A    between atoms: C_1  and  C_2
REMARK    2  A    between atoms: C_2  and  C_3
REMARK    3  A    between atoms: C_7  and  N_8
REMARK    4  A    between atoms: C_9  and  C_11
REMARK    5  A    between atoms: C_11  and  N_12
REMARK    6  A    between atoms: C_18  and  C_19
REMARK    7  A    between atoms: C_21  and  C_22
REMARK                            x       y       z     vdW  Elec       q    Type
REMARK                         _______ _______ _______ _____ _____    ______ ____
ROOT
ATOM      1  N   UNL     1       5.350   4.453  19.040  0.00  0.00    +0.000 N 
ATOM      2  C   UNL     1       5.178   3.150  19.695  0.00  0.00    +0.000 C 
ATOM      3  C   UNL     1       3.751   2.642  19.605  0.00  0.00    +0.000 C 
ATOM      4  N   UNL     1       2.868   3.737  19.927  0.00  0.00    +0.000 N 
ATOM      5  N   UNL     1       1.642   3.523  20.401  0.00  0.00    +0.000 NA
ATOM      6  N   UNL     1       1.090   4.712  20.560  0.00  0.00    +0.000 NA
ATOM      7  C   UNL     1       1.993   5.683  20.158  0.00  0.00    +0.000 A 
ATOM      8  C   UNL     1       3.158   5.064  19.744  0.00  0.00    +0.000 A 
ATOM      9  C   UNL     1       4.410   5.484  19.181  0.00  0.00    +0.000 C 
ATOM     10  O   UNL     1       4.644   6.620  18.782  0.00  0.00    +0.000 OA
ENDROOT
BRANCH   7  11
ATOM     11  C   UNL     1       1.566   7.110  20.242  0.00  0.00    +0.000 A 
ATOM     12  N   UNL     1       0.879   7.741  21.182  0.00  0.00    +0.000 NA
ATOM     13  C   UNL     1       0.836   9.047  20.711  0.00  0.00    +0.000 A 
ATOM     14  N   UNL     1       1.439   9.212  19.523  0.00  0.00    +0.000 NA
ATOM     15  O   UNL     1       1.918   7.957  19.221  0.00  0.00    +0.000 OA
BRANCH  13  16
ATOM     16  C   UNL     1       0.222  10.182  21.407  0.00  0.00    +0.000 A 
ATOM     17  C   UNL     1      -0.639  10.003  22.495  0.00  0.00    +0.000 A 
ATOM     18  C   UNL     1      -1.200  11.113  23.144  0.00  0.00    +0.000 A 
ATOM     19  C   UNL     1      -0.906  12.408  22.716  0.00  0.00    +0.000 A 
ATOM     20  C   UNL     1      -0.057  12.602  21.632  0.00  0.00    +0.000 A 
ATOM     21  C   UNL     1       0.501  11.498  20.984  0.00  0.00    +0.000 A 
ENDBRANCH  13  16
ENDBRANCH   7  11
BRANCH   1  22
ATOM     22  C   UNL     1       6.539   4.656  18.216  0.00  0.00    +0.000 C 
BRANCH  22  24
ATOM     23  N   UNL     1       7.203   4.686  15.863  0.00  0.00    +0.000 N 
ATOM     24  C   UNL     1       6.167   4.421  16.745  0.00  0.00    +0.000 C 
ATOM     25  O   UNL     1       5.014   4.117  16.444  0.00  0.00    +0.000 OA
ATOM     26  H   UNL     1       8.099   4.938  16.269  0.00  0.00    +0.000 HD
BRANCH  23  31
ATOM     27  C   UNL     1       6.189   3.599  12.461  0.00  0.00    +0.000 A 
ATOM     28  C   UNL     1       6.977   4.422  11.651  0.00  0.00    +0.000 A 
ATOM     29  C   UNL     1       7.847   5.342  12.230  0.00  0.00    +0.000 A 
ATOM     30  C   UNL     1       7.935   5.454  13.621  0.00  0.00    +0.000 A 
ATOM     31  C   UNL     1       7.156   4.645  14.451  0.00  0.00    +0.000 A 
ATOM     32  C   UNL     1       6.288   3.716  13.860  0.00  0.00    +0.000 A 
BRANCH  27  34
ATOM     33  C   UNL     1       4.088   3.198  11.180  0.00  0.00    +0.000 C 
ATOM     34  C   UNL     1       5.297   2.554  11.841  0.00  0.00    +0.000 C 
ENDBRANCH  27  34
ENDBRANCH  23  31
ENDBRANCH  22  24
ENDBRANCH   1  22
TORSDOF 6
ENDMDL
MODEL 4
REMARK VINA RESULT:      -8.8      3.819      8.740
REMARK  Name = 
REMARK  7 active torsions:
REMARK  status: ('A' for Active; 'I' for Inactive)
REMARK    1  A    between atoms: C_1  and  C_2
REMARK    2  A    between atoms: C_2  and  C_3
REMARK    3  A    between atoms: C_7  and  N_8
REMARK    4  A    between atoms: C_9  and  C_11
REMARK    5  A    between atoms: C_11  and  N_12
REMARK    6  A    between atoms: C_18  and  C_19
REMARK    7  A    between atoms: C_21  and  C_22
REMARK                            x       y       z     vdW  Elec       q    Type
REMARK                         _______ _______ _______ _____ _____    ______ ____
ROOT
ATOM      1  N   UNL     1       5.453   5.484  17.669  0.00  0.00    +0.000 N 
ATOM      2  C   UNL     1       5.914   4.371  18.510  0.00  0.00    +0.000 C 
ATOM      3  C   UNL     1       4.763   3.586  19.111  0.00  0.00    +0.000 C 
ATOM      4  N   UNL     1       3.800   4.531  19.624  0.00  0.00    +0.000 N 
ATOM      5  N   UNL     1       2.958   4.202  20.601  0.00  0.00    +0.000 NA
ATOM      6  N   UNL     1       2.200   5.262  20.813  0.00  0.00    +0.000 NA
ATOM      7  C   UNL     1       2.572   6.264  19.932  0.00  0.00    +0.000 A 
ATOM      8  C   UNL     1       3.616   5.805  19.151  0.00  0.00    +0.000 A 
ATOM      9  C   UNL     1       4.390   6.313  18.053  0.00  0.00    +0.000 C 
ATOM     10  O   UNL     1       4.127   7.341  17.438  0.00  0.00    +0.000 OA
ENDROOT
BRANCH   7  11
ATOM     11  C   UNL     1       1.828   7.556  19.991  0.00  0.00    +0.000 A 
ATOM     12  N   UNL     1       1.101   8.078  20.966  0.00  0.00    +0.000 NA
ATOM     13  C   UNL     1       0.707   9.301  20.439  0.00  0.00    +0.000 A 
ATOM     14  N   UNL     1       1.141   9.514  19.187  0.00  0.00    +0.000 NA
ATOM     15  O   UNL     1       1.874   8.384  18.897  0.00  0.00    +0.000 OA
BRANCH  13  16
ATOM     16  C   UNL     1      -0.091  10.311  21.139  0.00  0.00    +0.000 A 
ATOM     17  C   UNL     1      -0.477  11.506  20.522  0.00  0.00    +0.000 A 
ATOM     18  C   UNL     1      -1.251  12.446  21.219  0.00  0.00    +0.000 A 
ATOM     19  C   UNL     1      -1.647  12.203  22.535  0.00  0.00    +0.000 A 
ATOM     20  C   UNL     1      -1.266  11.023  23.165  0.00  0.00    +0.000 A 
ATOM     21  C   UNL     1      -0.494  10.087  22.472  0.00  0.00    +0.000 A 
ENDBRANCH  13  16
ENDBRANCH   7  11
BRANCH   1  22
ATOM     22  C   UNL     1       6.133   5.710  16.396  0.00  0.00    +0.000 C 
BRANCH  22  24
ATOM     23  N   UNL     1       6.418   4.598  14.237  0.00  0.00    +0.000 N 
ATOM     24  C   UNL     1       5.635   4.675  15.378  0.00  0.00    +0.000 C 
ATOM     25  O   UNL     1       4.582   4.072  15.581  0.00  0.00    +0.000 OA
ATOM     26  H   UNL     1       7.257   5.171  14.216  0.00  0.00    +0.000 HD
BRANCH  23  31
ATOM     27  C   UNL     1       4.575   3.083  11.394  0.00  0.00    +0.000 A 
ATOM     28  C   UNL     1       5.553   2.265  10.822  0.00  0.00    +0.000 A 
ATOM     29  C   UNL     1       6.830   2.214  11.375  0.00  0.00    +0.000 A 
ATOM     30  C   UNL     1       7.143   2.982  12.501  0.00  0.00    +0.000 A 
ATOM     31  C   UNL     1       6.183   3.808  13.089  0.00  0.00    +0.000 A 
ATOM     32  C   UNL     1       4.898   3.848  12.529  0.00  0.00    +0.000 A 
BRANCH  27  34
ATOM     33  C   UNL     1       3.074   3.998   9.624  0.00  0.00    +0.000 C 
ATOM     34  C   UNL     1       3.172   3.089  10.840  0.00  0.00    +0.000 C 
ENDBRANCH  27  34
ENDBRANCH  23  31
ENDBRANCH  22  24
ENDBRANCH   1  22
TORSDOF 6
ENDMDL
MODEL 5
REMARK VINA RESULT:      -8.7      4.049      8.765
REMARK  Name = 
REMARK  7 active torsions:
REMARK  status: ('A' for Active; 'I' for Inactive)
REMARK    1  A    between atoms: C_1  and  C_2
REMARK    2  A    between atoms: C_2  and  C_3
REMARK    3  A    between atoms: C_7  and  N_8
REMARK    4  A    between atoms: C_9  and  C_11
REMARK    5  A    between atoms: C_11  and  N_12
REMARK    6  A    between atoms: C_18  and  C_19
REMARK    7  A    between atoms: C_21  and  C_22
REMARK                            x       y       z     vdW  Elec       q    Type
REMARK                         _______ _______ _______ _____ _____    ______ ____
ROOT
ATOM      1  N   UNL     1       6.131   5.508  17.179  0.00  0.00    +0.000 N 
ATOM      2  C   UNL     1       6.549   4.701  18.333  0.00  0.00    +0.000 C 
ATOM      3  C   UNL     1       5.377   4.033  19.026  0.00  0.00    +0.000 C 
ATOM      4  N   UNL     1       4.328   5.014  19.170  0.00  0.00    +0.000 N 
ATOM      5  N   UNL     1       3.405   4.907  20.124  0.00  0.00    +0.000 NA
ATOM      6  N   UNL     1       2.585   5.930  19.965  0.00  0.00    +0.000 NA
ATOM      7  C   UNL     1       3.004   6.677  18.876  0.00  0.00    +0.000 A 
ATOM      8  C   UNL     1       4.140   6.095  18.347  0.00  0.00    +0.000 A 
ATOM      9  C   UNL     1       5.000   6.335  17.223  0.00  0.00    +0.000 C 
ATOM     10  O   UNL     1       4.759   7.136  16.326  0.00  0.00    +0.000 OA
ENDROOT
BRANCH   7  11
ATOM     11  C   UNL     1       2.204   7.882  18.509  0.00  0.00    +0.000 A 
ATOM     12  N   UNL     1       0.995   8.256  18.898  0.00  0.00    +0.000 NA
ATOM     13  C   UNL     1       0.822   9.471  18.248  0.00  0.00    +0.000 A 
ATOM     14  N   UNL     1       1.858   9.819  17.469  0.00  0.00    +0.000 NA
ATOM     15  O   UNL     1       2.758   8.792  17.642  0.00  0.00    +0.000 OA
BRANCH  13  16
ATOM     16  C   UNL     1      -0.350  10.342  18.374  0.00  0.00    +0.000 A 
ATOM     17  C   UNL     1      -1.512  10.131  17.624  0.00  0.00    +0.000 A 
ATOM     18  C   UNL     1      -2.619  10.979  17.779  0.00  0.00    +0.000 A 
ATOM     19  C   UNL     1      -2.578  12.042  18.683  0.00  0.00    +0.000 A 
ATOM     20  C   UNL     1      -1.428  12.269  19.431  0.00  0.00    +0.000 A 
ATOM     21  C   UNL     1      -0.324  11.426  19.276  0.00  0.00    +0.000 A 
ENDBRANCH  13  16
ENDBRANCH   7  11
BRANCH   1  22
ATOM     22  C   UNL     1       6.927   5.424  15.957  0.00  0.00    +0.000 C 
BRANCH  22  24
ATOM     23  N   UNL     1       6.618   4.433  13.743  0.00  0.00    +0.000 N 
ATOM     24  C   UNL     1       6.400   4.264  15.101  0.00  0.00    +0.000 C 
ATOM     25  O   UNL     1       5.772   3.347  15.629  0.00  0.00    +0.000 OA
ATOM     26  H   UNL     1       7.148   5.252  13.462  0.00  0.00    +0.000 HD
BRANCH  23  31
ATOM     27  C   UNL     1       4.373   2.984  11.167  0.00  0.00    +0.000 A 
ATOM     28  C   UNL     1       5.170   1.968  10.631  0.00  0.00    +0.000 A 
ATOM     29  C   UNL     1       6.456   1.761  11.121  0.00  0.00    +0.000 A 
ATOM     30  C   UNL     1       6.961   2.568  12.145  0.00  0.00    +0.000 A 
ATOM     31  C   UNL     1       6.185   3.590  12.695  0.00  0.00    +0.000 A 
ATOM     32  C   UNL     1       4.888   3.786  12.201  0.00  0.00    +0.000 A 
BRANCH  27  34
ATOM     33  C   UNL     1       2.901   4.127   9.510  0.00  0.00    +0.000 C 
ATOM     34  C   UNL     1       2.955   3.167  10.689  0.00  0.00    +0.000 C 
ENDBRANCH  27  34
ENDBRANCH  23  31
ENDBRANCH  22  24
ENDBRANCH   1  22
TORSDOF 6
ENDMDL
MODEL 6
REMARK VINA RESULT:      -8.7      4.224      8.288
REMARK  Name = 
REMARK  7 active torsions:
REMARK  status: ('A' for Active; 'I' for Inactive)
REMARK    1  A    between atoms: C_1  and  C_2
REMARK    2  A    between atoms: C_2  and  C_3
REMARK    3  A    between atoms: C_7  and  N_8
REMARK    4  A    between atoms: C_9  and  C_11
REMARK    5  A    between atoms: C_11  and  N_12
REMARK    6  A    between atoms: C_18  and  C_19
REMARK    7  A    between atoms: C_21  and  C_22
REMARK                            x       y       z     vdW  Elec       q    Type
REMARK                         _______ _______ _______ _____ _____    ______ ____
ROOT
ATOM      1  N   UNL     1      -0.758  11.846  19.530  0.00  0.00    +0.000 N 
ATOM      2  C   UNL     1      -1.483  12.158  20.769  0.00  0.00    +0.000 C 
ATOM      3  C   UNL     1      -0.633  11.936  22.006  0.00  0.00    +0.000 C 
ATOM      4  N   UNL     1       0.042  10.669  21.861  0.00  0.00    +0.000 N 
ATOM      5  N   UNL     1       0.453   9.976  22.921  0.00  0.00    +0.000 NA
ATOM      6  N   UNL     1       1.052   8.897  22.452  0.00  0.00    +0.000 NA
ATOM      7  C   UNL     1       1.024   8.933  21.068  0.00  0.00    +0.000 A 
ATOM      8  C   UNL     1       0.367  10.081  20.666  0.00  0.00    +0.000 A 
ATOM      9  C   UNL     1       0.062  10.715  19.414  0.00  0.00    +0.000 C 
ATOM     10  O   UNL     1       0.518  10.366  18.331  0.00  0.00    +0.000 OA
ENDROOT
BRANCH   7  11
ATOM     11  C   UNL     1       1.663   7.806  20.328  0.00  0.00    +0.000 A 
ATOM     12  N   UNL     1       2.368   7.811  19.208  0.00  0.00    +0.000 NA
ATOM     13  C   UNL     1       2.717   6.475  19.055  0.00  0.00    +0.000 A 
ATOM     14  N   UNL     1       2.227   5.676  20.015  0.00  0.00    +0.000 NA
ATOM     15  O   UNL     1       1.548   6.539  20.846  0.00  0.00    +0.000 OA
BRANCH  13  16
ATOM     16  C   UNL     1       3.553   5.933  17.980  0.00  0.00    +0.000 A 
ATOM     17  C   UNL     1       4.347   6.756  17.175  0.00  0.00    +0.000 A 
ATOM     18  C   UNL     1       5.143   6.201  16.161  0.00  0.00    +0.000 A 
ATOM     19  C   UNL     1       5.155   4.823  15.943  0.00  0.00    +0.000 A 
ATOM     20  C   UNL     1       4.366   3.992  16.731  0.00  0.00    +0.000 A 
ATOM     21  C   UNL     1       3.572   4.544  17.739  0.00  0.00    +0.000 A 
ENDBRANCH  13  16
ENDBRANCH   7  11
BRANCH   1  22
ATOM     22  C   UNL     1      -0.905  12.761  18.400  0.00  0.00    +0.000 C 
BRANCH  22  24
ATOM     23  N   UNL     1       1.434  13.464  18.530  0.00  0.00    +0.000 N 
ATOM     24  C   UNL     1       0.117  13.897  18.547  0.00  0.00    +0.000 C 
ATOM     25  O   UNL     1      -0.268  15.047  18.751  0.00  0.00    +0.000 OA
ATOM     26  H   UNL     1       1.590  12.475  18.360  0.00  0.00    +0.000 HD
BRANCH  23  31
ATOM     27  C   UNL     1       4.363  14.949  20.260  0.00  0.00    +0.000 A 
ATOM     28  C   UNL     1       4.896  15.774  19.265  0.00  0.00    +0.000 A 
ATOM     29  C   UNL     1       4.287  15.839  18.015  0.00  0.00    +0.000 A 
ATOM     30  C   UNL     1       3.144  15.079  17.744  0.00  0.00    +0.000 A 
ATOM     31  C   UNL     1       2.595  14.247  18.722  0.00  0.00    +0.000 A 
ATOM     32  C   UNL     1       3.210  14.193  19.980  0.00  0.00    +0.000 A 
BRANCH  27  34
ATOM     33  C   UNL     1       6.459  14.590  21.563  0.00  0.00    +0.000 C 
ATOM     34  C   UNL     1       4.977  14.928  21.637  0.00  0.00    +0.000 C 
ENDBRANCH  27  34
ENDBRANCH  23  31
ENDBRANCH  22  24
ENDBRANCH   1  22
TORSDOF 6
ENDMDL
MODEL 7
REMARK VINA RESULT:      -8.6      3.909      8.537
REMARK  Name = 
REMARK  7 active torsions:
REMARK  status: ('A' for Active; 'I' for Inactive)
REMARK    1  A    between atoms: C_1  and  C_2
REMARK    2  A    between atoms: C_2  and  C_3
REMARK    3  A    between atoms: C_7  and  N_8
REMARK    4  A    between atoms: C_9  and  C_11
REMARK    5  A    between atoms: C_11  and  N_12
REMARK    6  A    between atoms: C_18  and  C_19
REMARK    7  A    between atoms: C_21  and  C_22
REMARK                            x       y       z     vdW  Elec       q    Type
REMARK                         _______ _______ _______ _____ _____    ______ ____
ROOT
ATOM      1  N   UNL     1       5.897   5.472  17.314  0.00  0.00    +0.000 N 
ATOM      2  C   UNL     1       6.273   4.509  18.358  0.00  0.00    +0.000 C 
ATOM      3  C   UNL     1       5.069   3.802  18.951  0.00  0.00    +0.000 C 
ATOM      4  N   UNL     1       4.055   4.796  19.212  0.00  0.00    +0.000 N 
ATOM      5  N   UNL     1       3.117   4.602  20.138  0.00  0.00    +0.000 NA
ATOM      6  N   UNL     1       2.337   5.667  20.107  0.00  0.00    +0.000 NA
ATOM      7  C   UNL     1       2.795   6.531  19.125  0.00  0.00    +0.000 A 
ATOM      8  C   UNL     1       3.916   5.979  18.534  0.00  0.00    +0.000 A 
ATOM      9  C   UNL     1       4.797   6.329  17.456  0.00  0.00    +0.000 C 
ATOM     10  O   UNL     1       4.596   7.247  16.667  0.00  0.00    +0.000 OA
ENDROOT
BRANCH   7  11
ATOM     11  C   UNL     1       2.044   7.802  18.910  0.00  0.00    +0.000 A 
ATOM     12  N   UNL     1       1.485   8.622  19.786  0.00  0.00    +0.000 NA
ATOM     13  C   UNL     1       0.979   9.636  18.983  0.00  0.00    +0.000 A 
ATOM     14  N   UNL     1       1.186   9.440  17.671  0.00  0.00    +0.000 NA
ATOM     15  O   UNL     1       1.883   8.253  17.623  0.00  0.00    +0.000 OA
BRANCH  13  16
ATOM     16  C   UNL     1       0.291  10.838  19.464  0.00  0.00    +0.000 A 
ATOM     17  C   UNL     1       0.424  12.072  18.820  0.00  0.00    +0.000 A 
ATOM     18  C   UNL     1      -0.258  13.200  19.301  0.00  0.00    +0.000 A 
ATOM     19  C   UNL     1      -1.079  13.106  20.426  0.00  0.00    +0.000 A 
ATOM     20  C   UNL     1      -1.216  11.887  21.082  0.00  0.00    +0.000 A 
ATOM     21  C   UNL     1      -0.536  10.764  20.604  0.00  0.00    +0.000 A 
ENDBRANCH  13  16
ENDBRANCH   7  11
BRANCH   1  22
ATOM     22  C   UNL     1       6.704   5.516  16.097  0.00  0.00    +0.000 C 
BRANCH  22  24
ATOM     23  N   UNL     1       6.419   4.562  13.864  0.00  0.00    +0.000 N 
ATOM     24  C   UNL     1       6.349   4.304  15.223  0.00  0.00    +0.000 C 
ATOM     25  O   UNL     1       5.958   3.263  15.748  0.00  0.00    +0.000 OA
ATOM     26  H   UNL     1       6.753   5.480  13.586  0.00  0.00    +0.000 HD
BRANCH  23  31
ATOM     27  C   UNL     1       4.391   3.008  11.170  0.00  0.00    +0.000 A 
ATOM     28  C   UNL     1       5.244   1.997  10.717  0.00  0.00    +0.000 A 
ATOM     29  C   UNL     1       6.496   1.828  11.301  0.00  0.00    +0.000 A 
ATOM     30  C   UNL     1       6.911   2.668  12.339  0.00  0.00    +0.000 A 
ATOM     31  C   UNL     1       6.078   3.686  12.808  0.00  0.00    +0.000 A 
ATOM     32  C   UNL     1       4.816   3.845  12.218  0.00  0.00    +0.000 A 
BRANCH  27  34
ATOM     33  C   UNL     1       2.958   4.295   9.586  0.00  0.00    +0.000 C 
ATOM     34  C   UNL     1       3.008   3.151  10.589  0.00  0.00    +0.000 C 
ENDBRANCH  27  34
ENDBRANCH  23  31
ENDBRANCH  22  24
ENDBRANCH   1  22
TORSDOF 6
ENDMDL
MODEL 8
REMARK VINA RESULT:      -8.6      4.118      8.459
REMARK  Name = 
REMARK  7 active torsions:
REMARK  status: ('A' for Active; 'I' for Inactive)
REMARK    1  A    between atoms: C_1  and  C_2
REMARK    2  A    between atoms: C_2  and  C_3
REMARK    3  A    between atoms: C_7  and  N_8
REMARK    4  A    between atoms: C_9  and  C_11
REMARK    5  A    between atoms: C_11  and  N_12
REMARK    6  A    between atoms: C_18  and  C_19
REMARK    7  A    between atoms: C_21  and  C_22
REMARK                            x       y       z     vdW  Elec       q    Type
REMARK                         _______ _______ _______ _____ _____    ______ ____
ROOT
ATOM      1  N   UNL     1      -0.764  11.886  19.604  0.00  0.00    +0.000 N 
ATOM      2  C   UNL     1      -1.482  12.194  20.848  0.00  0.00    +0.000 C 
ATOM      3  C   UNL     1      -0.628  11.964  22.080  0.00  0.00    +0.000 C 
ATOM      4  N   UNL     1       0.042  10.695  21.926  0.00  0.00    +0.000 N 
ATOM      5  N   UNL     1       0.456   9.997  22.981  0.00  0.00    +0.000 NA
ATOM      6  N   UNL     1       1.049   8.917  22.504  0.00  0.00    +0.000 NA
ATOM      7  C   UNL     1       1.015   8.960  21.120  0.00  0.00    +0.000 A 
ATOM      8  C   UNL     1       0.361  10.112  20.726  0.00  0.00    +0.000 A 
ATOM      9  C   UNL     1       0.052  10.753  19.479  0.00  0.00    +0.000 C 
ATOM     10  O   UNL     1       0.503  10.407  18.392  0.00  0.00    +0.000 OA
ENDROOT
BRANCH   7  11
ATOM     11  C   UNL     1       1.648   7.835  20.373  0.00  0.00    +0.000 A 
ATOM     12  N   UNL     1       2.351   7.843  19.251  0.00  0.00    +0.000 NA
ATOM     13  C   UNL     1       2.693   6.506  19.089  0.00  0.00    +0.000 A 
ATOM     14  N   UNL     1       2.200   5.703  20.046  0.00  0.00    +0.000 NA
ATOM     15  O   UNL     1       1.527   6.565  20.883  0.00  0.00    +0.000 OA
BRANCH  13  16
ATOM     16  C   UNL     1       3.523   5.966  18.009  0.00  0.00    +0.000 A 
ATOM     17  C   UNL     1       4.346   6.786  17.229  0.00  0.00    +0.000 A 
ATOM     18  C   UNL     1       5.136   6.233  16.210  0.00  0.00    +0.000 A 
ATOM     19  C   UNL     1       5.115   4.860  15.962  0.00  0.00    +0.000 A 
ATOM     20  C   UNL     1       4.298   4.032  16.725  0.00  0.00    +0.000 A 
ATOM     21  C   UNL     1       3.509   4.582  17.738  0.00  0.00    +0.000 A 
ENDBRANCH  13  16
ENDBRANCH   7  11
BRANCH   1  22
ATOM     22  C   UNL     1      -0.912  12.806  18.479  0.00  0.00    +0.000 C 
BRANCH  22  24
ATOM     23  N   UNL     1       1.385  13.510  18.937  0.00  0.00    +0.000 N 
ATOM     24  C   UNL     1       0.105  13.946  18.634  0.00  0.00    +0.000 C 
ATOM     25  O   UNL     1      -0.270  15.116  18.574  0.00  0.00    +0.000 OA
ATOM     26  H   UNL     1       1.534  12.505  18.960  0.00  0.00    +0.000 HD
BRANCH  23  31
ATOM     27  C   UNL     1       4.810  14.902  18.605  0.00  0.00    +0.000 A 
ATOM     28  C   UNL     1       4.857  15.803  19.673  0.00  0.00    +0.000 A 
ATOM     29  C   UNL     1       3.752  15.954  20.506  0.00  0.00    +0.000 A 
ATOM     30  C   UNL     1       2.589  15.212  20.279  0.00  0.00    +0.000 A 
ATOM     31  C   UNL     1       2.517  14.307  19.218  0.00  0.00    +0.000 A 
ATOM     32  C   UNL     1       3.637  14.156  18.388  0.00  0.00    +0.000 A 
BRANCH  27  34
ATOM     33  C   UNL     1       7.302  14.843  18.556  0.00  0.00    +0.000 C 
ATOM     34  C   UNL     1       6.027  14.684  17.742  0.00  0.00    +0.000 C 
ENDBRANCH  27  34
ENDBRANCH  23  31
ENDBRANCH  22  24
ENDBRANCH   1  22
TORSDOF 6
ENDMDL
MODEL 9
REMARK VINA RESULT:      -8.6      4.314      5.934
REMARK  Name = 
REMARK  7 active torsions:
REMARK  status: ('A' for Active; 'I' for Inactive)
REMARK    1  A    between atoms: C_1  and  C_2
REMARK    2  A    between atoms: C_2  and  C_3
REMARK    3  A    between atoms: C_7  and  N_8
REMARK    4  A    between atoms: C_9  and  C_11
REMARK    5  A    between atoms: C_11  and  N_12
REMARK    6  A    between atoms: C_18  and  C_19
REMARK    7  A    between atoms: C_21  and  C_22
REMARK                            x       y       z     vdW  Elec       q    Type
REMARK                         _______ _______ _______ _____ _____    ______ ____
ROOT
ATOM      1  N   UNL     1       2.027   6.196  20.418  0.00  0.00    +0.000 N 
ATOM      2  C   UNL     1       0.880   5.322  20.701  0.00  0.00    +0.000 C 
ATOM      3  C   UNL     1       1.289   3.872  20.876  0.00  0.00    +0.000 C 
ATOM      4  N   UNL     1       2.211   3.538  19.816  0.00  0.00    +0.000 N 
ATOM      5  N   UNL     1       2.369   2.281  19.405  0.00  0.00    +0.000 NA
ATOM      6  N   UNL     1       3.291   2.312  18.460  0.00  0.00    +0.000 NA
ATOM      7  C   UNL     1       3.725   3.618  18.298  0.00  0.00    +0.000 A 
ATOM      8  C   UNL     1       3.029   4.430  19.173  0.00  0.00    +0.000 A 
ATOM      9  C   UNL     1       3.044   5.821  19.529  0.00  0.00    +0.000 C 
ATOM     10  O   UNL     1       3.898   6.621  19.163  0.00  0.00    +0.000 OA
ENDROOT
BRANCH   7  11
ATOM     11  C   UNL     1       4.785   3.878  17.281  0.00  0.00    +0.000 A 
ATOM     12  N   UNL     1       4.751   3.763  15.963  0.00  0.00    +0.000 NA
ATOM     13  C   UNL     1       6.019   4.182  15.581  0.00  0.00    +0.000 A 
ATOM     14  N   UNL     1       6.812   4.510  16.613  0.00  0.00    +0.000 NA
ATOM     15  O   UNL     1       6.011   4.319  17.717  0.00  0.00    +0.000 OA
BRANCH  13  16
ATOM     16  C   UNL     1       6.498   4.293  14.201  0.00  0.00    +0.000 A 
ATOM     17  C   UNL     1       5.988   3.489  13.175  0.00  0.00    +0.000 A 
ATOM     18  C   UNL     1       6.462   3.630  11.862  0.00  0.00    +0.000 A 
ATOM     19  C   UNL     1       7.445   4.573  11.560  0.00  0.00    +0.000 A 
ATOM     20  C   UNL     1       7.966   5.375  12.569  0.00  0.00    +0.000 A 
ATOM     21  C   UNL     1       7.496   5.234  13.878  0.00  0.00    +0.000 A 
ENDBRANCH  13  16
ENDBRANCH   7  11
BRANCH   1  22
ATOM     22  C   UNL     1       2.091   7.486  21.100  0.00  0.00    +0.000 C 
BRANCH  22  24
ATOM     23  N   UNL     1       1.083   9.128  19.596  0.00  0.00    +0.000 N 
ATOM     24  C   UNL     1       0.866   8.320  20.700  0.00  0.00    +0.000 C 
ATOM     25  O   UNL     1      -0.149   8.292  21.394  0.00  0.00    +0.000 OA
ATOM     26  H   UNL     1       1.983   9.044  19.133  0.00  0.00    +0.000 HD
BRANCH  23  31
ATOM     27  C   UNL     1      -1.682  10.451  17.502  0.00  0.00    +0.000 A 
ATOM     28  C   UNL     1      -1.642  11.816  17.803  0.00  0.00    +0.000 A 
ATOM     29  C   UNL     1      -0.699  12.303  18.704  0.00  0.00    +0.000 A 
ATOM     30  C   UNL     1       0.209  11.433  19.316  0.00  0.00    +0.000 A 
ATOM     31  C   UNL     1       0.187  10.066  19.032  0.00  0.00    +0.000 A 
ATOM     32  C   UNL     1      -0.761   9.585  18.119  0.00  0.00    +0.000 A 
BRANCH  27  34
ATOM     33  C   UNL     1      -3.706  10.979  16.143  0.00  0.00    +0.000 C 
ATOM     34  C   UNL     1      -2.655   9.930  16.475  0.00  0.00    +0.000 C 
ENDBRANCH  27  34
ENDBRANCH  23  31
ENDBRANCH  22  24
ENDBRANCH   1  22
TORSDOF 6
ENDMDL
