MODEL 1
REMARK VINA RESULT:      -7.3      0.000      0.000
REMARK  Name = 
REMARK  11 active torsions:
REMARK  status: ('A' for Active; 'I' for Inactive)
REMARK    1  A    between atoms: C_1  and  C_2
REMARK    2  A    between atoms: C_2  and  S_3
REMARK    3  A    between atoms: S_3  and  N_6
REMARK    4  A    between atoms: N_6  and  C_7
REMARK    5  A    between atoms: C_12  and  C_13
REMARK    6  A    between atoms: C_13  and  O_14
REMARK    7  A    between atoms: C_13  and  C_15
REMARK    8  A    between atoms: C_17  and  O_18
REMARK    9  A    between atoms: O_18  and  C_19
REMARK   10  A    between atoms: C_21  and  O_22
REMARK   11  A    between atoms: O_22  and  C_23
REMARK                            x       y       z     vdW  Elec       q    Type
REMARK                         _______ _______ _______ _____ _____    ______ ____
ROOT
ATOM      1  C   UNL     1       6.441   4.218  16.665  0.00  0.00    +0.000 A 
ATOM      2  C   UNL     1       7.464   4.654  15.811  0.00  0.00    +0.000 A 
ATOM      3  C   UNL     1       7.213   4.898  14.460  0.00  0.00    +0.000 A 
ATOM      4  C   UNL     1       5.942   4.683  13.943  0.00  0.00    +0.000 A 
ATOM      5  C   UNL     1       4.928   4.214  14.779  0.00  0.00    +0.000 A 
ATOM      6  C   UNL     1       5.153   3.974  16.154  0.00  0.00    +0.000 A 
ENDROOT
BRANCH   1   7
ATOM      7  N   UNL     1       6.780   4.058  18.054  0.00  0.00    +0.000 N 
ATOM      8  H   UNL     1       7.559   3.420  18.220  0.00  0.00    +0.000 HD
BRANCH   7   9
ATOM      9  S   UNL     1       6.997   5.476  18.966  0.00  0.00    +0.000 S 
ATOM     10  O   UNL     1       8.344   5.537  19.481  0.00  0.00    +0.000 OA
ATOM     11  O   UNL     1       5.835   5.583  19.819  0.00  0.00    +0.000 OA
BRANCH   9  13
ATOM     12  C   UNL     1       7.857   7.816  17.821  0.00  0.00    +0.000 C 
ATOM     13  C   UNL     1       6.830   6.707  17.676  0.00  0.00    +0.000 C 
ENDBRANCH   9  13
ENDBRANCH   7   9
ENDBRANCH   1   7
BRANCH   6  14
ATOM     14  C   UNL     1       3.977   3.532  17.002  0.00  0.00    +0.000 C 
BRANCH  14  15
ATOM     15  C   UNL     1       3.326   4.632  17.840  0.00  0.00    +0.000 A 
ATOM     16  N   UNL     1       2.799   4.291  19.025  0.00  0.00    +0.000 NA
ATOM     17  C   UNL     1       2.374   5.295  19.809  0.00  0.00    +0.000 A 
ATOM     18  C   UNL     1       2.436   6.618  19.457  0.00  0.00    +0.000 A 
ATOM     19  C   UNL     1       2.998   6.862  18.229  0.00  0.00    +0.000 A 
ATOM     20  N   UNL     1       3.463   5.904  17.405  0.00  0.00    +0.000 NA
BRANCH  17  21
ATOM     21  O   UNL     1       1.874   5.011  21.065  0.00  0.00    +0.000 OA
ATOM     22  C   UNL     1       2.123   3.664  21.466  0.00  0.00    +0.000 C 
ENDBRANCH  17  21
BRANCH  19  23
ATOM     23  O   UNL     1       3.106   8.190  17.862  0.00  0.00    +0.000 OA
ATOM     24  C   UNL     1       1.874   8.901  17.952  0.00  0.00    +0.000 C 
ENDBRANCH  19  23
ENDBRANCH  14  15
BRANCH  14  25
ATOM     25  O   UNL     1       4.454   2.466  17.852  0.00  0.00    +0.000 OA
ATOM     26  H   UNL     1       4.313   2.792  18.762  0.00  0.00    +0.000 HD
ENDBRANCH  14  25
ENDBRANCH   6  14
TORSDOF 8
ENDMDL
MODEL 2
REMARK VINA RESULT:      -7.2      2.702      4.562
REMARK  Name = 
REMARK  11 active torsions:
REMARK  status: ('A' for Active; 'I' for Inactive)
REMARK    1  A    between atoms: C_1  and  C_2
REMARK    2  A    between atoms: C_2  and  S_3
REMARK    3  A    between atoms: S_3  and  N_6
REMARK    4  A    between atoms: N_6  and  C_7
REMARK    5  A    between atoms: C_12  and  C_13
REMARK    6  A    between atoms: C_13  and  O_14
REMARK    7  A    between atoms: C_13  and  C_15
REMARK    8  A    between atoms: C_17  and  O_18
REMARK    9  A    between atoms: O_18  and  C_19
REMARK   10  A    between atoms: C_21  and  O_22
REMARK   11  A    between atoms: O_22  and  C_23
REMARK                            x       y       z     vdW  Elec       q    Type
REMARK                         _______ _______ _______ _____ _____    ______ ____
ROOT
ATOM      1  C   UNL     1       5.052   5.341  18.921  0.00  0.00    +0.000 A 
ATOM      2  C   UNL     1       6.428   5.176  19.132  0.00  0.00    +0.000 A 
ATOM      3  C   UNL     1       7.359   5.883  18.371  0.00  0.00    +0.000 A 
ATOM      4  C   UNL     1       6.924   6.744  17.372  0.00  0.00    +0.000 A 
ATOM      5  C   UNL     1       5.557   6.886  17.131  0.00  0.00    +0.000 A 
ATOM      6  C   UNL     1       4.594   6.192  17.899  0.00  0.00    +0.000 A 
ENDROOT
BRANCH   1   7
ATOM      7  N   UNL     1       4.170   4.620  19.800  0.00  0.00    +0.000 N 
ATOM      8  H   UNL     1       3.236   5.026  19.876  0.00  0.00    +0.000 HD
BRANCH   7   9
ATOM      9  S   UNL     1       4.047   2.941  19.566  0.00  0.00    +0.000 S 
ATOM     10  O   UNL     1       5.014   2.251  20.387  0.00  0.00    +0.000 OA
ATOM     11  O   UNL     1       3.962   2.743  18.137  0.00  0.00    +0.000 OA
BRANCH   9  13
ATOM     12  C   UNL     1       2.085   3.635  21.352  0.00  0.00    +0.000 C 
ATOM     13  C   UNL     1       2.417   2.649  20.247  0.00  0.00    +0.000 C 
ENDBRANCH   9  13
ENDBRANCH   7   9
ENDBRANCH   1   7
BRANCH   6  14
ATOM     14  C   UNL     1       3.129   6.459  17.614  0.00  0.00    +0.000 C 
BRANCH  14  15
ATOM     15  C   UNL     1       2.490   7.559  18.460  0.00  0.00    +0.000 A 
ATOM     16  N   UNL     1       2.071   8.670  17.836  0.00  0.00    +0.000 NA
ATOM     17  C   UNL     1       1.375   9.551  18.572  0.00  0.00    +0.000 A 
ATOM     18  C   UNL     1       1.093   9.383  19.902  0.00  0.00    +0.000 A 
ATOM     19  C   UNL     1       1.558   8.212  20.446  0.00  0.00    +0.000 A 
ATOM     20  N   UNL     1       2.244   7.277  19.759  0.00  0.00    +0.000 NA
BRANCH  17  21
ATOM     21  O   UNL     1       0.868  10.687  17.970  0.00  0.00    +0.000 OA
ATOM     22  C   UNL     1       0.222  11.561  18.895  0.00  0.00    +0.000 C 
ENDBRANCH  17  21
BRANCH  19  23
ATOM     23  O   UNL     1       1.260   7.998  21.778  0.00  0.00    +0.000 OA
ATOM     24  C   UNL     1       0.725   9.148  22.427  0.00  0.00    +0.000 C 
ENDBRANCH  19  23
ENDBRANCH  14  15
BRANCH  14  25
ATOM     25  O   UNL     1       2.434   5.207  17.805  0.00  0.00    +0.000 OA
ATOM     26  H   UNL     1       2.829   4.823  18.611  0.00  0.00    +0.000 HD
ENDBRANCH  14  25
ENDBRANCH   6  14
TORSDOF 8
ENDMDL
MODEL 3
REMARK VINA RESULT:      -7.2      1.893      5.598
REMARK  Name = 
REMARK  11 active torsions:
REMARK  status: ('A' for Active; 'I' for Inactive)
REMARK    1  A    between atoms: C_1  and  C_2
REMARK    2  A    between atoms: C_2  and  S_3
REMARK    3  A    between atoms: S_3  and  N_6
REMARK    4  A    between atoms: N_6  and  C_7
REMARK    5  A    between atoms: C_12  and  C_13
REMARK    6  A    between atoms: C_13  and  O_14
REMARK    7  A    between atoms: C_13  and  C_15
REMARK    8  A    between atoms: C_17  and  O_18
REMARK    9  A    between atoms: O_18  and  C_19
REMARK   10  A    between atoms: C_21  and  O_22
REMARK   11  A    between atoms: O_22  and  C_23
REMARK                            x       y       z     vdW  Elec       q    Type
REMARK                         _______ _______ _______ _____ _____    ______ ____
ROOT
ATOM      1  C   UNL     1       2.186   4.432  19.254  0.00  0.00    +0.000 A 
ATOM      2  C   UNL     1       1.668   4.684  20.533  0.00  0.00    +0.000 A 
ATOM      3  C   UNL     1       1.811   3.750  21.559  0.00  0.00    +0.000 A 
ATOM      4  C   UNL     1       2.451   2.543  21.311  0.00  0.00    +0.000 A 
ATOM      5  C   UNL     1       2.937   2.270  20.032  0.00  0.00    +0.000 A 
ATOM      6  C   UNL     1       2.818   3.206  18.979  0.00  0.00    +0.000 A 
ENDROOT
BRANCH   1   7
ATOM      7  N   UNL     1       2.047   5.483  18.280  0.00  0.00    +0.000 N 
ATOM      8  H   UNL     1       1.099   5.853  18.202  0.00  0.00    +0.000 HD
BRANCH   7   9
ATOM      9  S   UNL     1       3.159   6.766  18.363  0.00  0.00    +0.000 S 
ATOM     10  O   UNL     1       3.680   7.059  17.049  0.00  0.00    +0.000 OA
ATOM     11  O   UNL     1       4.016   6.479  19.491  0.00  0.00    +0.000 OA
BRANCH   9  13
ATOM     12  C   UNL     1       1.957   9.158  17.764  0.00  0.00    +0.000 C 
ATOM     13  C   UNL     1       2.064   8.098  18.846  0.00  0.00    +0.000 C 
ENDBRANCH   9  13
ENDBRANCH   7   9
ENDBRANCH   1   7
BRANCH   6  14
ATOM     14  C   UNL     1       3.434   2.854  17.640  0.00  0.00    +0.000 C 
BRANCH  14  15
ATOM     15  C   UNL     1       4.789   3.503  17.355  0.00  0.00    +0.000 A 
ATOM     16  N   UNL     1       5.096   3.783  16.080  0.00  0.00    +0.000 NA
ATOM     17  C   UNL     1       6.217   4.491  15.870  0.00  0.00    +0.000 A 
ATOM     18  C   UNL     1       7.051   4.917  16.870  0.00  0.00    +0.000 A 
ATOM     19  C   UNL     1       6.645   4.586  18.139  0.00  0.00    +0.000 A 
ATOM     20  N   UNL     1       5.522   3.897  18.419  0.00  0.00    +0.000 NA
BRANCH  17  21
ATOM     21  O   UNL     1       6.556   4.860  14.582  0.00  0.00    +0.000 OA
ATOM     22  C   UNL     1       6.156   3.896  13.609  0.00  0.00    +0.000 C 
ENDBRANCH  17  21
BRANCH  19  23
ATOM     23  O   UNL     1       7.449   5.031  19.171  0.00  0.00    +0.000 OA
ATOM     24  C   UNL     1       7.975   6.336  18.953  0.00  0.00    +0.000 C 
ENDBRANCH  19  23
ENDBRANCH  14  15
BRANCH  14  25
ATOM     25  O   UNL     1       2.473   3.227  16.628  0.00  0.00    +0.000 OA
ATOM     26  H   UNL     1       2.430   2.457  16.030  0.00  0.00    +0.000 HD
ENDBRANCH  14  25
ENDBRANCH   6  14
TORSDOF 8
ENDMDL
MODEL 4
REMARK VINA RESULT:      -7.2      2.373      3.461
REMARK  Name = 
REMARK  11 active torsions:
REMARK  status: ('A' for Active; 'I' for Inactive)
REMARK    1  A    between atoms: C_1  and  C_2
REMARK    2  A    between atoms: C_2  and  S_3
REMARK    3  A    between atoms: S_3  and  N_6
REMARK    4  A    between atoms: N_6  and  C_7
REMARK    5  A    between atoms: C_12  and  C_13
REMARK    6  A    between atoms: C_13  and  O_14
REMARK    7  A    between atoms: C_13  and  C_15
REMARK    8  A    between atoms: C_17  and  O_18
REMARK    9  A    between atoms: O_18  and  C_19
REMARK   10  A    between atoms: C_21  and  O_22
REMARK   11  A    between atoms: O_22  and  C_23
REMARK                            x       y       z     vdW  Elec       q    Type
REMARK                         _______ _______ _______ _____ _____    ______ ____
ROOT
ATOM      1  C   UNL     1       6.519   4.489  17.115  0.00  0.00    +0.000 A 
ATOM      2  C   UNL     1       7.837   4.592  17.583  0.00  0.00    +0.000 A 
ATOM      3  C   UNL     1       8.109   5.112  18.849  0.00  0.00    +0.000 A 
ATOM      4  C   UNL     1       7.067   5.561  19.650  0.00  0.00    +0.000 A 
ATOM      5  C   UNL     1       5.756   5.496  19.176  0.00  0.00    +0.000 A 
ATOM      6  C   UNL     1       5.454   4.959  17.904  0.00  0.00    +0.000 A 
ENDROOT
BRANCH   1   7
ATOM      7  N   UNL     1       6.335   3.878  15.826  0.00  0.00    +0.000 N 
ATOM      8  H   UNL     1       5.493   3.305  15.755  0.00  0.00    +0.000 HD
BRANCH   7   9
ATOM      9  S   UNL     1       6.454   4.891  14.465  0.00  0.00    +0.000 S 
ATOM     10  O   UNL     1       7.836   5.215  14.204  0.00  0.00    +0.000 OA
ATOM     11  O   UNL     1       5.439   5.906  14.634  0.00  0.00    +0.000 OA
BRANCH   9  13
ATOM     12  C   UNL     1       6.886   3.660  12.053  0.00  0.00    +0.000 C 
ATOM     13  C   UNL     1       5.886   3.770  13.190  0.00  0.00    +0.000 C 
ENDBRANCH   9  13
ENDBRANCH   7   9
ENDBRANCH   1   7
BRANCH   6  14
ATOM     14  C   UNL     1       3.996   4.864  17.499  0.00  0.00    +0.000 C 
BRANCH  14  15
ATOM     15  C   UNL     1       2.991   5.220  18.594  0.00  0.00    +0.000 A 
ATOM     16  N   UNL     1       2.438   4.217  19.290  0.00  0.00    +0.000 NA
ATOM     17  C   UNL     1       1.680   4.558  20.345  0.00  0.00    +0.000 A 
ATOM     18  C   UNL     1       1.437   5.852  20.725  0.00  0.00    +0.000 A 
ATOM     19  C   UNL     1       2.053   6.804  19.952  0.00  0.00    +0.000 A 
ATOM     20  N   UNL     1       2.841   6.529  18.895  0.00  0.00    +0.000 NA
BRANCH  17  21
ATOM     21  O   UNL     1       1.131   3.567  21.136  0.00  0.00    +0.000 OA
ATOM     22  C   UNL     1       2.117   2.714  21.717  0.00  0.00    +0.000 C 
ENDBRANCH  17  21
BRANCH  19  23
ATOM     23  O   UNL     1       1.853   8.119  20.331  0.00  0.00    +0.000 OA
ATOM     24  C   UNL     1       0.815   8.275  21.294  0.00  0.00    +0.000 C 
ENDBRANCH  19  23
ENDBRANCH  14  15
BRANCH  14  25
ATOM     25  O   UNL     1       3.780   3.514  17.035  0.00  0.00    +0.000 OA
ATOM     26  H   UNL     1       3.110   3.146  17.644  0.00  0.00    +0.000 HD
ENDBRANCH  14  25
ENDBRANCH   6  14
TORSDOF 8
ENDMDL
MODEL 5
REMARK VINA RESULT:      -7.1      2.725      4.005
REMARK  Name = 
REMARK  11 active torsions:
REMARK  status: ('A' for Active; 'I' for Inactive)
REMARK    1  A    between atoms: C_1  and  C_2
REMARK    2  A    between atoms: C_2  and  S_3
REMARK    3  A    between atoms: S_3  and  N_6
REMARK    4  A    between atoms: N_6  and  C_7
REMARK    5  A    between atoms: C_12  and  C_13
REMARK    6  A    between atoms: C_13  and  O_14
REMARK    7  A    between atoms: C_13  and  C_15
REMARK    8  A    between atoms: C_17  and  O_18
REMARK    9  A    between atoms: O_18  and  C_19
REMARK   10  A    between atoms: C_21  and  O_22
REMARK   11  A    between atoms: O_22  and  C_23
REMARK                            x       y       z     vdW  Elec       q    Type
REMARK                         _______ _______ _______ _____ _____    ______ ____
ROOT
ATOM      1  C   UNL     1       5.132   5.321  18.964  0.00  0.00    +0.000 A 
ATOM      2  C   UNL     1       6.481   5.208  19.330  0.00  0.00    +0.000 A 
ATOM      3  C   UNL     1       7.466   5.937  18.664  0.00  0.00    +0.000 A 
ATOM      4  C   UNL     1       7.117   6.768  17.607  0.00  0.00    +0.000 A 
ATOM      5  C   UNL     1       5.781   6.857  17.214  0.00  0.00    +0.000 A 
ATOM      6  C   UNL     1       4.762   6.141  17.882  0.00  0.00    +0.000 A 
ENDROOT
BRANCH   1   7
ATOM      7  N   UNL     1       4.182   4.582  19.752  0.00  0.00    +0.000 N 
ATOM      8  H   UNL     1       3.240   4.976  19.745  0.00  0.00    +0.000 HD
BRANCH   7   9
ATOM      9  S   UNL     1       4.101   2.904  19.493  0.00  0.00    +0.000 S 
ATOM     10  O   UNL     1       5.037   2.221  20.354  0.00  0.00    +0.000 OA
ATOM     11  O   UNL     1       4.092   2.721  18.060  0.00  0.00    +0.000 OA
BRANCH   9  13
ATOM     12  C   UNL     1       2.307   2.880  21.568  0.00  0.00    +0.000 C 
ATOM     13  C   UNL     1       2.444   2.575  20.087  0.00  0.00    +0.000 C 
ENDBRANCH   9  13
ENDBRANCH   7   9
ENDBRANCH   1   7
BRANCH   6  14
ATOM     14  C   UNL     1       3.330   6.351  17.431  0.00  0.00    +0.000 C 
BRANCH  14  15
ATOM     15  C   UNL     1       2.552   7.414  18.207  0.00  0.00    +0.000 A 
ATOM     16  N   UNL     1       2.200   7.138  19.471  0.00  0.00    +0.000 NA
ATOM     17  C   UNL     1       1.656   8.141  20.180  0.00  0.00    +0.000 A 
ATOM     18  C   UNL     1       1.434   9.397  19.680  0.00  0.00    +0.000 A 
ATOM     19  C   UNL     1       1.835   9.580  18.380  0.00  0.00    +0.000 A 
ATOM     20  N   UNL     1       2.405   8.623  17.622  0.00  0.00    +0.000 NA
BRANCH  17  21
ATOM     21  O   UNL     1       1.326   7.934  21.505  0.00  0.00    +0.000 OA
ATOM     22  C   UNL     1       0.842   9.114  22.144  0.00  0.00    +0.000 C 
ENDBRANCH  17  21
BRANCH  19  23
ATOM     23  O   UNL     1       1.655  10.847  17.859  0.00  0.00    +0.000 OA
ATOM     24  C   UNL     1       1.246  11.803  18.833  0.00  0.00    +0.000 C 
ENDBRANCH  19  23
ENDBRANCH  14  15
BRANCH  14  25
ATOM     25  O   UNL     1       2.670   5.070  17.530  0.00  0.00    +0.000 OA
ATOM     26  H   UNL     1       1.780   5.275  17.876  0.00  0.00    +0.000 HD
ENDBRANCH  14  25
ENDBRANCH   6  14
TORSDOF 8
ENDMDL
MODEL 6
REMARK VINA RESULT:      -7.1      0.196      2.441
REMARK  Name = 
REMARK  11 active torsions:
REMARK  status: ('A' for Active; 'I' for Inactive)
REMARK    1  A    between atoms: C_1  and  C_2
REMARK    2  A    between atoms: C_2  and  S_3
REMARK    3  A    between atoms: S_3  and  N_6
REMARK    4  A    between atoms: N_6  and  C_7
REMARK    5  A    between atoms: C_12  and  C_13
REMARK    6  A    between atoms: C_13  and  O_14
REMARK    7  A    between atoms: C_13  and  C_15
REMARK    8  A    between atoms: C_17  and  O_18
REMARK    9  A    between atoms: O_18  and  C_19
REMARK   10  A    between atoms: C_21  and  O_22
REMARK   11  A    between atoms: O_22  and  C_23
REMARK                            x       y       z     vdW  Elec       q    Type
REMARK                         _______ _______ _______ _____ _____    ______ ____
ROOT
ATOM      1  C   UNL     1       6.422   4.235  16.653  0.00  0.00    +0.000 A 
ATOM      2  C   UNL     1       7.477   4.612  15.810  0.00  0.00    +0.000 A 
ATOM      3  C   UNL     1       7.254   4.869  14.457  0.00  0.00    +0.000 A 
ATOM      4  C   UNL     1       5.979   4.724  13.926  0.00  0.00    +0.000 A 
ATOM      5  C   UNL     1       4.932   4.313  14.751  0.00  0.00    +0.000 A 
ATOM      6  C   UNL     1       5.128   4.062  16.129  0.00  0.00    +0.000 A 
ENDROOT
BRANCH   1   7
ATOM      7  N   UNL     1       6.737   4.057  18.046  0.00  0.00    +0.000 N 
ATOM      8  H   UNL     1       7.476   3.375  18.221  0.00  0.00    +0.000 HD
BRANCH   7   9
ATOM      9  S   UNL     1       7.027   5.461  18.959  0.00  0.00    +0.000 S 
ATOM     10  O   UNL     1       8.391   5.477  19.430  0.00  0.00    +0.000 OA
ATOM     11  O   UNL     1       5.898   5.596  19.851  0.00  0.00    +0.000 OA
BRANCH   9  13
ATOM     12  C   UNL     1       7.893   7.803  17.825  0.00  0.00    +0.000 C 
ATOM     13  C   UNL     1       6.854   6.706  17.683  0.00  0.00    +0.000 C 
ENDBRANCH   9  13
ENDBRANCH   7   9
ENDBRANCH   1   7
BRANCH   6  14
ATOM     14  C   UNL     1       3.921   3.686  16.964  0.00  0.00    +0.000 C 
BRANCH  14  15
ATOM     15  C   UNL     1       3.438   4.764  17.935  0.00  0.00    +0.000 A 
ATOM     16  N   UNL     1       3.468   6.040  17.524  0.00  0.00    +0.000 NA
ATOM     17  C   UNL     1       2.896   6.948  18.331  0.00  0.00    +0.000 A 
ATOM     18  C   UNL     1       2.312   6.644  19.533  0.00  0.00    +0.000 A 
ATOM     19  C   UNL     1       2.328   5.311  19.859  0.00  0.00    +0.000 A 
ATOM     20  N   UNL     1       2.865   4.347  19.086  0.00  0.00    +0.000 NA
BRANCH  17  21
ATOM     21  O   UNL     1       2.844   8.271  17.935  0.00  0.00    +0.000 OA
ATOM     22  C   UNL     1       1.675   8.942  18.401  0.00  0.00    +0.000 C 
ENDBRANCH  17  21
BRANCH  19  23
ATOM     23  O   UNL     1       1.717   4.968  21.051  0.00  0.00    +0.000 OA
ATOM     24  C   UNL     1       1.635   3.561  21.257  0.00  0.00    +0.000 C 
ENDBRANCH  19  23
ENDBRANCH  14  15
BRANCH  14  25
ATOM     25  O   UNL     1       4.269   2.481  17.680  0.00  0.00    +0.000 OA
ATOM     26  H   UNL     1       3.732   1.780  17.263  0.00  0.00    +0.000 HD
ENDBRANCH  14  25
ENDBRANCH   6  14
TORSDOF 8
ENDMDL
MODEL 7
REMARK VINA RESULT:      -7.1      2.288      3.547
REMARK  Name = 
REMARK  11 active torsions:
REMARK  status: ('A' for Active; 'I' for Inactive)
REMARK    1  A    between atoms: C_1  and  C_2
REMARK    2  A    between atoms: C_2  and  S_3
REMARK    3  A    between atoms: S_3  and  N_6
REMARK    4  A    between atoms: N_6  and  C_7
REMARK    5  A    between atoms: C_12  and  C_13
REMARK    6  A    between atoms: C_13  and  O_14
REMARK    7  A    between atoms: C_13  and  C_15
REMARK    8  A    between atoms: C_17  and  O_18
REMARK    9  A    between atoms: O_18  and  C_19
REMARK   10  A    between atoms: C_21  and  O_22
REMARK   11  A    between atoms: O_22  and  C_23
REMARK                            x       y       z     vdW  Elec       q    Type
REMARK                         _______ _______ _______ _____ _____    ______ ____
ROOT
ATOM      1  C   UNL     1       6.422   5.945  16.978  0.00  0.00    +0.000 A 
ATOM      2  C   UNL     1       7.600   6.594  17.378  0.00  0.00    +0.000 A 
ATOM      3  C   UNL     1       8.030   6.544  18.704  0.00  0.00    +0.000 A 
ATOM      4  C   UNL     1       7.272   5.867  19.651  0.00  0.00    +0.000 A 
ATOM      5  C   UNL     1       6.081   5.251  19.269  0.00  0.00    +0.000 A 
ATOM      6  C   UNL     1       5.631   5.274  17.929  0.00  0.00    +0.000 A 
ENDROOT
BRANCH   1   7
ATOM      7  N   UNL     1       6.096   5.997  15.578  0.00  0.00    +0.000 N 
ATOM      8  H   UNL     1       6.251   6.910  15.149  0.00  0.00    +0.000 HD
BRANCH   7   9
ATOM      9  S   UNL     1       6.749   4.780  14.586  0.00  0.00    +0.000 S 
ATOM     10  O   UNL     1       7.007   3.590  15.361  0.00  0.00    +0.000 OA
ATOM     11  O   UNL     1       7.769   5.421  13.788  0.00  0.00    +0.000 OA
BRANCH   9  13
ATOM     12  C   UNL     1       5.685   3.452  12.435  0.00  0.00    +0.000 C 
ATOM     13  C   UNL     1       5.349   4.465  13.515  0.00  0.00    +0.000 C 
ENDBRANCH   9  13
ENDBRANCH   7   9
ENDBRANCH   1   7
BRANCH   6  14
ATOM     14  C   UNL     1       4.361   4.520  17.590  0.00  0.00    +0.000 C 
BRANCH  14  15
ATOM     15  C   UNL     1       3.202   4.723  18.567  0.00  0.00    +0.000 A 
ATOM     16  N   UNL     1       2.588   3.633  19.049  0.00  0.00    +0.000 NA
ATOM     17  C   UNL     1       1.681   3.830  20.020  0.00  0.00    +0.000 A 
ATOM     18  C   UNL     1       1.349   5.063  20.517  0.00  0.00    +0.000 A 
ATOM     19  C   UNL     1       2.038   6.112  19.962  0.00  0.00    +0.000 A 
ATOM     20  N   UNL     1       2.973   5.982  19.002  0.00  0.00    +0.000 NA
BRANCH  17  21
ATOM     21  O   UNL     1       1.058   2.740  20.597  0.00  0.00    +0.000 OA
ATOM     22  C   UNL     1       1.555   2.447  21.902  0.00  0.00    +0.000 C 
ENDBRANCH  17  21
BRANCH  19  23
ATOM     23  O   UNL     1       1.748   7.366  20.467  0.00  0.00    +0.000 OA
ATOM     24  C   UNL     1       1.785   8.392  19.481  0.00  0.00    +0.000 C 
ENDBRANCH  19  23
ENDBRANCH  14  15
BRANCH  14  25
ATOM     25  O   UNL     1       4.715   3.122  17.511  0.00  0.00    +0.000 OA
ATOM     26  H   UNL     1       4.353   2.727  18.328  0.00  0.00    +0.000 HD
ENDBRANCH  14  25
ENDBRANCH   6  14
TORSDOF 8
ENDMDL
MODEL 8
REMARK VINA RESULT:      -7.1      1.960      5.481
REMARK  Name = 
REMARK  11 active torsions:
REMARK  status: ('A' for Active; 'I' for Inactive)
REMARK    1  A    between atoms: C_1  and  C_2
REMARK    2  A    between atoms: C_2  and  S_3
REMARK    3  A    between atoms: S_3  and  N_6
REMARK    4  A    between atoms: N_6  and  C_7
REMARK    5  A    between atoms: C_12  and  C_13
REMARK    6  A    between atoms: C_13  and  O_14
REMARK    7  A    between atoms: C_13  and  C_15
REMARK    8  A    between atoms: C_17  and  O_18
REMARK    9  A    between atoms: O_18  and  C_19
REMARK   10  A    between atoms: C_21  and  O_22
REMARK   11  A    between atoms: O_22  and  C_23
REMARK                            x       y       z     vdW  Elec       q    Type
REMARK                         _______ _______ _______ _____ _____    ______ ____
ROOT
ATOM      1  C   UNL     1       2.070   4.523  19.130  0.00  0.00    +0.000 A 
ATOM      2  C   UNL     1       1.529   4.738  20.405  0.00  0.00    +0.000 A 
ATOM      3  C   UNL     1       1.733   3.817  21.433  0.00  0.00    +0.000 A 
ATOM      4  C   UNL     1       2.458   2.658  21.189  0.00  0.00    +0.000 A 
ATOM      5  C   UNL     1       2.967   2.419  19.913  0.00  0.00    +0.000 A 
ATOM      6  C   UNL     1       2.788   3.344  18.858  0.00  0.00    +0.000 A 
ENDROOT
BRANCH   1   7
ATOM      7  N   UNL     1       1.863   5.561  18.154  0.00  0.00    +0.000 N 
ATOM      8  H   UNL     1       0.880   5.772  17.975  0.00  0.00    +0.000 HD
BRANCH   7   9
ATOM      9  S   UNL     1       2.729   7.008  18.368  0.00  0.00    +0.000 S 
ATOM     10  O   UNL     1       3.890   7.025  17.510  0.00  0.00    +0.000 OA
ATOM     11  O   UNL     1       2.817   7.213  19.796  0.00  0.00    +0.000 OA
BRANCH   9  13
ATOM     12  C   UNL     1       1.991   9.615  17.946  0.00  0.00    +0.000 C 
ATOM     13  C   UNL     1       1.538   8.183  17.730  0.00  0.00    +0.000 C 
ENDBRANCH   9  13
ENDBRANCH   7   9
ENDBRANCH   1   7
BRANCH   6  14
ATOM     14  C   UNL     1       3.434   3.036  17.523  0.00  0.00    +0.000 C 
BRANCH  14  15
ATOM     15  C   UNL     1       4.725   3.801  17.231  0.00  0.00    +0.000 A 
ATOM     16  N   UNL     1       5.505   4.137  18.269  0.00  0.00    +0.000 NA
ATOM     17  C   UNL     1       6.704   4.668  17.977  0.00  0.00    +0.000 A 
ATOM     18  C   UNL     1       7.150   4.893  16.701  0.00  0.00    +0.000 A 
ATOM     19  C   UNL     1       6.281   4.509  15.711  0.00  0.00    +0.000 A 
ATOM     20  N   UNL     1       5.076   3.952  15.935  0.00  0.00    +0.000 NA
BRANCH  17  21
ATOM     21  O   UNL     1       7.576   4.981  19.002  0.00  0.00    +0.000 OA
ATOM     22  C   UNL     1       8.008   6.340  18.965  0.00  0.00    +0.000 C 
ENDBRANCH  17  21
BRANCH  19  23
ATOM     23  O   UNL     1       6.718   4.693  14.412  0.00  0.00    +0.000 OA
ATOM     24  C   UNL     1       6.134   3.781  13.488  0.00  0.00    +0.000 C 
ENDBRANCH  19  23
ENDBRANCH  14  15
BRANCH  14  25
ATOM     25  O   UNL     1       2.444   3.312  16.508  0.00  0.00    +0.000 OA
ATOM     26  H   UNL     1       1.641   2.845  16.810  0.00  0.00    +0.000 HD
ENDBRANCH  14  25
ENDBRANCH   6  14
TORSDOF 8
ENDMDL
MODEL 9
REMARK VINA RESULT:      -7.0      1.946      5.641
REMARK  Name = 
REMARK  11 active torsions:
REMARK  status: ('A' for Active; 'I' for Inactive)
REMARK    1  A    between atoms: C_1  and  C_2
REMARK    2  A    between atoms: C_2  and  S_3
REMARK    3  A    between atoms: S_3  and  N_6
REMARK    4  A    between atoms: N_6  and  C_7
REMARK    5  A    between atoms: C_12  and  C_13
REMARK    6  A    between atoms: C_13  and  O_14
REMARK    7  A    between atoms: C_13  and  C_15
REMARK    8  A    between atoms: C_17  and  O_18
REMARK    9  A    between atoms: O_18  and  C_19
REMARK   10  A    between atoms: C_21  and  O_22
REMARK   11  A    between atoms: O_22  and  C_23
REMARK                            x       y       z     vdW  Elec       q    Type
REMARK                         _______ _______ _______ _____ _____    ______ ____
ROOT
ATOM      1  C   UNL     1       2.763   4.859  20.017  0.00  0.00    +0.000 A 
ATOM      2  C   UNL     1       1.385   4.907  20.269  0.00  0.00    +0.000 A 
ATOM      3  C   UNL     1       0.685   3.761  20.647  0.00  0.00    +0.000 A 
ATOM      4  C   UNL     1       1.352   2.547  20.751  0.00  0.00    +0.000 A 
ATOM      5  C   UNL     1       2.716   2.484  20.467  0.00  0.00    +0.000 A 
ATOM      6  C   UNL     1       3.451   3.634  20.097  0.00  0.00    +0.000 A 
ENDROOT
BRANCH   1   7
ATOM      7  N   UNL     1       3.409   6.105  19.699  0.00  0.00    +0.000 N 
ATOM      8  H   UNL     1       4.429   6.060  19.716  0.00  0.00    +0.000 HD
BRANCH   7   9
ATOM      9  S   UNL     1       2.895   6.905  18.290  0.00  0.00    +0.000 S 
ATOM     10  O   UNL     1       1.994   6.064  17.540  0.00  0.00    +0.000 OA
ATOM     11  O   UNL     1       4.083   7.484  17.705  0.00  0.00    +0.000 OA
BRANCH   9  13
ATOM     12  C   UNL     1       1.587   9.297  17.988  0.00  0.00    +0.000 C 
ATOM     13  C   UNL     1       1.949   8.241  19.017  0.00  0.00    +0.000 C 
ENDBRANCH   9  13
ENDBRANCH   7   9
ENDBRANCH   1   7
BRANCH   6  14
ATOM     14  C   UNL     1       4.942   3.485  19.873  0.00  0.00    +0.000 C 
BRANCH  14  15
ATOM     15  C   UNL     1       5.520   4.335  18.741  0.00  0.00    +0.000 A 
ATOM     16  N   UNL     1       6.453   5.247  19.052  0.00  0.00    +0.000 NA
ATOM     17  C   UNL     1       7.055   5.869  18.026  0.00  0.00    +0.000 A 
ATOM     18  C   UNL     1       6.757   5.636  16.709  0.00  0.00    +0.000 A 
ATOM     19  C   UNL     1       5.795   4.681  16.496  0.00  0.00    +0.000 A 
ATOM     20  N   UNL     1       5.168   4.005  17.478  0.00  0.00    +0.000 NA
BRANCH  17  21
ATOM     21  O   UNL     1       8.065   6.777  18.281  0.00  0.00    +0.000 OA
ATOM     22  C   UNL     1       7.830   8.048  17.678  0.00  0.00    +0.000 C 
ENDBRANCH  17  21
BRANCH  19  23
ATOM     23  O   UNL     1       5.497   4.400  15.176  0.00  0.00    +0.000 OA
ATOM     24  C   UNL     1       6.635   4.439  14.322  0.00  0.00    +0.000 C 
ENDBRANCH  19  23
ENDBRANCH  14  15
BRANCH  14  25
ATOM     25  O   UNL     1       5.189   2.083  19.627  0.00  0.00    +0.000 OA
ATOM     26  H   UNL     1       6.056   2.058  19.179  0.00  0.00    +0.000 HD
ENDBRANCH  14  25
ENDBRANCH   6  14
TORSDOF 8
ENDMDL
