MODEL 1
REMARK VINA RESULT:      -7.1      0.000      0.000
REMARK  Name = 
REMARK  9 active torsions:
REMARK  status: ('A' for Active; 'I' for Inactive)
REMARK    1  A    between atoms: C_1  and  C_2
REMARK    2  A    between atoms: C_2  and  C_3
REMARK    3  A    between atoms: C_3  and  C_4
REMARK    4  A    between atoms: C_3  and  N_5
REMARK    5  A    between atoms: C_6  and  C_8
REMARK    6  A    between atoms: C_9  and  C_10
REMARK    7  A    between atoms: C_14  and  O_15
REMARK    8  A    between atoms: O_15  and  C_16
REMARK    9  A    between atoms: C_22  and  C_23
REMARK                            x       y       z     vdW  Elec       q    Type
REMARK                         _______ _______ _______ _____ _____    ______ ____
ROOT
ATOM      1  C   UNL     1       3.111   4.017  19.615  0.00  0.00    +0.000 A 
ATOM      2  C   UNL     1       4.383   3.564  19.134  0.00  0.00    +0.000 A 
ATOM      3  N   UNL     1       4.800   2.505  19.846  0.00  0.00    +0.000 NA
ATOM      4  O   UNL     1       3.838   2.270  20.801  0.00  0.00    +0.000 OA
ATOM      5  C   UNL     1       2.832   3.172  20.671  0.00  0.00    +0.000 A 
ATOM      6  C   UNL     1       1.710   3.016  21.617  0.00  0.00    +0.000 C 
ENDROOT
BRANCH   2   7
ATOM      7  C   UNL     1       5.225   4.122  18.073  0.00  0.00    +0.000 A 
ATOM      8  C   UNL     1       5.136   3.640  16.764  0.00  0.00    +0.000 A 
ATOM      9  C   UNL     1       5.930   4.155  15.725  0.00  0.00    +0.000 A 
ATOM     10 CL   UNL     1       5.677   3.373  14.201  0.00  0.00    +0.000 Cl
ATOM     11  C   UNL     1       6.823   5.207  15.972  0.00  0.00    +0.000 A 
ATOM     12  C   UNL     1       6.888   5.703  17.296  0.00  0.00    +0.000 A 
ATOM     13 CL   UNL     1       7.949   7.013  17.714  0.00  0.00    +0.000 Cl
ATOM     14  C   UNL     1       6.105   5.171  18.330  0.00  0.00    +0.000 A 
BRANCH  11  15
ATOM     15  O   UNL     1       7.663   5.848  15.103  0.00  0.00    +0.000 OA
ATOM     16  C   UNL     1       7.796   5.436  13.755  0.00  0.00    +0.000 C 
ENDBRANCH  11  15
ENDBRANCH   2   7
BRANCH   1  18
ATOM     17  N   UNL     1       2.657   6.357  19.432  0.00  0.00    +0.000 N 
ATOM     18  C   UNL     1       2.279   5.075  19.083  0.00  0.00    +0.000 C 
ATOM     19  O   UNL     1       1.333   4.847  18.341  0.00  0.00    +0.000 OA
ATOM     20  H   UNL     1       3.561   6.497  19.863  0.00  0.00    +0.000 HD
BRANCH  17  21
ATOM     21  C   UNL     1       1.970   7.525  18.893  0.00  0.00    +0.000 C 
ATOM     22  C   UNL     1       2.805   8.158  17.778  0.00  0.00    +0.000 C 
BRANCH  21  24
ATOM     23  C   UNL     1       1.062   7.916  21.238  0.00  0.00    +0.000 C 
ATOM     24  C   UNL     1       1.684   8.549  19.999  0.00  0.00    +0.000 C 
ENDBRANCH  21  24
ENDBRANCH  17  21
ENDBRANCH   1  18
TORSDOF 5
ENDMDL
MODEL 2
REMARK VINA RESULT:      -7.1      3.160      6.198
REMARK  Name = 
REMARK  9 active torsions:
REMARK  status: ('A' for Active; 'I' for Inactive)
REMARK    1  A    between atoms: C_1  and  C_2
REMARK    2  A    between atoms: C_2  and  C_3
REMARK    3  A    between atoms: C_3  and  C_4
REMARK    4  A    between atoms: C_3  and  N_5
REMARK    5  A    between atoms: C_6  and  C_8
REMARK    6  A    between atoms: C_9  and  C_10
REMARK    7  A    between atoms: C_14  and  O_15
REMARK    8  A    between atoms: O_15  and  C_16
REMARK    9  A    between atoms: C_22  and  C_23
REMARK                            x       y       z     vdW  Elec       q    Type
REMARK                         _______ _______ _______ _____ _____    ______ ____
ROOT
ATOM      1  C   UNL     1       3.520   4.572  19.463  0.00  0.00    +0.000 A 
ATOM      2  C   UNL     1       2.555   5.249  20.277  0.00  0.00    +0.000 A 
ATOM      3  N   UNL     1       2.076   4.421  21.219  0.00  0.00    +0.000 NA
ATOM      4  O   UNL     1       2.691   3.206  21.023  0.00  0.00    +0.000 OA
ATOM      5  C   UNL     1       3.548   3.289  19.974  0.00  0.00    +0.000 A 
ATOM      6  C   UNL     1       4.305   2.059  19.670  0.00  0.00    +0.000 C 
ENDROOT
BRANCH   2   7
ATOM      7  C   UNL     1       2.042   6.616  20.162  0.00  0.00    +0.000 A 
ATOM      8  C   UNL     1       1.326   7.200  21.211  0.00  0.00    +0.000 A 
ATOM      9  C   UNL     1       0.821   8.509  21.131  0.00  0.00    +0.000 A 
ATOM     10 CL   UNL     1      -0.070   8.999  22.532  0.00  0.00    +0.000 Cl
ATOM     11  C   UNL     1       1.058   9.290  19.991  0.00  0.00    +0.000 A 
ATOM     12  C   UNL     1       1.805   8.698  18.945  0.00  0.00    +0.000 A 
ATOM     13 CL   UNL     1       2.170   9.576  17.493  0.00  0.00    +0.000 Cl
ATOM     14  C   UNL     1       2.289   7.385  19.026  0.00  0.00    +0.000 A 
BRANCH  11  15
ATOM     15  O   UNL     1       0.669  10.576  19.730  0.00  0.00    +0.000 OA
ATOM     16  C   UNL     1      -0.675  10.900  19.429  0.00  0.00    +0.000 C 
ENDBRANCH  11  15
ENDBRANCH   2   7
BRANCH   1  18
ATOM     17  N   UNL     1       5.644   5.376  18.714  0.00  0.00    +0.000 N 
ATOM     18  C   UNL     1       4.326   5.116  18.391  0.00  0.00    +0.000 C 
ATOM     19  O   UNL     1       3.877   5.293  17.267  0.00  0.00    +0.000 OA
ATOM     20  H   UNL     1       6.011   5.014  19.583  0.00  0.00    +0.000 HD
BRANCH  17  21
ATOM     21  C   UNL     1       6.595   5.837  17.710  0.00  0.00    +0.000 C 
ATOM     22  C   UNL     1       7.218   4.641  16.988  0.00  0.00    +0.000 C 
BRANCH  21  24
ATOM     23  C   UNL     1       7.837   8.058  17.663  0.00  0.00    +0.000 C 
ATOM     24  C   UNL     1       7.685   6.707  18.350  0.00  0.00    +0.000 C 
ENDBRANCH  21  24
ENDBRANCH  17  21
ENDBRANCH   1  18
TORSDOF 5
ENDMDL
MODEL 3
REMARK VINA RESULT:      -7.0      3.153      6.089
REMARK  Name = 
REMARK  9 active torsions:
REMARK  status: ('A' for Active; 'I' for Inactive)
REMARK    1  A    between atoms: C_1  and  C_2
REMARK    2  A    between atoms: C_2  and  C_3
REMARK    3  A    between atoms: C_3  and  C_4
REMARK    4  A    between atoms: C_3  and  N_5
REMARK    5  A    between atoms: C_6  and  C_8
REMARK    6  A    between atoms: C_9  and  C_10
REMARK    7  A    between atoms: C_14  and  O_15
REMARK    8  A    between atoms: O_15  and  C_16
REMARK    9  A    between atoms: C_22  and  C_23
REMARK                            x       y       z     vdW  Elec       q    Type
REMARK                         _______ _______ _______ _____ _____    ______ ____
ROOT
ATOM      1  C   UNL     1       3.527   4.564  19.441  0.00  0.00    +0.000 A 
ATOM      2  C   UNL     1       2.570   5.231  20.274  0.00  0.00    +0.000 A 
ATOM      3  N   UNL     1       2.090   4.386  21.201  0.00  0.00    +0.000 NA
ATOM      4  O   UNL     1       2.695   3.172  20.976  0.00  0.00    +0.000 OA
ATOM      5  C   UNL     1       3.548   3.270  19.925  0.00  0.00    +0.000 A 
ATOM      6  C   UNL     1       4.294   2.041  19.591  0.00  0.00    +0.000 C 
ENDROOT
BRANCH   2   7
ATOM      7  C   UNL     1       2.067   6.604  20.191  0.00  0.00    +0.000 A 
ATOM      8  C   UNL     1       2.274   7.371  19.041  0.00  0.00    +0.000 A 
ATOM      9  C   UNL     1       1.804   8.690  18.931  0.00  0.00    +0.000 A 
ATOM     10 CL   UNL     1       2.217   9.455  17.433  0.00  0.00    +0.000 Cl
ATOM     11  C   UNL     1       1.072   9.270  19.977  0.00  0.00    +0.000 A 
ATOM     12  C   UNL     1       0.848   8.477  21.127  0.00  0.00    +0.000 A 
ATOM     13 CL   UNL     1      -0.057   9.087  22.477  0.00  0.00    +0.000 Cl
ATOM     14  C   UNL     1       1.336   7.167  21.235  0.00  0.00    +0.000 A 
BRANCH  11  15
ATOM     15  O   UNL     1       0.523  10.521  20.056  0.00  0.00    +0.000 OA
ATOM     16  C   UNL     1      -0.636  10.874  19.323  0.00  0.00    +0.000 C 
ENDBRANCH  11  15
ENDBRANCH   2   7
BRANCH   1  18
ATOM     17  N   UNL     1       5.655   5.360  18.696  0.00  0.00    +0.000 N 
ATOM     18  C   UNL     1       4.331   5.125  18.377  0.00  0.00    +0.000 C 
ATOM     19  O   UNL     1       3.876   5.336  17.261  0.00  0.00    +0.000 OA
ATOM     20  H   UNL     1       6.024   4.971  19.553  0.00  0.00    +0.000 HD
BRANCH  17  21
ATOM     21  C   UNL     1       6.604   5.834  17.696  0.00  0.00    +0.000 C 
ATOM     22  C   UNL     1       7.244   4.646  16.975  0.00  0.00    +0.000 C 
BRANCH  21  24
ATOM     23  C   UNL     1       7.824   8.067  17.653  0.00  0.00    +0.000 C 
ATOM     24  C   UNL     1       7.682   6.716  18.342  0.00  0.00    +0.000 C 
ENDBRANCH  21  24
ENDBRANCH  17  21
ENDBRANCH   1  18
TORSDOF 5
ENDMDL
MODEL 4
REMARK VINA RESULT:      -7.0      2.981      6.313
REMARK  Name = 
REMARK  9 active torsions:
REMARK  status: ('A' for Active; 'I' for Inactive)
REMARK    1  A    between atoms: C_1  and  C_2
REMARK    2  A    between atoms: C_2  and  C_3
REMARK    3  A    between atoms: C_3  and  C_4
REMARK    4  A    between atoms: C_3  and  N_5
REMARK    5  A    between atoms: C_6  and  C_8
REMARK    6  A    between atoms: C_9  and  C_10
REMARK    7  A    between atoms: C_14  and  O_15
REMARK    8  A    between atoms: O_15  and  C_16
REMARK    9  A    between atoms: C_22  and  C_23
REMARK                            x       y       z     vdW  Elec       q    Type
REMARK                         _______ _______ _______ _____ _____    ______ ____
ROOT
ATOM      1  C   UNL     1       5.246   5.271  17.120  0.00  0.00    +0.000 A 
ATOM      2  C   UNL     1       4.492   6.475  16.930  0.00  0.00    +0.000 A 
ATOM      3  N   UNL     1       4.835   7.062  15.773  0.00  0.00    +0.000 NA
ATOM      4  O   UNL     1       5.817   6.281  15.212  0.00  0.00    +0.000 OA
ATOM      5  C   UNL     1       6.070   5.215  16.014  0.00  0.00    +0.000 A 
ATOM      6  C   UNL     1       7.087   4.269  15.515  0.00  0.00    +0.000 C 
ENDROOT
BRANCH   2   7
ATOM      7  C   UNL     1       3.510   7.103  17.818  0.00  0.00    +0.000 A 
ATOM      8  C   UNL     1       2.996   6.410  18.917  0.00  0.00    +0.000 A 
ATOM      9  C   UNL     1       2.053   6.985  19.786  0.00  0.00    +0.000 A 
ATOM     10 CL   UNL     1       1.529   5.921  21.048  0.00  0.00    +0.000 Cl
ATOM     11  C   UNL     1       1.622   8.305  19.590  0.00  0.00    +0.000 A 
ATOM     12  C   UNL     1       2.167   9.005  18.488  0.00  0.00    +0.000 A 
ATOM     13 CL   UNL     1       1.717  10.649  18.157  0.00  0.00    +0.000 Cl
ATOM     14  C   UNL     1       3.094   8.418  17.615  0.00  0.00    +0.000 A 
BRANCH  11  15
ATOM     15  O   UNL     1       0.733   9.040  20.324  0.00  0.00    +0.000 OA
ATOM     16  C   UNL     1       1.010   9.431  21.656  0.00  0.00    +0.000 C 
ENDBRANCH  11  15
ENDBRANCH   2   7
BRANCH   1  18
ATOM     17  N   UNL     1       4.012   3.498  18.144  0.00  0.00    +0.000 N 
ATOM     18  C   UNL     1       5.132   4.304  18.191  0.00  0.00    +0.000 C 
ATOM     19  O   UNL     1       5.993   4.186  19.052  0.00  0.00    +0.000 OA
ATOM     20  H   UNL     1       3.452   3.493  17.303  0.00  0.00    +0.000 HD
BRANCH  17  21
ATOM     21  C   UNL     1       3.814   2.417  19.102  0.00  0.00    +0.000 C 
ATOM     22  C   UNL     1       3.773   1.071  18.376  0.00  0.00    +0.000 C 
BRANCH  21  24
ATOM     23  C   UNL     1       1.287   2.711  19.025  0.00  0.00    +0.000 C 
ATOM     24  C   UNL     1       2.526   2.632  19.909  0.00  0.00    +0.000 C 
ENDBRANCH  21  24
ENDBRANCH  17  21
ENDBRANCH   1  18
TORSDOF 5
ENDMDL
MODEL 5
REMARK VINA RESULT:      -7.0      1.580      1.914
REMARK  Name = 
REMARK  9 active torsions:
REMARK  status: ('A' for Active; 'I' for Inactive)
REMARK    1  A    between atoms: C_1  and  C_2
REMARK    2  A    between atoms: C_2  and  C_3
REMARK    3  A    between atoms: C_3  and  C_4
REMARK    4  A    between atoms: C_3  and  N_5
REMARK    5  A    between atoms: C_6  and  C_8
REMARK    6  A    between atoms: C_9  and  C_10
REMARK    7  A    between atoms: C_14  and  O_15
REMARK    8  A    between atoms: O_15  and  C_16
REMARK    9  A    between atoms: C_22  and  C_23
REMARK                            x       y       z     vdW  Elec       q    Type
REMARK                         _______ _______ _______ _____ _____    ______ ____
ROOT
ATOM      1  C   UNL     1       2.862   4.253  18.474  0.00  0.00    +0.000 A 
ATOM      2  C   UNL     1       3.543   3.629  17.378  0.00  0.00    +0.000 A 
ATOM      3  N   UNL     1       3.024   2.415  17.137  0.00  0.00    +0.000 NA
ATOM      4  O   UNL     1       2.032   2.219  18.069  0.00  0.00    +0.000 OA
ATOM      5  C   UNL     1       1.936   3.309  18.873  0.00  0.00    +0.000 A 
ATOM      6  C   UNL     1       0.883   3.249  19.905  0.00  0.00    +0.000 C 
ENDROOT
BRANCH   2   7
ATOM      7  C   UNL     1       4.683   4.116  16.597  0.00  0.00    +0.000 A 
ATOM      8  C   UNL     1       4.895   3.670  15.290  0.00  0.00    +0.000 A 
ATOM      9  C   UNL     1       5.979   4.119  14.516  0.00  0.00    +0.000 A 
ATOM     10 CL   UNL     1       6.061   3.394  12.946  0.00  0.00    +0.000 Cl
ATOM     11  C   UNL     1       6.872   5.069  15.032  0.00  0.00    +0.000 A 
ATOM     12  C   UNL     1       6.634   5.531  16.348  0.00  0.00    +0.000 A 
ATOM     13 CL   UNL     1       7.667   6.717  17.084  0.00  0.00    +0.000 Cl
ATOM     14  C   UNL     1       5.560   5.064  17.120  0.00  0.00    +0.000 A 
BRANCH  11  15
ATOM     15  O   UNL     1       7.967   5.635  14.439  0.00  0.00    +0.000 OA
ATOM     16  C   UNL     1       8.158   5.597  13.038  0.00  0.00    +0.000 C 
ENDBRANCH  11  15
ENDBRANCH   2   7
BRANCH   1  18
ATOM     17  N   UNL     1       2.295   6.574  18.416  0.00  0.00    +0.000 N 
ATOM     18  C   UNL     1       3.056   5.584  19.006  0.00  0.00    +0.000 C 
ATOM     19  O   UNL     1       3.812   5.806  19.942  0.00  0.00    +0.000 OA
ATOM     20  H   UNL     1       1.538   6.304  17.802  0.00  0.00    +0.000 HD
BRANCH  17  21
ATOM     21  C   UNL     1       2.316   7.945  18.911  0.00  0.00    +0.000 C 
ATOM     22  C   UNL     1       1.515   8.046  20.211  0.00  0.00    +0.000 C 
BRANCH  21  24
ATOM     23  C   UNL     1       1.027  10.097  18.481  0.00  0.00    +0.000 C 
ATOM     24  C   UNL     1       1.758   8.914  17.860  0.00  0.00    +0.000 C 
ENDBRANCH  21  24
ENDBRANCH  17  21
ENDBRANCH   1  18
TORSDOF 5
ENDMDL
MODEL 6
REMARK VINA RESULT:      -7.0      3.147      6.216
REMARK  Name = 
REMARK  9 active torsions:
REMARK  status: ('A' for Active; 'I' for Inactive)
REMARK    1  A    between atoms: C_1  and  C_2
REMARK    2  A    between atoms: C_2  and  C_3
REMARK    3  A    between atoms: C_3  and  C_4
REMARK    4  A    between atoms: C_3  and  N_5
REMARK    5  A    between atoms: C_6  and  C_8
REMARK    6  A    between atoms: C_9  and  C_10
REMARK    7  A    between atoms: C_14  and  O_15
REMARK    8  A    between atoms: O_15  and  C_16
REMARK    9  A    between atoms: C_22  and  C_23
REMARK                            x       y       z     vdW  Elec       q    Type
REMARK                         _______ _______ _______ _____ _____    ______ ____
ROOT
ATOM      1  C   UNL     1       3.651   4.423  19.720  0.00  0.00    +0.000 A 
ATOM      2  C   UNL     1       2.478   5.060  20.242  0.00  0.00    +0.000 A 
ATOM      3  N   UNL     1       1.705   4.165  20.877  0.00  0.00    +0.000 NA
ATOM      4  O   UNL     1       2.336   2.949  20.761  0.00  0.00    +0.000 OA
ATOM      5  C   UNL     1       3.493   3.095  20.066  0.00  0.00    +0.000 A 
ATOM      6  C   UNL     1       4.293   1.867  19.893  0.00  0.00    +0.000 C 
ENDROOT
BRANCH   2   7
ATOM      7  C   UNL     1       2.048   6.455  20.117  0.00  0.00    +0.000 A 
ATOM      8  C   UNL     1       1.407   7.101  21.178  0.00  0.00    +0.000 A 
ATOM      9  C   UNL     1       0.983   8.438  21.089  0.00  0.00    +0.000 A 
ATOM     10 CL   UNL     1       0.174   9.008  22.510  0.00  0.00    +0.000 Cl
ATOM     11  C   UNL     1       1.228   9.182  19.926  0.00  0.00    +0.000 A 
ATOM     12  C   UNL     1       1.898   8.525  18.868  0.00  0.00    +0.000 A 
ATOM     13 CL   UNL     1       2.266   9.353  17.386  0.00  0.00    +0.000 Cl
ATOM     14  C   UNL     1       2.302   7.186  18.958  0.00  0.00    +0.000 A 
BRANCH  11  15
ATOM     15  O   UNL     1       0.911  10.485  19.653  0.00  0.00    +0.000 OA
ATOM     16  C   UNL     1      -0.420  10.888  19.390  0.00  0.00    +0.000 C 
ENDBRANCH  11  15
ENDBRANCH   2   7
BRANCH   1  18
ATOM     17  N   UNL     1       4.779   4.894  17.664  0.00  0.00    +0.000 N 
ATOM     18  C   UNL     1       4.773   5.034  19.039  0.00  0.00    +0.000 C 
ATOM     19  O   UNL     1       5.631   5.665  19.640  0.00  0.00    +0.000 OA
ATOM     20  H   UNL     1       3.944   4.554  17.207  0.00  0.00    +0.000 HD
BRANCH  17  21
ATOM     21  C   UNL     1       5.795   5.537  16.840  0.00  0.00    +0.000 C 
ATOM     22  C   UNL     1       5.133   6.466  15.820  0.00  0.00    +0.000 C 
BRANCH  21  24
ATOM     23  C   UNL     1       6.696   4.681  14.620  0.00  0.00    +0.000 C 
ATOM     24  C   UNL     1       6.664   4.491  16.131  0.00  0.00    +0.000 C 
ENDBRANCH  21  24
ENDBRANCH  17  21
ENDBRANCH   1  18
TORSDOF 5
ENDMDL
MODEL 7
REMARK VINA RESULT:      -6.9      3.154      6.125
REMARK  Name = 
REMARK  9 active torsions:
REMARK  status: ('A' for Active; 'I' for Inactive)
REMARK    1  A    between atoms: C_1  and  C_2
REMARK    2  A    between atoms: C_2  and  C_3
REMARK    3  A    between atoms: C_3  and  C_4
REMARK    4  A    between atoms: C_3  and  N_5
REMARK    5  A    between atoms: C_6  and  C_8
REMARK    6  A    between atoms: C_9  and  C_10
REMARK    7  A    between atoms: C_14  and  O_15
REMARK    8  A    between atoms: O_15  and  C_16
REMARK    9  A    between atoms: C_22  and  C_23
REMARK                            x       y       z     vdW  Elec       q    Type
REMARK                         _______ _______ _______ _____ _____    ______ ____
ROOT
ATOM      1  C   UNL     1       3.512   4.432  19.566  0.00  0.00    +0.000 A 
ATOM      2  C   UNL     1       2.350   5.066  20.118  0.00  0.00    +0.000 A 
ATOM      3  N   UNL     1       1.533   4.150  20.662  0.00  0.00    +0.000 NA
ATOM      4  O   UNL     1       2.124   2.925  20.456  0.00  0.00    +0.000 OA
ATOM      5  C   UNL     1       3.301   3.087  19.798  0.00  0.00    +0.000 A 
ATOM      6  C   UNL     1       4.061   1.849  19.538  0.00  0.00    +0.000 C 
ENDROOT
BRANCH   2   7
ATOM      7  C   UNL     1       1.972   6.481  20.103  0.00  0.00    +0.000 A 
ATOM      8  C   UNL     1       2.193   7.266  18.968  0.00  0.00    +0.000 A 
ATOM      9  C   UNL     1       1.842   8.626  18.923  0.00  0.00    +0.000 A 
ATOM     10 CL   UNL     1       2.253   9.403  17.431  0.00  0.00    +0.000 Cl
ATOM     11  C   UNL     1       1.216   9.232  20.022  0.00  0.00    +0.000 A 
ATOM     12  C   UNL     1       0.976   8.422  21.156  0.00  0.00    +0.000 A 
ATOM     13 CL   UNL     1       0.195   9.063  22.569  0.00  0.00    +0.000 Cl
ATOM     14  C   UNL     1       1.346   7.070  21.199  0.00  0.00    +0.000 A 
BRANCH  11  15
ATOM     15  O   UNL     1       0.788  10.524  20.167  0.00  0.00    +0.000 OA
ATOM     16  C   UNL     1      -0.355  11.010  19.490  0.00  0.00    +0.000 C 
ENDBRANCH  11  15
ENDBRANCH   2   7
BRANCH   1  18
ATOM     17  N   UNL     1       4.709   5.012  17.580  0.00  0.00    +0.000 N 
ATOM     18  C   UNL     1       4.668   5.056  18.960  0.00  0.00    +0.000 C 
ATOM     19  O   UNL     1       5.526   5.619  19.627  0.00  0.00    +0.000 OA
ATOM     20  H   UNL     1       3.879   4.729  17.078  0.00  0.00    +0.000 HD
BRANCH  17  21
ATOM     21  C   UNL     1       5.766   5.682  16.831  0.00  0.00    +0.000 C 
ATOM     22  C   UNL     1       5.156   6.587  15.758  0.00  0.00    +0.000 C 
BRANCH  21  24
ATOM     23  C   UNL     1       6.107   3.968  14.980  0.00  0.00    +0.000 C 
ATOM     24  C   UNL     1       6.716   4.658  16.194  0.00  0.00    +0.000 C 
ENDBRANCH  21  24
ENDBRANCH  17  21
ENDBRANCH   1  18
TORSDOF 5
ENDMDL
MODEL 8
REMARK VINA RESULT:      -6.9      3.003      6.436
REMARK  Name = 
REMARK  9 active torsions:
REMARK  status: ('A' for Active; 'I' for Inactive)
REMARK    1  A    between atoms: C_1  and  C_2
REMARK    2  A    between atoms: C_2  and  C_3
REMARK    3  A    between atoms: C_3  and  C_4
REMARK    4  A    between atoms: C_3  and  N_5
REMARK    5  A    between atoms: C_6  and  C_8
REMARK    6  A    between atoms: C_9  and  C_10
REMARK    7  A    between atoms: C_14  and  O_15
REMARK    8  A    between atoms: O_15  and  C_16
REMARK    9  A    between atoms: C_22  and  C_23
REMARK                            x       y       z     vdW  Elec       q    Type
REMARK                         _______ _______ _______ _____ _____    ______ ____
ROOT
ATOM      1  C   UNL     1       6.495   4.823  15.361  0.00  0.00    +0.000 A 
ATOM      2  C   UNL     1       5.149   4.346  15.485  0.00  0.00    +0.000 A 
ATOM      3  N   UNL     1       4.696   3.916  14.297  0.00  0.00    +0.000 NA
ATOM      4  O   UNL     1       5.709   4.124  13.391  0.00  0.00    +0.000 OA
ATOM      5  C   UNL     1       6.782   4.670  14.018  0.00  0.00    +0.000 A 
ATOM      6  C   UNL     1       7.961   4.918  13.166  0.00  0.00    +0.000 C 
ENDROOT
BRANCH   2   7
ATOM      7  C   UNL     1       4.277   4.332  16.661  0.00  0.00    +0.000 A 
ATOM      8  C   UNL     1       3.863   5.526  17.258  0.00  0.00    +0.000 A 
ATOM      9  C   UNL     1       3.027   5.545  18.387  0.00  0.00    +0.000 A 
ATOM     10 CL   UNL     1       2.686   7.137  18.975  0.00  0.00    +0.000 Cl
ATOM     11  C   UNL     1       2.548   4.346  18.933  0.00  0.00    +0.000 A 
ATOM     12  C   UNL     1       2.953   3.143  18.307  0.00  0.00    +0.000 A 
ATOM     13 CL   UNL     1       2.411   1.600  18.889  0.00  0.00    +0.000 Cl
ATOM     14  C   UNL     1       3.803   3.133  17.192  0.00  0.00    +0.000 A 
BRANCH  11  15
ATOM     15  O   UNL     1       1.722   4.156  20.007  0.00  0.00    +0.000 OA
ATOM     16  C   UNL     1       2.215   4.154  21.334  0.00  0.00    +0.000 C 
ENDBRANCH  11  15
ENDBRANCH   2   7
BRANCH   1  18
ATOM     17  N   UNL     1       7.344   6.661  16.632  0.00  0.00    +0.000 N 
ATOM     18  C   UNL     1       7.376   5.299  16.406  0.00  0.00    +0.000 C 
ATOM     19  O   UNL     1       8.067   4.538  17.069  0.00  0.00    +0.000 OA
ATOM     20  H   UNL     1       6.606   7.207  16.209  0.00  0.00    +0.000 HD
BRANCH  17  21
ATOM     21  C   UNL     1       8.106   7.269  17.716  0.00  0.00    +0.000 C 
ATOM     22  C   UNL     1       7.813   6.547  19.033  0.00  0.00    +0.000 C 
BRANCH  21  24
ATOM     23  C   UNL     1       8.834   9.527  18.635  0.00  0.00    +0.000 C 
ATOM     24  C   UNL     1       7.783   8.764  17.839  0.00  0.00    +0.000 C 
ENDBRANCH  21  24
ENDBRANCH  17  21
ENDBRANCH   1  18
TORSDOF 5
ENDMDL
MODEL 9
REMARK VINA RESULT:      -6.9      3.011      6.235
REMARK  Name = 
REMARK  9 active torsions:
REMARK  status: ('A' for Active; 'I' for Inactive)
REMARK    1  A    between atoms: C_1  and  C_2
REMARK    2  A    between atoms: C_2  and  C_3
REMARK    3  A    between atoms: C_3  and  C_4
REMARK    4  A    between atoms: C_3  and  N_5
REMARK    5  A    between atoms: C_6  and  C_8
REMARK    6  A    between atoms: C_9  and  C_10
REMARK    7  A    between atoms: C_14  and  O_15
REMARK    8  A    between atoms: O_15  and  C_16
REMARK    9  A    between atoms: C_22  and  C_23
REMARK                            x       y       z     vdW  Elec       q    Type
REMARK                         _______ _______ _______ _____ _____    ______ ____
ROOT
ATOM      1  C   UNL     1       6.484   4.854  15.362  0.00  0.00    +0.000 A 
ATOM      2  C   UNL     1       5.137   4.383  15.496  0.00  0.00    +0.000 A 
ATOM      3  N   UNL     1       4.676   3.949  14.313  0.00  0.00    +0.000 NA
ATOM      4  O   UNL     1       5.684   4.150  13.400  0.00  0.00    +0.000 OA
ATOM      5  C   UNL     1       6.763   4.695  14.019  0.00  0.00    +0.000 A 
ATOM      6  C   UNL     1       7.938   4.935  13.159  0.00  0.00    +0.000 C 
ENDROOT
BRANCH   2   7
ATOM      7  C   UNL     1       4.271   4.377  16.677  0.00  0.00    +0.000 A 
ATOM      8  C   UNL     1       3.848   3.172  17.245  0.00  0.00    +0.000 A 
ATOM      9  C   UNL     1       3.017   3.133  18.378  0.00  0.00    +0.000 A 
ATOM     10 CL   UNL     1       2.588   1.530  18.873  0.00  0.00    +0.000 Cl
ATOM     11  C   UNL     1       2.612   4.323  18.999  0.00  0.00    +0.000 A 
ATOM     12  C   UNL     1       3.066   5.536  18.431  0.00  0.00    +0.000 A 
ATOM     13 CL   UNL     1       2.638   7.069  19.125  0.00  0.00    +0.000 Cl
ATOM     14  C   UNL     1       3.880   5.566  17.290  0.00  0.00    +0.000 A 
BRANCH  11  15
ATOM     15  O   UNL     1       1.826   4.494  20.106  0.00  0.00    +0.000 OA
ATOM     16  C   UNL     1       2.199   3.981  21.371  0.00  0.00    +0.000 C 
ENDBRANCH  11  15
ENDBRANCH   2   7
BRANCH   1  18
ATOM     17  N   UNL     1       7.337   6.694  16.630  0.00  0.00    +0.000 N 
ATOM     18  C   UNL     1       7.372   5.332  16.401  0.00  0.00    +0.000 C 
ATOM     19  O   UNL     1       8.072   4.572  17.056  0.00  0.00    +0.000 OA
ATOM     20  H   UNL     1       6.593   7.237  16.215  0.00  0.00    +0.000 HD
BRANCH  17  21
ATOM     21  C   UNL     1       8.107   7.302  17.709  0.00  0.00    +0.000 C 
ATOM     22  C   UNL     1       7.838   6.568  19.024  0.00  0.00    +0.000 C 
BRANCH  21  24
ATOM     23  C   UNL     1       8.832   9.566  18.617  0.00  0.00    +0.000 C 
ATOM     24  C   UNL     1       7.770   8.793  17.845  0.00  0.00    +0.000 C 
ENDBRANCH  21  24
ENDBRANCH  17  21
ENDBRANCH   1  18
TORSDOF 5
ENDMDL
