MODEL 1
REMARK VINA RESULT:      -7.2      0.000      0.000
REMARK  Name = 
REMARK  9 active torsions:
REMARK  status: ('A' for Active; 'I' for Inactive)
REMARK    1  A    between atoms: C_1  and  C_2
REMARK    2  A    between atoms: C_2  and  C_3
REMARK    3  A    between atoms: C_2  and  C_4
REMARK    4  A    between atoms: C_2  and  C_19
REMARK    5  A    between atoms: C_4  and  N_5
REMARK    6  A    between atoms: N_5  and  C_6
REMARK    7  A    between atoms: N_10  and  C_11
REMARK    8  A    between atoms: C_11  and  C_12
REMARK    9  A    between atoms: C_19  and  N_20
REMARK                            x       y       z     vdW  Elec       q    Type
REMARK                         _______ _______ _______ _____ _____    ______ ____
ROOT
ATOM      1  N   UNL     1       1.900   6.295  20.986  0.00  0.00    +0.000 NA
ATOM      2  H   UNL     1       1.254   6.275  21.776  0.00  0.00    +0.000 HD
ENDROOT
BRANCH   1   3
ATOM      3  C   UNL     1       1.512   5.231  20.024  0.00  0.00    +0.000 C 
ATOM      4  C   UNL     1       1.094   3.949  20.762  0.00  0.00    +0.000 C 
ATOM      5  C   UNL     1       2.291   3.190  21.335  0.00  0.00    +0.000 C 
ATOM      6  C   UNL     1       3.418   2.990  20.310  0.00  0.00    +0.000 C 
ATOM      7  N   UNL     1       3.804   4.247  19.647  0.00  0.00    +0.000 NA
ATOM      8  C   UNL     1       2.618   4.851  19.005  0.00  0.00    +0.000 C 
BRANCH   7   9
ATOM      9  C   UNL     1       4.842   4.028  18.616  0.00  0.00    +0.000 C 
BRANCH   9  10
ATOM     10  C   UNL     1       5.931   5.084  18.537  0.00  0.00    +0.000 A 
ATOM     11  C   UNL     1       5.978   5.981  17.473  0.00  0.00    +0.000 A 
ATOM     12  C   UNL     1       7.026   6.897  17.414  0.00  0.00    +0.000 A 
ATOM     13  C   UNL     1       7.999   6.885  18.409  0.00  0.00    +0.000 A 
ATOM     14  C   UNL     1       7.877   5.965  19.436  0.00  0.00    +0.000 A 
ATOM     15  N   UNL     1       6.874   5.064  19.522  0.00  0.00    +0.000 NA
ENDBRANCH   9  10
ENDBRANCH   7   9
ENDBRANCH   1   3
BRANCH   1  16
ATOM     16  C   UNL     1       1.848   7.622  20.349  0.00  0.00    +0.000 C 
BRANCH  16  18
ATOM     17  C   UNL     1      -0.454   8.083  21.381  0.00  0.00    +0.000 C 
ATOM     18  C   UNL     1       0.917   8.673  21.008  0.00  0.00    +0.000 C 
ATOM     19  C   UNL     1       1.548   9.184  22.327  0.00  0.00    +0.000 C 
BRANCH  18  20
ATOM     20  C   UNL     1       0.811   9.907  20.035  0.00  0.00    +0.000 C 
BRANCH  20  21
ATOM     21  N   UNL     1       0.466  11.239  20.588  0.00  0.00    +0.000 NA
ATOM     22  C   UNL     1      -0.881  11.672  20.120  0.00  0.00    +0.000 C 
ATOM     23  C   UNL     1      -0.923  12.094  18.636  0.00  0.00    +0.000 C 
ATOM     24  O   UNL     1       0.064  13.085  18.321  0.00  0.00    +0.000 OA
ATOM     25  C   UNL     1       1.372  12.664  18.726  0.00  0.00    +0.000 C 
ATOM     26  C   UNL     1       1.385  12.335  20.223  0.00  0.00    +0.000 C 
ENDBRANCH  20  21
ENDBRANCH  18  20
ENDBRANCH  16  18
ENDBRANCH   1  16
TORSDOF 7
ENDMDL
MODEL 2
REMARK VINA RESULT:      -7.1      0.624      1.195
REMARK  Name = 
REMARK  9 active torsions:
REMARK  status: ('A' for Active; 'I' for Inactive)
REMARK    1  A    between atoms: C_1  and  C_2
REMARK    2  A    between atoms: C_2  and  C_3
REMARK    3  A    between atoms: C_2  and  C_4
REMARK    4  A    between atoms: C_2  and  C_19
REMARK    5  A    between atoms: C_4  and  N_5
REMARK    6  A    between atoms: N_5  and  C_6
REMARK    7  A    between atoms: N_10  and  C_11
REMARK    8  A    between atoms: C_11  and  C_12
REMARK    9  A    between atoms: C_19  and  N_20
REMARK                            x       y       z     vdW  Elec       q    Type
REMARK                         _______ _______ _______ _____ _____    ______ ____
ROOT
ATOM      1  N   UNL     1       1.986   6.523  20.895  0.00  0.00    +0.000 NA
ATOM      2  H   UNL     1       1.411   6.384  21.727  0.00  0.00    +0.000 HD
ENDROOT
BRANCH   1   3
ATOM      3  C   UNL     1       1.606   5.511  19.877  0.00  0.00    +0.000 C 
ATOM      4  C   UNL     1       0.941   4.291  20.535  0.00  0.00    +0.000 C 
ATOM      5  C   UNL     1       1.950   3.395  21.253  0.00  0.00    +0.000 C 
ATOM      6  C   UNL     1       3.172   3.057  20.386  0.00  0.00    +0.000 C 
ATOM      7  N   UNL     1       3.792   4.255  19.797  0.00  0.00    +0.000 NA
ATOM      8  C   UNL     1       2.785   4.997  19.010  0.00  0.00    +0.000 C 
BRANCH   7   9
ATOM      9  C   UNL     1       4.925   3.909  18.912  0.00  0.00    +0.000 C 
BRANCH   9  10
ATOM     10  C   UNL     1       5.952   5.006  18.690  0.00  0.00    +0.000 A 
ATOM     11  C   UNL     1       5.875   5.842  17.579  0.00  0.00    +0.000 A 
ATOM     12  C   UNL     1       6.869   6.799  17.388  0.00  0.00    +0.000 A 
ATOM     13  C   UNL     1       7.915   6.886  18.302  0.00  0.00    +0.000 A 
ATOM     14  C   UNL     1       7.917   6.022  19.382  0.00  0.00    +0.000 A 
ATOM     15  N   UNL     1       6.969   5.084  19.596  0.00  0.00    +0.000 NA
ENDBRANCH   9  10
ENDBRANCH   7   9
ENDBRANCH   1   3
BRANCH   1  16
ATOM     16  C   UNL     1       1.777   7.888  20.382  0.00  0.00    +0.000 C 
BRANCH  16  18
ATOM     17  C   UNL     1      -0.497   8.202  21.526  0.00  0.00    +0.000 C 
ATOM     18  C   UNL     1       0.881   8.822  21.237  0.00  0.00    +0.000 C 
ATOM     19  C   UNL     1       1.545   9.075  22.614  0.00  0.00    +0.000 C 
BRANCH  18  20
ATOM     20  C   UNL     1       0.788  10.213  20.503  0.00  0.00    +0.000 C 
BRANCH  20  21
ATOM     21  N   UNL     1       0.657  10.246  19.026  0.00  0.00    +0.000 NA
ATOM     22  C   UNL     1       1.567  11.269  18.439  0.00  0.00    +0.000 C 
ATOM     23  C   UNL     1       1.111  12.724  18.677  0.00  0.00    +0.000 C 
ATOM     24  O   UNL     1      -0.242  12.950  18.257  0.00  0.00    +0.000 OA
ATOM     25  C   UNL     1      -1.136  11.999  18.849  0.00  0.00    +0.000 C 
ATOM     26  C   UNL     1      -0.690  10.570  18.516  0.00  0.00    +0.000 C 
ENDBRANCH  20  21
ENDBRANCH  18  20
ENDBRANCH  16  18
ENDBRANCH   1  16
TORSDOF 7
ENDMDL
MODEL 3
REMARK VINA RESULT:      -7.0      0.948      1.557
REMARK  Name = 
REMARK  9 active torsions:
REMARK  status: ('A' for Active; 'I' for Inactive)
REMARK    1  A    between atoms: C_1  and  C_2
REMARK    2  A    between atoms: C_2  and  C_3
REMARK    3  A    between atoms: C_2  and  C_4
REMARK    4  A    between atoms: C_2  and  C_19
REMARK    5  A    between atoms: C_4  and  N_5
REMARK    6  A    between atoms: N_5  and  C_6
REMARK    7  A    between atoms: N_10  and  C_11
REMARK    8  A    between atoms: C_11  and  C_12
REMARK    9  A    between atoms: C_19  and  N_20
REMARK                            x       y       z     vdW  Elec       q    Type
REMARK                         _______ _______ _______ _____ _____    ______ ____
ROOT
ATOM      1  N   UNL     1       2.120   6.670  20.776  0.00  0.00    +0.000 NA
ATOM      2  H   UNL     1       1.668   6.512  21.677  0.00  0.00    +0.000 HD
ENDROOT
BRANCH   1   3
ATOM      3  C   UNL     1       1.701   5.600  19.836  0.00  0.00    +0.000 C 
ATOM      4  C   UNL     1       1.139   4.389  20.597  0.00  0.00    +0.000 C 
ATOM      5  C   UNL     1       2.235   3.563  21.270  0.00  0.00    +0.000 C 
ATOM      6  C   UNL     1       3.397   3.229  20.323  0.00  0.00    +0.000 C 
ATOM      7  N   UNL     1       3.922   4.420  19.635  0.00  0.00    +0.000 NA
ATOM      8  C   UNL     1       2.828   5.088  18.900  0.00  0.00    +0.000 C 
BRANCH   7   9
ATOM      9  C   UNL     1       4.994   4.073  18.677  0.00  0.00    +0.000 C 
BRANCH   9  10
ATOM     10  C   UNL     1       5.961   5.192  18.331  0.00  0.00    +0.000 A 
ATOM     11  C   UNL     1       7.092   5.424  19.109  0.00  0.00    +0.000 A 
ATOM     12  C   UNL     1       7.922   6.495  18.785  0.00  0.00    +0.000 A 
ATOM     13  C   UNL     1       7.594   7.308  17.705  0.00  0.00    +0.000 A 
ATOM     14  C   UNL     1       6.455   7.008  16.979  0.00  0.00    +0.000 A 
ATOM     15  N   UNL     1       5.631   5.978  17.266  0.00  0.00    +0.000 NA
ENDBRANCH   9  10
ENDBRANCH   7   9
ENDBRANCH   1   3
BRANCH   1  16
ATOM     16  C   UNL     1       1.736   7.997  20.264  0.00  0.00    +0.000 C 
BRANCH  16  18
ATOM     17  C   UNL     1      -0.456   8.205  21.580  0.00  0.00    +0.000 C 
ATOM     18  C   UNL     1       0.874   8.881  21.203  0.00  0.00    +0.000 C 
ATOM     19  C   UNL     1       1.629   9.131  22.533  0.00  0.00    +0.000 C 
BRANCH  18  20
ATOM     20  C   UNL     1       0.677  10.281  20.509  0.00  0.00    +0.000 C 
BRANCH  20  21
ATOM     21  N   UNL     1       0.782  10.379  19.033  0.00  0.00    +0.000 NA
ATOM     22  C   UNL     1       1.478  11.635  18.636  0.00  0.00    +0.000 C 
ATOM     23  C   UNL     1       0.629  12.910  18.827  0.00  0.00    +0.000 C 
ATOM     24  O   UNL     1      -0.650  12.816  18.184  0.00  0.00    +0.000 OA
ATOM     25  C   UNL     1      -1.351  11.635  18.590  0.00  0.00    +0.000 C 
ATOM     26  C   UNL     1      -0.503  10.389  18.305  0.00  0.00    +0.000 C 
ENDBRANCH  20  21
ENDBRANCH  18  20
ENDBRANCH  16  18
ENDBRANCH   1  16
TORSDOF 7
ENDMDL
MODEL 4
REMARK VINA RESULT:      -6.8      0.749      1.058
REMARK  Name = 
REMARK  9 active torsions:
REMARK  status: ('A' for Active; 'I' for Inactive)
REMARK    1  A    between atoms: C_1  and  C_2
REMARK    2  A    between atoms: C_2  and  C_3
REMARK    3  A    between atoms: C_2  and  C_4
REMARK    4  A    between atoms: C_2  and  C_19
REMARK    5  A    between atoms: C_4  and  N_5
REMARK    6  A    between atoms: N_5  and  C_6
REMARK    7  A    between atoms: N_10  and  C_11
REMARK    8  A    between atoms: C_11  and  C_12
REMARK    9  A    between atoms: C_19  and  N_20
REMARK                            x       y       z     vdW  Elec       q    Type
REMARK                         _______ _______ _______ _____ _____    ______ ____
ROOT
ATOM      1  N   UNL     1       1.909   6.359  20.883  0.00  0.00    +0.000 NA
ATOM      2  H   UNL     1       1.333   6.332  21.725  0.00  0.00    +0.000 HD
ENDROOT
BRANCH   1   3
ATOM      3  C   UNL     1       1.452   5.291  19.958  0.00  0.00    +0.000 C 
ATOM      4  C   UNL     1       1.109   4.006  20.728  0.00  0.00    +0.000 C 
ATOM      5  C   UNL     1       2.357   3.259  21.198  0.00  0.00    +0.000 C 
ATOM      6  C   UNL     1       3.396   3.068  20.083  0.00  0.00    +0.000 C 
ATOM      7  N   UNL     1       3.713   4.328  19.390  0.00  0.00    +0.000 NA
ATOM      8  C   UNL     1       2.472   4.921  18.849  0.00  0.00    +0.000 C 
BRANCH   7   9
ATOM      9  C   UNL     1       4.663   4.117  18.276  0.00  0.00    +0.000 C 
BRANCH   9  10
ATOM     10  C   UNL     1       5.783   5.137  18.158  0.00  0.00    +0.000 A 
ATOM     11  C   UNL     1       6.845   5.138  19.059  0.00  0.00    +0.000 A 
ATOM     12  C   UNL     1       7.821   6.125  18.945  0.00  0.00    +0.000 A 
ATOM     13  C   UNL     1       7.704   7.087  17.945  0.00  0.00    +0.000 A 
ATOM     14  C   UNL     1       6.621   7.013  17.087  0.00  0.00    +0.000 A 
ATOM     15  N   UNL     1       5.659   6.070  17.171  0.00  0.00    +0.000 NA
ENDBRANCH   9  10
ENDBRANCH   7   9
ENDBRANCH   1   3
BRANCH   1  16
ATOM     16  C   UNL     1       1.788   7.685  20.254  0.00  0.00    +0.000 C 
BRANCH  16  18
ATOM     17  C   UNL     1      -0.406   8.130  21.504  0.00  0.00    +0.000 C 
ATOM     18  C   UNL     1       0.916   8.731  20.997  0.00  0.00    +0.000 C 
ATOM     19  C   UNL     1       1.668   9.252  22.248  0.00  0.00    +0.000 C 
BRANCH  18  20
ATOM     20  C   UNL     1       0.705   9.960  20.036  0.00  0.00    +0.000 C 
BRANCH  20  21
ATOM     21  N   UNL     1      -0.164  11.081  20.472  0.00  0.00    +0.000 NA
ATOM     22  C   UNL     1      -1.385  11.162  19.623  0.00  0.00    +0.000 C 
ATOM     23  C   UNL     1      -1.125  11.700  18.200  0.00  0.00    +0.000 C 
ATOM     24  O   UNL     1      -0.430  12.954  18.208  0.00  0.00    +0.000 OA
ATOM     25  C   UNL     1       0.771  12.879  18.985  0.00  0.00    +0.000 C 
ATOM     26  C   UNL     1       0.452  12.421  20.414  0.00  0.00    +0.000 C 
ENDBRANCH  20  21
ENDBRANCH  18  20
ENDBRANCH  16  18
ENDBRANCH   1  16
TORSDOF 7
ENDMDL
MODEL 5
REMARK VINA RESULT:      -6.7      2.319      4.733
REMARK  Name = 
REMARK  9 active torsions:
REMARK  status: ('A' for Active; 'I' for Inactive)
REMARK    1  A    between atoms: C_1  and  C_2
REMARK    2  A    between atoms: C_2  and  C_3
REMARK    3  A    between atoms: C_2  and  C_4
REMARK    4  A    between atoms: C_2  and  C_19
REMARK    5  A    between atoms: C_4  and  N_5
REMARK    6  A    between atoms: N_5  and  C_6
REMARK    7  A    between atoms: N_10  and  C_11
REMARK    8  A    between atoms: C_11  and  C_12
REMARK    9  A    between atoms: C_19  and  N_20
REMARK                            x       y       z     vdW  Elec       q    Type
REMARK                         _______ _______ _______ _____ _____    ______ ____
ROOT
ATOM      1  N   UNL     1       3.026   7.554  17.520  0.00  0.00    +0.000 NA
ATOM      2  H   UNL     1       3.175   8.361  16.914  0.00  0.00    +0.000 HD
ENDROOT
BRANCH   1   3
ATOM      3  C   UNL     1       4.347   7.039  17.962  0.00  0.00    +0.000 C 
ATOM      4  C   UNL     1       5.378   7.122  16.824  0.00  0.00    +0.000 C 
ATOM      5  C   UNL     1       5.157   6.048  15.759  0.00  0.00    +0.000 C 
ATOM      6  C   UNL     1       4.986   4.642  16.354  0.00  0.00    +0.000 C 
ATOM      7  N   UNL     1       3.972   4.603  17.421  0.00  0.00    +0.000 NA
ATOM      8  C   UNL     1       4.327   5.575  18.476  0.00  0.00    +0.000 C 
BRANCH   7   9
ATOM      9  C   UNL     1       3.866   3.260  18.030  0.00  0.00    +0.000 C 
BRANCH   9  10
ATOM     10  C   UNL     1       2.958   3.151  19.243  0.00  0.00    +0.000 A 
ATOM     11  C   UNL     1       3.446   2.683  20.460  0.00  0.00    +0.000 A 
ATOM     12  C   UNL     1       2.564   2.550  21.530  0.00  0.00    +0.000 A 
ATOM     13  C   UNL     1       1.223   2.876  21.352  0.00  0.00    +0.000 A 
ATOM     14  C   UNL     1       0.818   3.339  20.112  0.00  0.00    +0.000 A 
ATOM     15  N   UNL     1       1.647   3.479  19.056  0.00  0.00    +0.000 NA
ENDBRANCH   9  10
ENDBRANCH   7   9
ENDBRANCH   1   3
BRANCH   1  16
ATOM     16  C   UNL     1       2.209   7.959  18.677  0.00  0.00    +0.000 C 
BRANCH  16  18
ATOM     17  C   UNL     1       2.385  10.379  17.846  0.00  0.00    +0.000 C 
ATOM     18  C   UNL     1       1.520   9.347  18.589  0.00  0.00    +0.000 C 
ATOM     19  C   UNL     1       0.197   9.230  17.792  0.00  0.00    +0.000 C 
BRANCH  18  20
ATOM     20  C   UNL     1       1.145   9.797  20.051  0.00  0.00    +0.000 C 
BRANCH  20  21
ATOM     21  N   UNL     1      -0.244   9.604  20.535  0.00  0.00    +0.000 NA
ATOM     22  C   UNL     1      -0.877  10.913  20.856  0.00  0.00    +0.000 C 
ATOM     23  C   UNL     1      -0.342  11.569  22.148  0.00  0.00    +0.000 C 
ATOM     24  O   UNL     1      -0.406  10.686  23.276  0.00  0.00    +0.000 OA
ATOM     25  C   UNL     1       0.239   9.437  22.997  0.00  0.00    +0.000 C 
ATOM     26  C   UNL     1      -0.382   8.784  21.755  0.00  0.00    +0.000 C 
ENDBRANCH  20  21
ENDBRANCH  18  20
ENDBRANCH  16  18
ENDBRANCH   1  16
TORSDOF 7
ENDMDL
MODEL 6
REMARK VINA RESULT:      -6.5      3.148      8.551
REMARK  Name = 
REMARK  9 active torsions:
REMARK  status: ('A' for Active; 'I' for Inactive)
REMARK    1  A    between atoms: C_1  and  C_2
REMARK    2  A    between atoms: C_2  and  C_3
REMARK    3  A    between atoms: C_2  and  C_4
REMARK    4  A    between atoms: C_2  and  C_19
REMARK    5  A    between atoms: C_4  and  N_5
REMARK    6  A    between atoms: N_5  and  C_6
REMARK    7  A    between atoms: N_10  and  C_11
REMARK    8  A    between atoms: C_11  and  C_12
REMARK    9  A    between atoms: C_19  and  N_20
REMARK                            x       y       z     vdW  Elec       q    Type
REMARK                         _______ _______ _______ _____ _____    ______ ____
ROOT
ATOM      1  N   UNL     1       1.523   7.400  18.960  0.00  0.00    +0.000 NA
ATOM      2  H   UNL     1       1.051   6.713  19.547  0.00  0.00    +0.000 HD
ENDROOT
BRANCH   1   3
ATOM      3  C   UNL     1       1.855   8.588  19.787  0.00  0.00    +0.000 C 
ATOM      4  C   UNL     1       1.381   8.398  21.237  0.00  0.00    +0.000 C 
ATOM      5  C   UNL     1      -0.133   8.548  21.379  0.00  0.00    +0.000 C 
ATOM      6  C   UNL     1      -0.675   9.814  20.699  0.00  0.00    +0.000 C 
ATOM      7  N   UNL     1      -0.218   9.943  19.306  0.00  0.00    +0.000 NA
ATOM      8  C   UNL     1       1.259   9.922  19.266  0.00  0.00    +0.000 C 
BRANCH   7   9
ATOM      9  C   UNL     1      -0.692  11.199  18.686  0.00  0.00    +0.000 C 
BRANCH   9  10
ATOM     10  C   UNL     1      -2.073  11.148  18.056  0.00  0.00    +0.000 A 
ATOM     11  C   UNL     1      -2.272  10.534  16.822  0.00  0.00    +0.000 A 
ATOM     12  C   UNL     1      -3.545  10.558  16.258  0.00  0.00    +0.000 A 
ATOM     13  C   UNL     1      -4.578  11.202  16.933  0.00  0.00    +0.000 A 
ATOM     14  C   UNL     1      -4.299  11.784  18.157  0.00  0.00    +0.000 A 
ATOM     15  N   UNL     1      -3.077  11.778  18.731  0.00  0.00    +0.000 NA
ENDBRANCH   9  10
ENDBRANCH   7   9
ENDBRANCH   1   3
BRANCH   1  16
ATOM     16  C   UNL     1       2.741   6.800  18.390  0.00  0.00    +0.000 C 
BRANCH  16  18
ATOM     17  C   UNL     1       2.615   4.964  20.176  0.00  0.00    +0.000 C 
ATOM     18  C   UNL     1       3.005   5.309  18.729  0.00  0.00    +0.000 C 
ATOM     19  C   UNL     1       2.144   4.401  17.815  0.00  0.00    +0.000 C 
BRANCH  18  20
ATOM     20  C   UNL     1       4.514   4.996  18.407  0.00  0.00    +0.000 C 
BRANCH  20  21
ATOM     21  N   UNL     1       5.285   5.939  17.560  0.00  0.00    +0.000 NA
ATOM     22  C   UNL     1       5.345   5.455  16.152  0.00  0.00    +0.000 C 
ATOM     23  C   UNL     1       6.279   4.244  15.944  0.00  0.00    +0.000 C 
ATOM     24  O   UNL     1       7.599   4.478  16.455  0.00  0.00    +0.000 OA
ATOM     25  C   UNL     1       7.560   4.902  17.823  0.00  0.00    +0.000 C 
ATOM     26  C   UNL     1       6.688   6.155  17.967  0.00  0.00    +0.000 C 
ENDBRANCH  20  21
ENDBRANCH  18  20
ENDBRANCH  16  18
ENDBRANCH   1  16
TORSDOF 7
ENDMDL
MODEL 7
REMARK VINA RESULT:      -6.5      2.921      8.353
REMARK  Name = 
REMARK  9 active torsions:
REMARK  status: ('A' for Active; 'I' for Inactive)
REMARK    1  A    between atoms: C_1  and  C_2
REMARK    2  A    between atoms: C_2  and  C_3
REMARK    3  A    between atoms: C_2  and  C_4
REMARK    4  A    between atoms: C_2  and  C_19
REMARK    5  A    between atoms: C_4  and  N_5
REMARK    6  A    between atoms: N_5  and  C_6
REMARK    7  A    between atoms: N_10  and  C_11
REMARK    8  A    between atoms: C_11  and  C_12
REMARK    9  A    between atoms: C_19  and  N_20
REMARK                            x       y       z     vdW  Elec       q    Type
REMARK                         _______ _______ _______ _____ _____    ______ ____
ROOT
ATOM      1  N   UNL     1       1.380   7.739  20.418  0.00  0.00    +0.000 NA
ATOM      2  H   UNL     1       1.529   7.007  21.113  0.00  0.00    +0.000 HD
ENDROOT
BRANCH   1   3
ATOM      3  C   UNL     1       1.691   9.054  21.034  0.00  0.00    +0.000 C 
ATOM      4  C   UNL     1       1.230   9.097  22.500  0.00  0.00    +0.000 C 
ATOM      5  C   UNL     1      -0.287   9.237  22.629  0.00  0.00    +0.000 C 
ATOM      6  C   UNL     1      -0.860  10.362  21.754  0.00  0.00    +0.000 C 
ATOM      7  N   UNL     1      -0.415  10.267  20.354  0.00  0.00    +0.000 NA
ATOM      8  C   UNL     1       1.063  10.271  20.305  0.00  0.00    +0.000 C 
BRANCH   7   9
ATOM      9  C   UNL     1      -0.919  11.394  19.540  0.00  0.00    +0.000 C 
BRANCH   9  10
ATOM     10  C   UNL     1      -1.906  11.029  18.444  0.00  0.00    +0.000 A 
ATOM     11  C   UNL     1      -1.572  10.097  17.464  0.00  0.00    +0.000 A 
ATOM     12  C   UNL     1      -2.489   9.834  16.449  0.00  0.00    +0.000 A 
ATOM     13  C   UNL     1      -3.703  10.514  16.433  0.00  0.00    +0.000 A 
ATOM     14  C   UNL     1      -3.960  11.422  17.445  0.00  0.00    +0.000 A 
ATOM     15  N   UNL     1      -3.094  11.699  18.444  0.00  0.00    +0.000 NA
ENDBRANCH   9  10
ENDBRANCH   7   9
ENDBRANCH   1   3
BRANCH   1  16
ATOM     16  C   UNL     1       2.245   7.489  19.253  0.00  0.00    +0.000 C 
BRANCH  16  18
ATOM     17  C   UNL     1       2.611   5.199  20.351  0.00  0.00    +0.000 C 
ATOM     18  C   UNL     1       2.758   6.036  19.068  0.00  0.00    +0.000 C 
ATOM     19  C   UNL     1       1.923   5.317  17.978  0.00  0.00    +0.000 C 
BRANCH  18  20
ATOM     20  C   UNL     1       4.242   6.106  18.546  0.00  0.00    +0.000 C 
BRANCH  20  21
ATOM     21  N   UNL     1       5.142   4.947  18.761  0.00  0.00    +0.000 NA
ATOM     22  C   UNL     1       6.465   5.395  19.278  0.00  0.00    +0.000 C 
ATOM     23  C   UNL     1       7.347   6.095  18.222  0.00  0.00    +0.000 C 
ATOM     24  O   UNL     1       7.509   5.306  17.035  0.00  0.00    +0.000 OA
ATOM     25  C   UNL     1       6.242   4.903  16.501  0.00  0.00    +0.000 C 
ATOM     26  C   UNL     1       5.436   4.141  17.559  0.00  0.00    +0.000 C 
ENDBRANCH  20  21
ENDBRANCH  18  20
ENDBRANCH  16  18
ENDBRANCH   1  16
TORSDOF 7
ENDMDL
MODEL 8
REMARK VINA RESULT:      -6.4      2.157      4.595
REMARK  Name = 
REMARK  9 active torsions:
REMARK  status: ('A' for Active; 'I' for Inactive)
REMARK    1  A    between atoms: C_1  and  C_2
REMARK    2  A    between atoms: C_2  and  C_3
REMARK    3  A    between atoms: C_2  and  C_4
REMARK    4  A    between atoms: C_2  and  C_19
REMARK    5  A    between atoms: C_4  and  N_5
REMARK    6  A    between atoms: N_5  and  C_6
REMARK    7  A    between atoms: N_10  and  C_11
REMARK    8  A    between atoms: C_11  and  C_12
REMARK    9  A    between atoms: C_19  and  N_20
REMARK                            x       y       z     vdW  Elec       q    Type
REMARK                         _______ _______ _______ _____ _____    ______ ____
ROOT
ATOM      1  N   UNL     1       4.295   6.842  16.958  0.00  0.00    +0.000 NA
ATOM      2  H   UNL     1       4.552   7.460  16.188  0.00  0.00    +0.000 HD
ENDROOT
BRANCH   1   3
ATOM      3  C   UNL     1       5.486   6.044  17.347  0.00  0.00    +0.000 C 
ATOM      4  C   UNL     1       6.391   5.778  16.134  0.00  0.00    +0.000 C 
ATOM      5  C   UNL     1       5.812   4.717  15.197  0.00  0.00    +0.000 C 
ATOM      6  C   UNL     1       5.360   3.450  15.937  0.00  0.00    +0.000 C 
ATOM      7  N   UNL     1       4.475   3.748  17.075  0.00  0.00    +0.000 NA
ATOM      8  C   UNL     1       5.158   4.676  18.001  0.00  0.00    +0.000 C 
BRANCH   7   9
ATOM      9  C   UNL     1       4.103   2.525  17.817  0.00  0.00    +0.000 C 
BRANCH   9  10
ATOM     10  C   UNL     1       3.053   2.701  18.901  0.00  0.00    +0.000 A 
ATOM     11  C   UNL     1       1.725   2.963  18.573  0.00  0.00    +0.000 A 
ATOM     12  C   UNL     1       0.808   3.170  19.600  0.00  0.00    +0.000 A 
ATOM     13  C   UNL     1       1.242   3.122  20.921  0.00  0.00    +0.000 A 
ATOM     14  C   UNL     1       2.577   2.851  21.164  0.00  0.00    +0.000 A 
ATOM     15  N   UNL     1       3.491   2.645  20.191  0.00  0.00    +0.000 NA
ENDBRANCH   9  10
ENDBRANCH   7   9
ENDBRANCH   1   3
BRANCH   1  16
ATOM     16  C   UNL     1       3.811   7.649  18.090  0.00  0.00    +0.000 C 
BRANCH  16  18
ATOM     17  C   UNL     1       1.608   6.393  17.707  0.00  0.00    +0.000 C 
ATOM     18  C   UNL     1       2.425   7.267  18.674  0.00  0.00    +0.000 C 
ATOM     19  C   UNL     1       2.609   6.433  19.967  0.00  0.00    +0.000 C 
BRANCH  18  20
ATOM     20  C   UNL     1       1.684   8.596  19.079  0.00  0.00    +0.000 C 
BRANCH  20  21
ATOM     21  N   UNL     1       1.259   9.541  18.017  0.00  0.00    +0.000 NA
ATOM     22  C   UNL     1       1.885  10.877  18.219  0.00  0.00    +0.000 C 
ATOM     23  C   UNL     1       1.291  11.676  19.399  0.00  0.00    +0.000 C 
ATOM     24  O   UNL     1      -0.136  11.794  19.316  0.00  0.00    +0.000 OA
ATOM     25  C   UNL     1      -0.756  10.511  19.165  0.00  0.00    +0.000 C 
ATOM     26  C   UNL     1      -0.194   9.790  17.934  0.00  0.00    +0.000 C 
ENDBRANCH  20  21
ENDBRANCH  18  20
ENDBRANCH  16  18
ENDBRANCH   1  16
TORSDOF 7
ENDMDL
MODEL 9
REMARK VINA RESULT:      -6.4      3.129      5.459
REMARK  Name = 
REMARK  9 active torsions:
REMARK  status: ('A' for Active; 'I' for Inactive)
REMARK    1  A    between atoms: C_1  and  C_2
REMARK    2  A    between atoms: C_2  and  C_3
REMARK    3  A    between atoms: C_2  and  C_4
REMARK    4  A    between atoms: C_2  and  C_19
REMARK    5  A    between atoms: C_4  and  N_5
REMARK    6  A    between atoms: N_5  and  C_6
REMARK    7  A    between atoms: N_10  and  C_11
REMARK    8  A    between atoms: C_11  and  C_12
REMARK    9  A    between atoms: C_19  and  N_20
REMARK                            x       y       z     vdW  Elec       q    Type
REMARK                         _______ _______ _______ _____ _____    ______ ____
ROOT
ATOM      1  N   UNL     1      -0.552  10.028  19.928  0.00  0.00    +0.000 NA
ATOM      2  H   UNL     1      -0.794  10.041  18.936  0.00  0.00    +0.000 HD
ENDROOT
BRANCH   1   3
ATOM      3  C   UNL     1       0.912  10.233  20.066  0.00  0.00    +0.000 C 
ATOM      4  C   UNL     1       1.533  10.679  18.732  0.00  0.00    +0.000 C 
ATOM      5  C   UNL     1       1.646   9.532  17.729  0.00  0.00    +0.000 C 
ATOM      6  C   UNL     1       2.285   8.272  18.331  0.00  0.00    +0.000 C 
ATOM      7  N   UNL     1       1.644   7.865  19.592  0.00  0.00    +0.000 NA
ATOM      8  C   UNL     1       1.693   8.984  20.556  0.00  0.00    +0.000 C 
BRANCH   7   9
ATOM      9  C   UNL     1       2.312   6.691  20.195  0.00  0.00    +0.000 C 
BRANCH   9  10
ATOM     10  C   UNL     1       1.901   5.337  19.642  0.00  0.00    +0.000 A 
ATOM     11  C   UNL     1       2.156   5.001  18.315  0.00  0.00    +0.000 A 
ATOM     12  C   UNL     1       1.713   3.770  17.838  0.00  0.00    +0.000 A 
ATOM     13  C   UNL     1       1.020   2.917  18.692  0.00  0.00    +0.000 A 
ATOM     14  C   UNL     1       0.810   3.324  19.997  0.00  0.00    +0.000 A 
ATOM     15  N   UNL     1       1.227   4.510  20.491  0.00  0.00    +0.000 NA
ENDBRANCH   9  10
ENDBRANCH   7   9
ENDBRANCH   1   3
BRANCH   1  16
ATOM     16  C   UNL     1      -1.298  11.089  20.624  0.00  0.00    +0.000 C 
BRANCH  16  18
ATOM     17  C   UNL     1      -3.185  12.793  20.286  0.00  0.00    +0.000 C 
ATOM     18  C   UNL     1      -1.856  12.239  19.744  0.00  0.00    +0.000 C 
ATOM     19  C   UNL     1      -0.860  13.426  19.733  0.00  0.00    +0.000 C 
BRANCH  18  20
ATOM     20  C   UNL     1      -1.967  11.710  18.265  0.00  0.00    +0.000 C 
BRANCH  20  21
ATOM     21  N   UNL     1      -2.685  10.439  18.001  0.00  0.00    +0.000 NA
ATOM     22  C   UNL     1      -2.215   9.823  16.729  0.00  0.00    +0.000 C 
ATOM     23  C   UNL     1      -2.704  10.555  15.460  0.00  0.00    +0.000 C 
ATOM     24  O   UNL     1      -4.128  10.728  15.443  0.00  0.00    +0.000 OA
ATOM     25  C   UNL     1      -4.589  11.360  16.643  0.00  0.00    +0.000 C 
ATOM     26  C   UNL     1      -4.151  10.554  17.872  0.00  0.00    +0.000 C 
ENDBRANCH  20  21
ENDBRANCH  18  20
ENDBRANCH  16  18
ENDBRANCH   1  16
TORSDOF 7
ENDMDL
