MODEL 1
REMARK VINA RESULT:      -8.2      0.000      0.000
REMARK  Name = 
REMARK  11 active torsions:
REMARK  status: ('A' for Active; 'I' for Inactive)
REMARK    1  A    between atoms: C_2  and  C_3
REMARK    2  A    between atoms: C_3  and  C_4
REMARK    3  A    between atoms: C_4  and  C_5
REMARK    4  A    between atoms: C_5  and  C_6
REMARK    5  A    between atoms: C_6  and  C_7
REMARK    6  A    between atoms: C_7  and  C_8
REMARK    7  A    between atoms: C_8  and  N_9
REMARK    8  A    between atoms: C_8  and  C_18
REMARK    9  A    between atoms: C_10  and  C_12
REMARK   10  A    between atoms: N_20  and  C_21
REMARK   11  A    between atoms: N_27  and  O_28
REMARK                            x       y       z     vdW  Elec       q    Type
REMARK                         _______ _______ _______ _____ _____    ______ ____
ROOT
ATOM      1  C   UNL     1       5.343   6.684  17.289  0.00  0.00    +0.000 C 
ENDROOT
BRANCH   1   2
ATOM      2  N   UNL     1       4.433   5.724  17.906  0.00  0.00    +0.000 N 
ATOM      3  C   UNL     1       3.159   6.048  18.303  0.00  0.00    +0.000 C 
ATOM      4  O   UNL     1       2.697   7.176  18.178  0.00  0.00    +0.000 OA
ATOM      5  H   UNL     1       4.709   4.755  17.885  0.00  0.00    +0.000 HD
BRANCH   3   6
ATOM      6  C   UNL     1       2.379   4.949  18.954  0.00  0.00    +0.000 A 
ATOM      7  C   UNL     1       1.904   3.913  18.141  0.00  0.00    +0.000 A 
ATOM      8  C   UNL     1       1.118   2.893  18.684  0.00  0.00    +0.000 A 
ATOM      9  C   UNL     1       0.808   2.899  20.043  0.00  0.00    +0.000 A 
ATOM     10  C   UNL     1       1.292   3.916  20.865  0.00  0.00    +0.000 A 
ATOM     11  C   UNL     1       2.081   4.937  20.325  0.00  0.00    +0.000 A 
ENDBRANCH   3   6
ENDBRANCH   1   2
BRANCH   1  12
ATOM     12  C   UNL     1       5.475   6.336  15.790  0.00  0.00    +0.000 C 
ATOM     13  O   UNL     1       4.989   7.070  14.930  0.00  0.00    +0.000 OA
ATOM     14  N   UNL     1       6.244   5.222  15.504  0.00  0.00    +0.000 N 
ATOM     15  H   UNL     1       6.709   4.770  16.287  0.00  0.00    +0.000 HD
BRANCH  14  16
ATOM     16  C   UNL     1       6.457   4.684  14.211  0.00  0.00    +0.000 A 
ATOM     17  C   UNL     1       7.485   5.102  13.353  0.00  0.00    +0.000 A 
ATOM     18  C   UNL     1       7.632   4.560  12.075  0.00  0.00    +0.000 A 
ATOM     19  C   UNL     1       6.746   3.589  11.632  0.00  0.00    +0.000 A 
ATOM     20  C   UNL     1       5.719   3.155  12.471  0.00  0.00    +0.000 A 
ATOM     21  C   UNL     1       5.579   3.695  13.756  0.00  0.00    +0.000 A 
ENDBRANCH  14  16
ENDBRANCH   1  12
BRANCH   1  22
ATOM     22  C   UNL     1       6.714   6.667  18.020  0.00  0.00    +0.000 C 
BRANCH  22  23
ATOM     23  C   UNL     1       7.732   7.681  17.477  0.00  0.00    +0.000 C 
BRANCH  23  24
ATOM     24  C   UNL     1       8.556   8.410  18.532  0.00  0.00    +0.000 C 
BRANCH  24  25
ATOM     25  C   UNL     1       8.429   9.914  18.260  0.00  0.00    +0.000 C 
BRANCH  25  26
ATOM     26  C   UNL     1       9.679  10.688  18.636  0.00  0.00    +0.000 C 
BRANCH  26  28
ATOM     27  O   UNL     1       9.281  12.791  19.806  0.00  0.00    +0.000 OA
ATOM     28  C   UNL     1       9.439  11.574  19.843  0.00  0.00    +0.000 C 
ATOM     29  N   UNL     1       9.425  10.874  21.024  0.00  0.00    +0.000 N 
ATOM     30  H   UNL     1       9.691   9.901  21.124  0.00  0.00    +0.000 HD
BRANCH  29  31
ATOM     31  O   UNL     1       9.280  11.633  22.204  0.00  0.00    +0.000 OA
ATOM     32  H   UNL     1       9.568  12.528  21.915  0.00  0.00    +0.000 HD
ENDBRANCH  29  31
ENDBRANCH  26  28
ENDBRANCH  25  26
ENDBRANCH  24  25
ENDBRANCH  23  24
ENDBRANCH  22  23
ENDBRANCH   1  22
TORSDOF 11
ENDMDL
MODEL 2
REMARK VINA RESULT:      -8.1      1.099      5.938
REMARK  Name = 
REMARK  11 active torsions:
REMARK  status: ('A' for Active; 'I' for Inactive)
REMARK    1  A    between atoms: C_2  and  C_3
REMARK    2  A    between atoms: C_3  and  C_4
REMARK    3  A    between atoms: C_4  and  C_5
REMARK    4  A    between atoms: C_5  and  C_6
REMARK    5  A    between atoms: C_6  and  C_7
REMARK    6  A    between atoms: C_7  and  C_8
REMARK    7  A    between atoms: C_8  and  N_9
REMARK    8  A    between atoms: C_8  and  C_18
REMARK    9  A    between atoms: C_10  and  C_12
REMARK   10  A    between atoms: N_20  and  C_21
REMARK   11  A    between atoms: N_27  and  O_28
REMARK                            x       y       z     vdW  Elec       q    Type
REMARK                         _______ _______ _______ _____ _____    ______ ____
ROOT
ATOM      1  C   UNL     1       6.052   6.354  17.378  0.00  0.00    +0.000 C 
ENDROOT
BRANCH   1   2
ATOM      2  N   UNL     1       6.087   5.834  16.015  0.00  0.00    +0.000 N 
ATOM      3  C   UNL     1       7.002   4.903  15.591  0.00  0.00    +0.000 C 
ATOM      4  O   UNL     1       7.869   4.447  16.329  0.00  0.00    +0.000 OA
ATOM      5  H   UNL     1       5.303   6.057  15.422  0.00  0.00    +0.000 HD
BRANCH   3   6
ATOM      6  C   UNL     1       6.916   4.512  14.149  0.00  0.00    +0.000 A 
ATOM      7  C   UNL     1       7.754   5.168  13.240  0.00  0.00    +0.000 A 
ATOM      8  C   UNL     1       7.674   4.887  11.874  0.00  0.00    +0.000 A 
ATOM      9  C   UNL     1       6.759   3.943  11.408  0.00  0.00    +0.000 A 
ATOM     10  C   UNL     1       5.933   3.270  12.307  0.00  0.00    +0.000 A 
ATOM     11  C   UNL     1       6.013   3.547  13.675  0.00  0.00    +0.000 A 
ENDBRANCH   3   6
ENDBRANCH   1   2
BRANCH   1  12
ATOM     12  C   UNL     1       4.634   6.134  17.948  0.00  0.00    +0.000 C 
ATOM     13  O   UNL     1       3.800   7.038  17.923  0.00  0.00    +0.000 OA
ATOM     14  N   UNL     1       4.361   4.849  18.382  0.00  0.00    +0.000 N 
ATOM     15  H   UNL     1       5.081   4.147  18.230  0.00  0.00    +0.000 HD
BRANCH  14  16
ATOM     16  C   UNL     1       3.151   4.429  18.990  0.00  0.00    +0.000 A 
ATOM     17  C   UNL     1       2.783   4.760  20.301  0.00  0.00    +0.000 A 
ATOM     18  C   UNL     1       1.593   4.293  20.862  0.00  0.00    +0.000 A 
ATOM     19  C   UNL     1       0.750   3.481  20.116  0.00  0.00    +0.000 A 
ATOM     20  C   UNL     1       1.096   3.143  18.808  0.00  0.00    +0.000 A 
ATOM     21  C   UNL     1       2.287   3.620  18.244  0.00  0.00    +0.000 A 
ENDBRANCH  14  16
ENDBRANCH   1  12
BRANCH   1  22
ATOM     22  C   UNL     1       6.466   7.851  17.391  0.00  0.00    +0.000 C 
BRANCH  22  23
ATOM     23  C   UNL     1       7.900   8.106  17.882  0.00  0.00    +0.000 C 
BRANCH  23  24
ATOM     24  C   UNL     1       8.317   9.570  17.948  0.00  0.00    +0.000 C 
BRANCH  24  25
ATOM     25  C   UNL     1       9.234   9.735  19.167  0.00  0.00    +0.000 C 
BRANCH  25  26
ATOM     26  C   UNL     1      10.006  11.041  19.151  0.00  0.00    +0.000 C 
BRANCH  26  28
ATOM     27  O   UNL     1      10.036  13.019  20.578  0.00  0.00    +0.000 OA
ATOM     28  C   UNL     1       9.794  11.825  20.432  0.00  0.00    +0.000 C 
ATOM     29  N   UNL     1       9.302  11.052  21.455  0.00  0.00    +0.000 N 
ATOM     30  H   UNL     1       9.221  10.043  21.430  0.00  0.00    +0.000 HD
BRANCH  29  31
ATOM     31  O   UNL     1       9.144  11.687  22.704  0.00  0.00    +0.000 OA
ATOM     32  H   UNL     1      10.011  12.135  22.823  0.00  0.00    +0.000 HD
ENDBRANCH  29  31
ENDBRANCH  26  28
ENDBRANCH  25  26
ENDBRANCH  24  25
ENDBRANCH  23  24
ENDBRANCH  22  23
ENDBRANCH   1  22
TORSDOF 11
ENDMDL
MODEL 3
REMARK VINA RESULT:      -8.1      1.020      1.784
REMARK  Name = 
REMARK  11 active torsions:
REMARK  status: ('A' for Active; 'I' for Inactive)
REMARK    1  A    between atoms: C_2  and  C_3
REMARK    2  A    between atoms: C_3  and  C_4
REMARK    3  A    between atoms: C_4  and  C_5
REMARK    4  A    between atoms: C_5  and  C_6
REMARK    5  A    between atoms: C_6  and  C_7
REMARK    6  A    between atoms: C_7  and  C_8
REMARK    7  A    between atoms: C_8  and  N_9
REMARK    8  A    between atoms: C_8  and  C_18
REMARK    9  A    between atoms: C_10  and  C_12
REMARK   10  A    between atoms: N_20  and  C_21
REMARK   11  A    between atoms: N_27  and  O_28
REMARK                            x       y       z     vdW  Elec       q    Type
REMARK                         _______ _______ _______ _____ _____    ______ ____
ROOT
ATOM      1  C   UNL     1       5.873   6.301  17.783  0.00  0.00    +0.000 C 
ENDROOT
BRANCH   1   2
ATOM      2  N   UNL     1       4.950   5.355  18.403  0.00  0.00    +0.000 N 
ATOM      3  C   UNL     1       3.623   5.634  18.617  0.00  0.00    +0.000 C 
ATOM      4  O   UNL     1       3.118   6.710  18.313  0.00  0.00    +0.000 OA
ATOM      5  H   UNL     1       5.278   4.410  18.524  0.00  0.00    +0.000 HD
BRANCH   3   6
ATOM      6  C   UNL     1       2.832   4.563  19.300  0.00  0.00    +0.000 A 
ATOM      7  C   UNL     1       2.507   4.747  20.649  0.00  0.00    +0.000 A 
ATOM      8  C   UNL     1       1.823   3.753  21.353  0.00  0.00    +0.000 A 
ATOM      9  C   UNL     1       1.454   2.571  20.712  0.00  0.00    +0.000 A 
ATOM     10  C   UNL     1       1.756   2.386  19.364  0.00  0.00    +0.000 A 
ATOM     11  C   UNL     1       2.438   3.380  18.656  0.00  0.00    +0.000 A 
ENDBRANCH   3   6
ENDBRANCH   1   2
BRANCH   1  12
ATOM     12  C   UNL     1       5.815   6.106  16.252  0.00  0.00    +0.000 C 
ATOM     13  O   UNL     1       5.170   6.878  15.545  0.00  0.00    +0.000 OA
ATOM     14  N   UNL     1       6.604   5.084  15.754  0.00  0.00    +0.000 N 
ATOM     15  H   UNL     1       7.201   4.597  16.417  0.00  0.00    +0.000 HD
BRANCH  14  16
ATOM     16  C   UNL     1       6.668   4.687  14.395  0.00  0.00    +0.000 A 
ATOM     17  C   UNL     1       5.836   3.712  13.828  0.00  0.00    +0.000 A 
ATOM     18  C   UNL     1       5.962   3.335  12.490  0.00  0.00    +0.000 A 
ATOM     19  C   UNL     1       6.930   3.931  11.694  0.00  0.00    +0.000 A 
ATOM     20  C   UNL     1       7.765   4.907  12.237  0.00  0.00    +0.000 A 
ATOM     21  C   UNL     1       7.631   5.289  13.578  0.00  0.00    +0.000 A 
ENDBRANCH  14  16
ENDBRANCH   1  12
BRANCH   1  22
ATOM     22  C   UNL     1       7.305   6.098  18.349  0.00  0.00    +0.000 C 
BRANCH  22  23
ATOM     23  C   UNL     1       8.129   7.390  18.462  0.00  0.00    +0.000 C 
BRANCH  23  24
ATOM     24  C   UNL     1       7.692   8.527  17.545  0.00  0.00    +0.000 C 
BRANCH  24  25
ATOM     25  C   UNL     1       8.543   9.755  17.894  0.00  0.00    +0.000 C 
BRANCH  25  26
ATOM     26  C   UNL     1       9.065   9.725  19.318  0.00  0.00    +0.000 C 
BRANCH  26  28
ATOM     27  O   UNL     1      10.078  11.429  20.739  0.00  0.00    +0.000 OA
ATOM     28  C   UNL     1       9.913  10.945  19.623  0.00  0.00    +0.000 C 
ATOM     29  N   UNL     1      10.491  11.486  18.502  0.00  0.00    +0.000 N 
ATOM     30  H   UNL     1      10.275  11.214  17.550  0.00  0.00    +0.000 HD
BRANCH  29  31
ATOM     31  O   UNL     1      11.239  12.667  18.687  0.00  0.00    +0.000 OA
ATOM     32  H   UNL     1      11.794  12.693  17.877  0.00  0.00    +0.000 HD
ENDBRANCH  29  31
ENDBRANCH  26  28
ENDBRANCH  25  26
ENDBRANCH  24  25
ENDBRANCH  23  24
ENDBRANCH  22  23
ENDBRANCH   1  22
TORSDOF 11
ENDMDL
MODEL 4
REMARK VINA RESULT:      -8.1      0.717      1.173
REMARK  Name = 
REMARK  11 active torsions:
REMARK  status: ('A' for Active; 'I' for Inactive)
REMARK    1  A    between atoms: C_2  and  C_3
REMARK    2  A    between atoms: C_3  and  C_4
REMARK    3  A    between atoms: C_4  and  C_5
REMARK    4  A    between atoms: C_5  and  C_6
REMARK    5  A    between atoms: C_6  and  C_7
REMARK    6  A    between atoms: C_7  and  C_8
REMARK    7  A    between atoms: C_8  and  N_9
REMARK    8  A    between atoms: C_8  and  C_18
REMARK    9  A    between atoms: C_10  and  C_12
REMARK   10  A    between atoms: N_20  and  C_21
REMARK   11  A    between atoms: N_27  and  O_28
REMARK                            x       y       z     vdW  Elec       q    Type
REMARK                         _______ _______ _______ _____ _____    ______ ____
ROOT
ATOM      1  C   UNL     1       5.400   6.475  17.443  0.00  0.00    +0.000 C 
ENDROOT
BRANCH   1   2
ATOM      2  N   UNL     1       4.392   5.548  17.945  0.00  0.00    +0.000 N 
ATOM      3  C   UNL     1       3.160   5.952  18.398  0.00  0.00    +0.000 C 
ATOM      4  O   UNL     1       2.822   7.130  18.423  0.00  0.00    +0.000 OA
ATOM      5  H   UNL     1       4.562   4.565  17.796  0.00  0.00    +0.000 HD
BRANCH   3   6
ATOM      6  C   UNL     1       2.266   4.869  18.914  0.00  0.00    +0.000 A 
ATOM      7  C   UNL     1       1.939   4.881  20.275  0.00  0.00    +0.000 A 
ATOM      8  C   UNL     1       1.158   3.861  20.823  0.00  0.00    +0.000 A 
ATOM      9  C   UNL     1       0.693   2.825  20.014  0.00  0.00    +0.000 A 
ATOM     10  C   UNL     1       0.996   2.814  18.653  0.00  0.00    +0.000 A 
ATOM     11  C   UNL     1       1.777   3.835  18.101  0.00  0.00    +0.000 A 
ENDBRANCH   3   6
ENDBRANCH   1   2
BRANCH   1  12
ATOM     12  C   UNL     1       5.561   6.245  15.924  0.00  0.00    +0.000 C 
ATOM     13  O   UNL     1       5.081   7.037  15.114  0.00  0.00    +0.000 OA
ATOM     14  N   UNL     1       6.347   5.164  15.568  0.00  0.00    +0.000 N 
ATOM     15  H   UNL     1       6.805   4.658  16.322  0.00  0.00    +0.000 HD
BRANCH  14  16
ATOM     16  C   UNL     1       6.589   4.728  14.241  0.00  0.00    +0.000 A 
ATOM     17  C   UNL     1       7.572   5.279  13.407  0.00  0.00    +0.000 A 
ATOM     18  C   UNL     1       7.748   4.834  12.096  0.00  0.00    +0.000 A 
ATOM     19  C   UNL     1       6.936   3.826  11.595  0.00  0.00    +0.000 A 
ATOM     20  C   UNL     1       5.955   3.261  12.410  0.00  0.00    +0.000 A 
ATOM     21  C   UNL     1       5.786   3.704  13.728  0.00  0.00    +0.000 A 
ENDBRANCH  14  16
ENDBRANCH   1  12
BRANCH   1  22
ATOM     22  C   UNL     1       6.735   6.282  18.212  0.00  0.00    +0.000 C 
BRANCH  22  23
ATOM     23  C   UNL     1       7.877   7.192  17.735  0.00  0.00    +0.000 C 
BRANCH  23  24
ATOM     24  C   UNL     1       7.554   8.681  17.692  0.00  0.00    +0.000 C 
BRANCH  24  25
ATOM     25  C   UNL     1       8.661   9.417  18.457  0.00  0.00    +0.000 C 
BRANCH  25  26
ATOM     26  C   UNL     1       8.864  10.841  17.974  0.00  0.00    +0.000 C 
BRANCH  26  28
ATOM     27  O   UNL     1       9.002  12.805  19.413  0.00  0.00    +0.000 OA
ATOM     28  C   UNL     1       9.450  11.717  19.064  0.00  0.00    +0.000 C 
ATOM     29  N   UNL     1      10.573  11.175  19.638  0.00  0.00    +0.000 N 
ATOM     30  H   UNL     1      11.062  10.357  19.293  0.00  0.00    +0.000 HD
BRANCH  29  31
ATOM     31  O   UNL     1      11.224  11.959  20.612  0.00  0.00    +0.000 OA
ATOM     32  H   UNL     1      11.405  12.793  20.123  0.00  0.00    +0.000 HD
ENDBRANCH  29  31
ENDBRANCH  26  28
ENDBRANCH  25  26
ENDBRANCH  24  25
ENDBRANCH  23  24
ENDBRANCH  22  23
ENDBRANCH   1  22
TORSDOF 11
ENDMDL
MODEL 5
REMARK VINA RESULT:      -8.1      1.549      2.047
REMARK  Name = 
REMARK  11 active torsions:
REMARK  status: ('A' for Active; 'I' for Inactive)
REMARK    1  A    between atoms: C_2  and  C_3
REMARK    2  A    between atoms: C_3  and  C_4
REMARK    3  A    between atoms: C_4  and  C_5
REMARK    4  A    between atoms: C_5  and  C_6
REMARK    5  A    between atoms: C_6  and  C_7
REMARK    6  A    between atoms: C_7  and  C_8
REMARK    7  A    between atoms: C_8  and  N_9
REMARK    8  A    between atoms: C_8  and  C_18
REMARK    9  A    between atoms: C_10  and  C_12
REMARK   10  A    between atoms: N_20  and  C_21
REMARK   11  A    between atoms: N_27  and  O_28
REMARK                            x       y       z     vdW  Elec       q    Type
REMARK                         _______ _______ _______ _____ _____    ______ ____
ROOT
ATOM      1  C   UNL     1       5.849   6.753  17.552  0.00  0.00    +0.000 C 
ENDROOT
BRANCH   1   2
ATOM      2  N   UNL     1       5.146   5.745  18.339  0.00  0.00    +0.000 N 
ATOM      3  C   UNL     1       3.813   5.834  18.654  0.00  0.00    +0.000 C 
ATOM      4  O   UNL     1       3.116   6.780  18.303  0.00  0.00    +0.000 OA
ATOM      5  H   UNL     1       5.635   4.880  18.513  0.00  0.00    +0.000 HD
BRANCH   3   6
ATOM      6  C   UNL     1       3.266   4.730  19.503  0.00  0.00    +0.000 A 
ATOM      7  C   UNL     1       2.031   4.935  20.130  0.00  0.00    +0.000 A 
ATOM      8  C   UNL     1       1.502   3.963  20.982  0.00  0.00    +0.000 A 
ATOM      9  C   UNL     1       2.200   2.777  21.209  0.00  0.00    +0.000 A 
ATOM     10  C   UNL     1       3.421   2.555  20.574  0.00  0.00    +0.000 A 
ATOM     11  C   UNL     1       3.953   3.525  19.718  0.00  0.00    +0.000 A 
ENDBRANCH   3   6
ENDBRANCH   1   2
BRANCH   1  12
ATOM     12  C   UNL     1       5.745   6.365  16.060  0.00  0.00    +0.000 C 
ATOM     13  O   UNL     1       4.968   6.956  15.311  0.00  0.00    +0.000 OA
ATOM     14  N   UNL     1       6.639   5.399  15.634  0.00  0.00    +0.000 N 
ATOM     15  H   UNL     1       7.327   5.077  16.310  0.00  0.00    +0.000 HD
BRANCH  14  16
ATOM     16  C   UNL     1       6.690   4.850  14.329  0.00  0.00    +0.000 A 
ATOM     17  C   UNL     1       5.843   3.827  13.880  0.00  0.00    +0.000 A 
ATOM     18  C   UNL     1       5.957   3.299  12.593  0.00  0.00    +0.000 A 
ATOM     19  C   UNL     1       6.929   3.788  11.731  0.00  0.00    +0.000 A 
ATOM     20  C   UNL     1       7.779   4.809  12.156  0.00  0.00    +0.000 A 
ATOM     21  C   UNL     1       7.657   5.342  13.445  0.00  0.00    +0.000 A 
ENDBRANCH  14  16
ENDBRANCH   1  12
BRANCH   1  22
ATOM     22  C   UNL     1       7.323   6.872  18.027  0.00  0.00    +0.000 C 
BRANCH  22  23
ATOM     23  C   UNL     1       8.064   8.104  17.487  0.00  0.00    +0.000 C 
BRANCH  23  24
ATOM     24  C   UNL     1       8.550   9.090  18.543  0.00  0.00    +0.000 C 
BRANCH  24  25
ATOM     25  C   UNL     1       8.700  10.458  17.864  0.00  0.00    +0.000 C 
BRANCH  25  26
ATOM     26  C   UNL     1       9.909  11.231  18.357  0.00  0.00    +0.000 C 
BRANCH  26  28
ATOM     27  O   UNL     1      10.694  13.532  18.165  0.00  0.00    +0.000 OA
ATOM     28  C   UNL     1       9.798  12.705  18.020  0.00  0.00    +0.000 C 
ATOM     29  N   UNL     1       8.561  13.050  17.533  0.00  0.00    +0.000 N 
ATOM     30  H   UNL     1       7.751  12.442  17.529  0.00  0.00    +0.000 HD
BRANCH  29  31
ATOM     31  O   UNL     1       8.350  14.418  17.263  0.00  0.00    +0.000 OA
ATOM     32  H   UNL     1       7.897  14.725  18.080  0.00  0.00    +0.000 HD
ENDBRANCH  29  31
ENDBRANCH  26  28
ENDBRANCH  25  26
ENDBRANCH  24  25
ENDBRANCH  23  24
ENDBRANCH  22  23
ENDBRANCH   1  22
TORSDOF 11
ENDMDL
MODEL 6
REMARK VINA RESULT:      -8.1      1.740      6.045
REMARK  Name = 
REMARK  11 active torsions:
REMARK  status: ('A' for Active; 'I' for Inactive)
REMARK    1  A    between atoms: C_2  and  C_3
REMARK    2  A    between atoms: C_3  and  C_4
REMARK    3  A    between atoms: C_4  and  C_5
REMARK    4  A    between atoms: C_5  and  C_6
REMARK    5  A    between atoms: C_6  and  C_7
REMARK    6  A    between atoms: C_7  and  C_8
REMARK    7  A    between atoms: C_8  and  N_9
REMARK    8  A    between atoms: C_8  and  C_18
REMARK    9  A    between atoms: C_10  and  C_12
REMARK   10  A    between atoms: N_20  and  C_21
REMARK   11  A    between atoms: N_27  and  O_28
REMARK                            x       y       z     vdW  Elec       q    Type
REMARK                         _______ _______ _______ _____ _____    ______ ____
ROOT
ATOM      1  C   UNL     1       6.765   5.454  17.922  0.00  0.00    +0.000 C 
ENDROOT
BRANCH   1   2
ATOM      2  N   UNL     1       6.912   5.356  16.474  0.00  0.00    +0.000 N 
ATOM      3  C   UNL     1       6.346   4.352  15.728  0.00  0.00    +0.000 C 
ATOM      4  O   UNL     1       5.681   3.453  16.231  0.00  0.00    +0.000 OA
ATOM      5  H   UNL     1       7.313   6.152  16.002  0.00  0.00    +0.000 HD
BRANCH   3   6
ATOM      6  C   UNL     1       6.634   4.386  14.261  0.00  0.00    +0.000 A 
ATOM      7  C   UNL     1       5.956   3.479  13.438  0.00  0.00    +0.000 A 
ATOM      8  C   UNL     1       6.230   3.425  12.069  0.00  0.00    +0.000 A 
ATOM      9  C   UNL     1       7.178   4.282  11.512  0.00  0.00    +0.000 A 
ATOM     10  C   UNL     1       7.845   5.203  12.319  0.00  0.00    +0.000 A 
ATOM     11  C   UNL     1       7.572   5.261  13.689  0.00  0.00    +0.000 A 
ENDBRANCH   3   6
ENDBRANCH   1   2
BRANCH   1  12
ATOM     12  C   UNL     1       5.257   5.480  18.258  0.00  0.00    +0.000 C 
ATOM     13  O   UNL     1       4.564   6.452  17.958  0.00  0.00    +0.000 OA
ATOM     14  N   UNL     1       4.753   4.319  18.815  0.00  0.00    +0.000 N 
ATOM     15  H   UNL     1       5.389   3.530  18.893  0.00  0.00    +0.000 HD
BRANCH  14  16
ATOM     16  C   UNL     1       3.418   4.133  19.252  0.00  0.00    +0.000 A 
ATOM     17  C   UNL     1       2.914   4.645  20.456  0.00  0.00    +0.000 A 
ATOM     18  C   UNL     1       1.598   4.405  20.856  0.00  0.00    +0.000 A 
ATOM     19  C   UNL     1       0.762   3.644  20.052  0.00  0.00    +0.000 A 
ATOM     20  C   UNL     1       1.241   3.129  18.848  0.00  0.00    +0.000 A 
ATOM     21  C   UNL     1       2.560   3.378  18.446  0.00  0.00    +0.000 A 
ENDBRANCH  14  16
ENDBRANCH   1  12
BRANCH   1  22
ATOM     22  C   UNL     1       7.508   6.710  18.453  0.00  0.00    +0.000 C 
BRANCH  22  23
ATOM     23  C   UNL     1       7.791   7.776  17.383  0.00  0.00    +0.000 C 
BRANCH  23  24
ATOM     24  C   UNL     1       7.871   9.210  17.893  0.00  0.00    +0.000 C 
BRANCH  24  25
ATOM     25  C   UNL     1       9.035   9.282  18.889  0.00  0.00    +0.000 C 
BRANCH  25  26
ATOM     26  C   UNL     1       9.296  10.691  19.389  0.00  0.00    +0.000 C 
BRANCH  26  28
ATOM     27  O   UNL     1      10.864  11.448  17.681  0.00  0.00    +0.000 OA
ATOM     28  C   UNL     1       9.799  11.590  18.276  0.00  0.00    +0.000 C 
ATOM     29  N   UNL     1       8.937  12.618  17.988  0.00  0.00    +0.000 N 
ATOM     30  H   UNL     1       8.122  12.861  18.540  0.00  0.00    +0.000 HD
BRANCH  29  31
ATOM     31  O   UNL     1       9.362  13.544  17.014  0.00  0.00    +0.000 OA
ATOM     32  H   UNL     1       9.550  12.964  16.242  0.00  0.00    +0.000 HD
ENDBRANCH  29  31
ENDBRANCH  26  28
ENDBRANCH  25  26
ENDBRANCH  24  25
ENDBRANCH  23  24
ENDBRANCH  22  23
ENDBRANCH   1  22
TORSDOF 11
ENDMDL
MODEL 7
REMARK VINA RESULT:      -8.1      1.871      6.006
REMARK  Name = 
REMARK  11 active torsions:
REMARK  status: ('A' for Active; 'I' for Inactive)
REMARK    1  A    between atoms: C_2  and  C_3
REMARK    2  A    between atoms: C_3  and  C_4
REMARK    3  A    between atoms: C_4  and  C_5
REMARK    4  A    between atoms: C_5  and  C_6
REMARK    5  A    between atoms: C_6  and  C_7
REMARK    6  A    between atoms: C_7  and  C_8
REMARK    7  A    between atoms: C_8  and  N_9
REMARK    8  A    between atoms: C_8  and  C_18
REMARK    9  A    between atoms: C_10  and  C_12
REMARK   10  A    between atoms: N_20  and  C_21
REMARK   11  A    between atoms: N_27  and  O_28
REMARK                            x       y       z     vdW  Elec       q    Type
REMARK                         _______ _______ _______ _____ _____    ______ ____
ROOT
ATOM      1  C   UNL     1       7.185   5.886  17.622  0.00  0.00    +0.000 C 
ENDROOT
BRANCH   1   2
ATOM      2  N   UNL     1       7.189   5.235  16.316  0.00  0.00    +0.000 N 
ATOM      3  C   UNL     1       6.304   5.554  15.317  0.00  0.00    +0.000 C 
ATOM      4  O   UNL     1       5.433   6.406  15.455  0.00  0.00    +0.000 OA
ATOM      5  H   UNL     1       7.979   4.646  16.103  0.00  0.00    +0.000 HD
BRANCH   3   6
ATOM      6  C   UNL     1       6.427   4.757  14.056  0.00  0.00    +0.000 A 
ATOM      7  C   UNL     1       7.494   5.049  13.197  0.00  0.00    +0.000 A 
ATOM      8  C   UNL     1       7.623   4.379  11.978  0.00  0.00    +0.000 A 
ATOM      9  C   UNL     1       6.692   3.409  11.612  0.00  0.00    +0.000 A 
ATOM     10  C   UNL     1       5.636   3.097  12.468  0.00  0.00    +0.000 A 
ATOM     11  C   UNL     1       5.505   3.764  13.690  0.00  0.00    +0.000 A 
ENDBRANCH   3   6
ENDBRANCH   1   2
BRANCH   1  12
ATOM     12  C   UNL     1       6.043   5.278  18.466  0.00  0.00    +0.000 C 
ATOM     13  O   UNL     1       6.290   4.525  19.407  0.00  0.00    +0.000 OA
ATOM     14  N   UNL     1       4.771   5.716  18.146  0.00  0.00    +0.000 N 
ATOM     15  H   UNL     1       4.697   6.443  17.439  0.00  0.00    +0.000 HD
BRANCH  14  16
ATOM     16  C   UNL     1       3.571   5.257  18.745  0.00  0.00    +0.000 A 
ATOM     17  C   UNL     1       3.189   5.566  20.058  0.00  0.00    +0.000 A 
ATOM     18  C   UNL     1       2.011   5.061  20.611  0.00  0.00    +0.000 A 
ATOM     19  C   UNL     1       1.194   4.232  19.855  0.00  0.00    +0.000 A 
ATOM     20  C   UNL     1       1.553   3.917  18.544  0.00  0.00    +0.000 A 
ATOM     21  C   UNL     1       2.732   4.432  17.990  0.00  0.00    +0.000 A 
ENDBRANCH  14  16
ENDBRANCH   1  12
BRANCH   1  22
ATOM     22  C   UNL     1       7.038   7.423  17.453  0.00  0.00    +0.000 C 
BRANCH  22  23
ATOM     23  C   UNL     1       8.163   8.241  18.106  0.00  0.00    +0.000 C 
BRANCH  23  24
ATOM     24  C   UNL     1       8.005   9.754  18.020  0.00  0.00    +0.000 C 
BRANCH  24  25
ATOM     25  C   UNL     1       9.383  10.378  18.281  0.00  0.00    +0.000 C 
BRANCH  25  26
ATOM     26  C   UNL     1       9.346  11.895  18.311  0.00  0.00    +0.000 C 
BRANCH  26  28
ATOM     27  O   UNL     1      11.725  12.115  17.820  0.00  0.00    +0.000 OA
ATOM     28  C   UNL     1      10.570  12.491  17.643  0.00  0.00    +0.000 C 
ATOM     29  N   UNL     1      10.265  13.533  16.803  0.00  0.00    +0.000 N 
ATOM     30  H   UNL     1       9.354  13.972  16.732  0.00  0.00    +0.000 HD
BRANCH  29  31
ATOM     31  O   UNL     1      11.354  14.193  16.196  0.00  0.00    +0.000 OA
ATOM     32  H   UNL     1      11.083  15.136  16.248  0.00  0.00    +0.000 HD
ENDBRANCH  29  31
ENDBRANCH  26  28
ENDBRANCH  25  26
ENDBRANCH  24  25
ENDBRANCH  23  24
ENDBRANCH  22  23
ENDBRANCH   1  22
TORSDOF 11
ENDMDL
MODEL 8
REMARK VINA RESULT:      -8.0      1.754      6.106
REMARK  Name = 
REMARK  11 active torsions:
REMARK  status: ('A' for Active; 'I' for Inactive)
REMARK    1  A    between atoms: C_2  and  C_3
REMARK    2  A    between atoms: C_3  and  C_4
REMARK    3  A    between atoms: C_4  and  C_5
REMARK    4  A    between atoms: C_5  and  C_6
REMARK    5  A    between atoms: C_6  and  C_7
REMARK    6  A    between atoms: C_7  and  C_8
REMARK    7  A    between atoms: C_8  and  N_9
REMARK    8  A    between atoms: C_8  and  C_18
REMARK    9  A    between atoms: C_10  and  C_12
REMARK   10  A    between atoms: N_20  and  C_21
REMARK   11  A    between atoms: N_27  and  O_28
REMARK                            x       y       z     vdW  Elec       q    Type
REMARK                         _______ _______ _______ _____ _____    ______ ____
ROOT
ATOM      1  C   UNL     1       6.777   4.935  18.166  0.00  0.00    +0.000 C 
ENDROOT
BRANCH   1   2
ATOM      2  N   UNL     1       6.960   4.963  16.719  0.00  0.00    +0.000 N 
ATOM      3  C   UNL     1       6.290   4.126  15.862  0.00  0.00    +0.000 C 
ATOM      4  O   UNL     1       5.493   3.281  16.255  0.00  0.00    +0.000 OA
ATOM      5  H   UNL     1       7.480   5.739  16.340  0.00  0.00    +0.000 HD
BRANCH   3   6
ATOM      6  C   UNL     1       6.631   4.267  14.412  0.00  0.00    +0.000 A 
ATOM      7  C   UNL     1       7.569   5.241  14.050  0.00  0.00    +0.000 A 
ATOM      8  C   UNL     1       7.879   5.458  12.705  0.00  0.00    +0.000 A 
ATOM      9  C   UNL     1       7.260   4.698  11.714  0.00  0.00    +0.000 A 
ATOM     10  C   UNL     1       6.339   3.712  12.064  0.00  0.00    +0.000 A 
ATOM     11  C   UNL     1       6.028   3.491  13.410  0.00  0.00    +0.000 A 
ENDBRANCH   3   6
ENDBRANCH   1   2
BRANCH   1  12
ATOM     12  C   UNL     1       5.262   4.984  18.467  0.00  0.00    +0.000 C 
ATOM     13  O   UNL     1       4.602   5.987  18.200  0.00  0.00    +0.000 OA
ATOM     14  N   UNL     1       4.715   3.810  18.951  0.00  0.00    +0.000 N 
ATOM     15  H   UNL     1       5.329   3.001  19.004  0.00  0.00    +0.000 HD
BRANCH  14  16
ATOM     16  C   UNL     1       3.365   3.638  19.347  0.00  0.00    +0.000 A 
ATOM     17  C   UNL     1       2.905   3.839  20.656  0.00  0.00    +0.000 A 
ATOM     18  C   UNL     1       1.569   3.624  21.000  0.00  0.00    +0.000 A 
ATOM     19  C   UNL     1       0.668   3.200  20.033  0.00  0.00    +0.000 A 
ATOM     20  C   UNL     1       1.104   2.999  18.723  0.00  0.00    +0.000 A 
ATOM     21  C   UNL     1       2.443   3.222  18.380  0.00  0.00    +0.000 A 
ENDBRANCH  14  16
ENDBRANCH   1  12
BRANCH   1  22
ATOM     22  C   UNL     1       7.546   6.111  18.826  0.00  0.00    +0.000 C 
BRANCH  22  23
ATOM     23  C   UNL     1       7.806   7.301  17.890  0.00  0.00    +0.000 C 
BRANCH  23  24
ATOM     24  C   UNL     1       8.524   8.487  18.523  0.00  0.00    +0.000 C 
BRANCH  24  25
ATOM     25  C   UNL     1       8.332   9.693  17.595  0.00  0.00    +0.000 C 
BRANCH  25  26
ATOM     26  C   UNL     1       8.627  11.015  18.278  0.00  0.00    +0.000 C 
BRANCH  26  28
ATOM     27  O   UNL     1      10.636  11.136  19.656  0.00  0.00    +0.000 OA
ATOM     28  C   UNL     1      10.110  11.181  18.548  0.00  0.00    +0.000 C 
ATOM     29  N   UNL     1      10.838  11.404  17.406  0.00  0.00    +0.000 N 
ATOM     30  H   UNL     1      10.440  11.591  16.493  0.00  0.00    +0.000 HD
BRANCH  29  31
ATOM     31  O   UNL     1      12.218  11.641  17.575  0.00  0.00    +0.000 OA
ATOM     32  H   UNL     1      12.273  12.620  17.506  0.00  0.00    +0.000 HD
ENDBRANCH  29  31
ENDBRANCH  26  28
ENDBRANCH  25  26
ENDBRANCH  24  25
ENDBRANCH  23  24
ENDBRANCH  22  23
ENDBRANCH   1  22
TORSDOF 11
ENDMDL
MODEL 9
REMARK VINA RESULT:      -8.0      1.424      1.914
REMARK  Name = 
REMARK  11 active torsions:
REMARK  status: ('A' for Active; 'I' for Inactive)
REMARK    1  A    between atoms: C_2  and  C_3
REMARK    2  A    between atoms: C_3  and  C_4
REMARK    3  A    between atoms: C_4  and  C_5
REMARK    4  A    between atoms: C_5  and  C_6
REMARK    5  A    between atoms: C_6  and  C_7
REMARK    6  A    between atoms: C_7  and  C_8
REMARK    7  A    between atoms: C_8  and  N_9
REMARK    8  A    between atoms: C_8  and  C_18
REMARK    9  A    between atoms: C_10  and  C_12
REMARK   10  A    between atoms: N_20  and  C_21
REMARK   11  A    between atoms: N_27  and  O_28
REMARK                            x       y       z     vdW  Elec       q    Type
REMARK                         _______ _______ _______ _____ _____    ______ ____
ROOT
ATOM      1  C   UNL     1       6.339   5.949  17.893  0.00  0.00    +0.000 C 
ENDROOT
BRANCH   1   2
ATOM      2  N   UNL     1       5.242   5.192  18.487  0.00  0.00    +0.000 N 
ATOM      3  C   UNL     1       3.922   5.441  18.207  0.00  0.00    +0.000 C 
ATOM      4  O   UNL     1       3.567   6.330  17.441  0.00  0.00    +0.000 OA
ATOM      5  H   UNL     1       5.487   4.356  18.995  0.00  0.00    +0.000 HD
BRANCH   3   6
ATOM      6  C   UNL     1       2.928   4.593  18.937  0.00  0.00    +0.000 A 
ATOM      7  C   UNL     1       2.019   3.847  18.177  0.00  0.00    +0.000 A 
ATOM      8  C   UNL     1       1.030   3.086  18.806  0.00  0.00    +0.000 A 
ATOM      9  C   UNL     1       0.947   3.060  20.197  0.00  0.00    +0.000 A 
ATOM     10  C   UNL     1       1.859   3.785  20.964  0.00  0.00    +0.000 A 
ATOM     11  C   UNL     1       2.851   4.546  20.337  0.00  0.00    +0.000 A 
ENDBRANCH   3   6
ENDBRANCH   1   2
BRANCH   1  12
ATOM     12  C   UNL     1       6.824   5.197  16.633  0.00  0.00    +0.000 C 
ATOM     13  O   UNL     1       7.790   4.438  16.688  0.00  0.00    +0.000 OA
ATOM     14  N   UNL     1       6.045   5.369  15.503  0.00  0.00    +0.000 N 
ATOM     15  H   UNL     1       5.192   5.912  15.609  0.00  0.00    +0.000 HD
BRANCH  14  16
ATOM     16  C   UNL     1       6.324   4.825  14.225  0.00  0.00    +0.000 A 
ATOM     17  C   UNL     1       5.567   3.807  13.629  0.00  0.00    +0.000 A 
ATOM     18  C   UNL     1       5.905   3.284  12.380  0.00  0.00    +0.000 A 
ATOM     19  C   UNL     1       7.015   3.773  11.705  0.00  0.00    +0.000 A 
ATOM     20  C   UNL     1       7.779   4.789  12.278  0.00  0.00    +0.000 A 
ATOM     21  C   UNL     1       7.433   5.317  13.528  0.00  0.00    +0.000 A 
ENDBRANCH  14  16
ENDBRANCH   1  12
BRANCH   1  22
ATOM     22  C   UNL     1       7.476   6.149  18.933  0.00  0.00    +0.000 C 
BRANCH  22  23
ATOM     23  C   UNL     1       8.414   7.326  18.625  0.00  0.00    +0.000 C 
BRANCH  23  24
ATOM     24  C   UNL     1       7.767   8.511  17.918  0.00  0.00    +0.000 C 
BRANCH  24  25
ATOM     25  C   UNL     1       8.837   9.600  17.766  0.00  0.00    +0.000 C 
BRANCH  25  26
ATOM     26  C   UNL     1       9.069  10.380  19.047  0.00  0.00    +0.000 C 
BRANCH  26  28
ATOM     27  O   UNL     1      10.092  12.560  19.433  0.00  0.00    +0.000 OA
ATOM     28  C   UNL     1       9.360  11.841  18.760  0.00  0.00    +0.000 C 
ATOM     29  N   UNL     1       8.702  12.308  17.650  0.00  0.00    +0.000 N 
ATOM     30  H   UNL     1       7.982  11.801  17.147  0.00  0.00    +0.000 HD
BRANCH  29  31
ATOM     31  O   UNL     1       8.861  13.677  17.353  0.00  0.00    +0.000 OA
ATOM     32  H   UNL     1       8.924  14.080  18.248  0.00  0.00    +0.000 HD
ENDBRANCH  29  31
ENDBRANCH  26  28
ENDBRANCH  25  26
ENDBRANCH  24  25
ENDBRANCH  23  24
ENDBRANCH  22  23
ENDBRANCH   1  22
TORSDOF 11
ENDMDL
