MODEL 1
REMARK VINA RESULT:      -8.2      0.000      0.000
REMARK  Name = 
REMARK  3 active torsions:
REMARK  status: ('A' for Active; 'I' for Inactive)
REMARK    1  A    between atoms: C_2  and  C_3
REMARK    2  A    between atoms: C_14  and  S_15
REMARK    3  A    between atoms: S_15  and  C_18
REMARK                            x       y       z     vdW  Elec       q    Type
REMARK                         _______ _______ _______ _____ _____    ______ ____
ROOT
ATOM      1  O   UNL     1       2.581   8.587  17.066  0.00  0.00    +0.000 OA
ATOM      2  C   UNL     1       2.418   8.162  18.183  0.00  0.00    +0.000 C 
ATOM      3  N   UNL     1       3.116   7.110  18.761  0.00  0.00    +0.000 N 
ATOM      4  C   UNL     1       4.171   6.241  18.251  0.00  0.00    +0.000 C 
ATOM      5  C   UNL     1       3.418   5.056  18.864  0.00  0.00    +0.000 C 
ATOM      6  C   UNL     1       2.563   6.089  19.631  0.00  0.00    +0.000 C 
ENDROOT
BRANCH   2   7
ATOM      7  C   UNL     1       1.440   8.837  19.091  0.00  0.00    +0.000 A 
ATOM      8  C   UNL     1       0.529   9.774  18.589  0.00  0.00    +0.000 A 
ATOM      9  C   UNL     1      -0.345  10.462  19.450  0.00  0.00    +0.000 A 
ATOM     10  C   UNL     1      -0.244  10.173  20.817  0.00  0.00    +0.000 A 
ATOM     11  N   UNL     1      -0.892  10.641  21.931  0.00  0.00    +0.000 N 
ATOM     12  C   UNL     1      -0.367  10.015  23.028  0.00  0.00    +0.000 A 
ATOM     13  N   UNL     1       0.582   9.175  22.698  0.00  0.00    +0.000 NA
ATOM     14  C   UNL     1       0.666   9.266  21.335  0.00  0.00    +0.000 A 
ATOM     15  C   UNL     1       1.526   8.603  20.469  0.00  0.00    +0.000 A 
ATOM     16  H   UNL     1      -1.629  11.330  21.942  0.00  0.00    +0.000 HD
ENDBRANCH   2   7
BRANCH   5  17
ATOM     17  S   UNL     1       2.545   4.003  17.698  0.00  0.00    +0.000 S 
ATOM     18  O   UNL     1       1.254   4.592  17.380  0.00  0.00    +0.000 OA
ATOM     19  O   UNL     1       3.465   3.679  16.617  0.00  0.00    +0.000 OA
BRANCH  17  20
ATOM     20  C   UNL     1       2.168   2.447  18.506  0.00  0.00    +0.000 C 
ATOM     21  C   UNL     1       3.224   1.903  19.460  0.00  0.00    +0.000 C 
ATOM     22  C   UNL     1       3.259   2.575  20.829  0.00  0.00    +0.000 C 
ATOM     23  C   UNL     1       1.883   2.655  21.487  0.00  0.00    +0.000 C 
ATOM     24  C   UNL     1       0.787   3.159  20.558  0.00  0.00    +0.000 C 
ATOM     25  C   UNL     1       0.784   2.476  19.192  0.00  0.00    +0.000 C 
ENDBRANCH  17  20
ENDBRANCH   5  17
TORSDOF 3
ENDMDL
MODEL 2
REMARK VINA RESULT:      -7.8      0.675      1.397
REMARK  Name = 
REMARK  3 active torsions:
REMARK  status: ('A' for Active; 'I' for Inactive)
REMARK    1  A    between atoms: C_2  and  C_3
REMARK    2  A    between atoms: C_14  and  S_15
REMARK    3  A    between atoms: S_15  and  C_18
REMARK                            x       y       z     vdW  Elec       q    Type
REMARK                         _______ _______ _______ _____ _____    ______ ____
ROOT
ATOM      1  O   UNL     1       2.364   8.554  17.146  0.00  0.00    +0.000 OA
ATOM      2  C   UNL     1       2.424   8.089  18.257  0.00  0.00    +0.000 C 
ATOM      3  N   UNL     1       3.225   7.026  18.650  0.00  0.00    +0.000 N 
ATOM      4  C   UNL     1       4.164   6.186  17.912  0.00  0.00    +0.000 C 
ATOM      5  C   UNL     1       3.550   4.972  18.617  0.00  0.00    +0.000 C 
ATOM      6  C   UNL     1       2.857   5.968  19.573  0.00  0.00    +0.000 C 
ENDROOT
BRANCH   2   7
ATOM      7  C   UNL     1       1.638   8.721  19.362  0.00  0.00    +0.000 A 
ATOM      8  C   UNL     1       1.548   8.104  20.616  0.00  0.00    +0.000 A 
ATOM      9  C   UNL     1       0.753   8.658  21.636  0.00  0.00    +0.000 A 
ATOM     10  C   UNL     1       0.057   9.834  21.327  0.00  0.00    +0.000 A 
ATOM     11  N   UNL     1      -0.807  10.633  22.032  0.00  0.00    +0.000 N 
ATOM     12  C   UNL     1      -1.209  11.654  21.216  0.00  0.00    +0.000 A 
ATOM     13  N   UNL     1      -0.667  11.567  20.028  0.00  0.00    +0.000 NA
ATOM     14  C   UNL     1       0.116  10.446  20.085  0.00  0.00    +0.000 A 
ATOM     15  C   UNL     1       0.900   9.879  19.089  0.00  0.00    +0.000 A 
ATOM     16  H   UNL     1      -1.097  10.492  22.987  0.00  0.00    +0.000 HD
ENDBRANCH   2   7
BRANCH   5  17
ATOM     17  S   UNL     1       2.471   3.951  17.606  0.00  0.00    +0.000 S 
ATOM     18  O   UNL     1       1.185   4.611  17.444  0.00  0.00    +0.000 OA
ATOM     19  O   UNL     1       3.219   3.552  16.422  0.00  0.00    +0.000 OA
BRANCH  17  20
ATOM     20  C   UNL     1       2.117   2.437  18.498  0.00  0.00    +0.000 C 
ATOM     21  C   UNL     1       3.243   1.876  19.359  0.00  0.00    +0.000 C 
ATOM     22  C   UNL     1       3.444   2.585  20.694  0.00  0.00    +0.000 C 
ATOM     23  C   UNL     1       2.146   2.743  21.484  0.00  0.00    +0.000 C 
ATOM     24  C   UNL     1       0.982   3.266  20.655  0.00  0.00    +0.000 C 
ATOM     25  C   UNL     1       0.813   2.545  19.319  0.00  0.00    +0.000 C 
ENDBRANCH  17  20
ENDBRANCH   5  17
TORSDOF 3
ENDMDL
MODEL 3
REMARK VINA RESULT:      -7.6      1.062      1.829
REMARK  Name = 
REMARK  3 active torsions:
REMARK  status: ('A' for Active; 'I' for Inactive)
REMARK    1  A    between atoms: C_2  and  C_3
REMARK    2  A    between atoms: C_14  and  S_15
REMARK    3  A    between atoms: S_15  and  C_18
REMARK                            x       y       z     vdW  Elec       q    Type
REMARK                         _______ _______ _______ _____ _____    ______ ____
ROOT
ATOM      1  O   UNL     1       2.873   8.487  16.750  0.00  0.00    +0.000 OA
ATOM      2  C   UNL     1       2.577   8.176  17.877  0.00  0.00    +0.000 C 
ATOM      3  N   UNL     1       3.130   7.128  18.601  0.00  0.00    +0.000 N 
ATOM      4  C   UNL     1       4.149   6.139  18.264  0.00  0.00    +0.000 C 
ATOM      5  C   UNL     1       3.248   5.073  18.896  0.00  0.00    +0.000 C 
ATOM      6  C   UNL     1       2.419   6.232  19.494  0.00  0.00    +0.000 C 
ENDROOT
BRANCH   2   7
ATOM      7  C   UNL     1       1.583   9.000  18.631  0.00  0.00    +0.000 A 
ATOM      8  C   UNL     1       1.537   8.960  20.029  0.00  0.00    +0.000 A 
ATOM      9  C   UNL     1       0.558   9.679  20.739  0.00  0.00    +0.000 A 
ATOM     10  C   UNL     1      -0.363  10.412  19.981  0.00  0.00    +0.000 A 
ATOM     11  N   UNL     1      -1.440  11.197  20.304  0.00  0.00    +0.000 N 
ATOM     12  C   UNL     1      -2.002  11.654  19.143  0.00  0.00    +0.000 A 
ATOM     13  N   UNL     1      -1.361  11.213  18.089  0.00  0.00    +0.000 NA
ATOM     14  C   UNL     1      -0.349  10.444  18.595  0.00  0.00    +0.000 A 
ATOM     15  C   UNL     1       0.621   9.722  17.913  0.00  0.00    +0.000 A 
ATOM     16  H   UNL     1      -1.765  11.402  21.236  0.00  0.00    +0.000 HD
ENDBRANCH   2   7
BRANCH   5  17
ATOM     17  S   UNL     1       2.396   3.992  17.741  0.00  0.00    +0.000 S 
ATOM     18  O   UNL     1       1.111   4.573  17.386  0.00  0.00    +0.000 OA
ATOM     19  O   UNL     1       3.335   3.644  16.684  0.00  0.00    +0.000 OA
BRANCH  17  20
ATOM     20  C   UNL     1       2.006   2.456  18.579  0.00  0.00    +0.000 C 
ATOM     21  C   UNL     1       3.145   1.789  19.341  0.00  0.00    +0.000 C 
ATOM     22  C   UNL     1       3.464   2.415  20.694  0.00  0.00    +0.000 C 
ATOM     23  C   UNL     1       2.227   2.603  21.569  0.00  0.00    +0.000 C 
ATOM     24  C   UNL     1       1.049   3.234  20.838  0.00  0.00    +0.000 C 
ATOM     25  C   UNL     1       0.760   2.594  19.482  0.00  0.00    +0.000 C 
ENDBRANCH  17  20
ENDBRANCH   5  17
TORSDOF 3
ENDMDL
MODEL 4
REMARK VINA RESULT:      -7.5      2.563      4.269
REMARK  Name = 
REMARK  3 active torsions:
REMARK  status: ('A' for Active; 'I' for Inactive)
REMARK    1  A    between atoms: C_2  and  C_3
REMARK    2  A    between atoms: C_14  and  S_15
REMARK    3  A    between atoms: S_15  and  C_18
REMARK                            x       y       z     vdW  Elec       q    Type
REMARK                         _______ _______ _______ _____ _____    ______ ____
ROOT
ATOM      1  O   UNL     1       1.793   6.587  21.303  0.00  0.00    +0.000 OA
ATOM      2  C   UNL     1       1.846   6.750  20.109  0.00  0.00    +0.000 C 
ATOM      3  N   UNL     1       2.044   5.753  19.162  0.00  0.00    +0.000 N 
ATOM      4  C   UNL     1       2.248   4.314  19.288  0.00  0.00    +0.000 C 
ATOM      5  C   UNL     1       3.374   4.437  18.257  0.00  0.00    +0.000 C 
ATOM      6  C   UNL     1       2.849   5.859  17.960  0.00  0.00    +0.000 C 
ENDROOT
BRANCH   2   7
ATOM      7  C   UNL     1       1.616   8.114  19.541  0.00  0.00    +0.000 A 
ATOM      8  C   UNL     1       2.141   8.465  18.292  0.00  0.00    +0.000 A 
ATOM      9  C   UNL     1       1.987   9.768  17.786  0.00  0.00    +0.000 A 
ATOM     10  C   UNL     1       1.304  10.684  18.595  0.00  0.00    +0.000 A 
ATOM     11  N   UNL     1       0.983  12.011  18.457  0.00  0.00    +0.000 N 
ATOM     12  C   UNL     1       0.318  12.411  19.583  0.00  0.00    +0.000 A 
ATOM     13  N   UNL     1       0.190  11.432  20.444  0.00  0.00    +0.000 NA
ATOM     14  C   UNL     1       0.797  10.362  19.844  0.00  0.00    +0.000 A 
ATOM     15  C   UNL     1       0.966   9.072  20.329  0.00  0.00    +0.000 A 
ATOM     16  H   UNL     1       1.200  12.593  17.662  0.00  0.00    +0.000 HD
ENDBRANCH   2   7
BRANCH   5  17
ATOM     17  S   UNL     1       5.043   4.321  18.913  0.00  0.00    +0.000 S 
ATOM     18  O   UNL     1       5.286   5.424  19.829  0.00  0.00    +0.000 OA
ATOM     19  O   UNL     1       5.245   2.955  19.376  0.00  0.00    +0.000 OA
BRANCH  17  20
ATOM     20  C   UNL     1       6.204   4.560  17.567  0.00  0.00    +0.000 C 
ATOM     21  C   UNL     1       5.835   5.614  16.530  0.00  0.00    +0.000 C 
ATOM     22  C   UNL     1       6.083   7.055  16.964  0.00  0.00    +0.000 C 
ATOM     23  C   UNL     1       7.486   7.273  17.525  0.00  0.00    +0.000 C 
ATOM     24  C   UNL     1       7.913   6.221  18.539  0.00  0.00    +0.000 C 
ATOM     25  C   UNL     1       7.642   4.789  18.082  0.00  0.00    +0.000 C 
ENDBRANCH  17  20
ENDBRANCH   5  17
TORSDOF 3
ENDMDL
MODEL 5
REMARK VINA RESULT:      -7.3      4.652      7.858
REMARK  Name = 
REMARK  3 active torsions:
REMARK  status: ('A' for Active; 'I' for Inactive)
REMARK    1  A    between atoms: C_2  and  C_3
REMARK    2  A    between atoms: C_14  and  S_15
REMARK    3  A    between atoms: S_15  and  C_18
REMARK                            x       y       z     vdW  Elec       q    Type
REMARK                         _______ _______ _______ _____ _____    ______ ____
ROOT
ATOM      1  O   UNL     1       7.805   4.485  17.089  0.00  0.00    +0.000 OA
ATOM      2  C   UNL     1       7.103   5.113  16.335  0.00  0.00    +0.000 C 
ATOM      3  N   UNL     1       6.352   6.232  16.670  0.00  0.00    +0.000 N 
ATOM      4  C   UNL     1       6.168   6.944  17.930  0.00  0.00    +0.000 C 
ATOM      5  C   UNL     1       4.668   6.989  17.626  0.00  0.00    +0.000 C 
ATOM      6  C   UNL     1       5.019   6.546  16.188  0.00  0.00    +0.000 C 
ENDROOT
BRANCH   2   7
ATOM      7  C   UNL     1       7.056   4.738  14.889  0.00  0.00    +0.000 A 
ATOM      8  C   UNL     1       7.880   5.380  13.958  0.00  0.00    +0.000 A 
ATOM      9  C   UNL     1       7.789   5.081  12.586  0.00  0.00    +0.000 A 
ATOM     10  C   UNL     1       6.831   4.131  12.209  0.00  0.00    +0.000 A 
ATOM     11  N   UNL     1       6.445   3.608  11.001  0.00  0.00    +0.000 N 
ATOM     12  C   UNL     1       5.431   2.718  11.224  0.00  0.00    +0.000 A 
ATOM     13  N   UNL     1       5.132   2.633  12.496  0.00  0.00    +0.000 NA
ATOM     14  C   UNL     1       5.990   3.502  13.112  0.00  0.00    +0.000 A 
ATOM     15  C   UNL     1       6.091   3.817  14.461  0.00  0.00    +0.000 A 
ATOM     16  H   UNL     1       6.839   3.840  10.102  0.00  0.00    +0.000 HD
ENDBRANCH   2   7
BRANCH   5  17
ATOM     17  S   UNL     1       3.648   5.860  18.584  0.00  0.00    +0.000 S 
ATOM     18  O   UNL     1       4.462   5.206  19.596  0.00  0.00    +0.000 OA
ATOM     19  O   UNL     1       2.450   6.581  18.991  0.00  0.00    +0.000 OA
BRANCH  17  20
ATOM     20  C   UNL     1       3.086   4.543  17.504  0.00  0.00    +0.000 C 
ATOM     21  C   UNL     1       3.905   3.257  17.518  0.00  0.00    +0.000 C 
ATOM     22  C   UNL     1       3.651   2.349  18.716  0.00  0.00    +0.000 C 
ATOM     23  C   UNL     1       2.167   2.082  18.956  0.00  0.00    +0.000 C 
ATOM     24  C   UNL     1       1.303   3.335  18.915  0.00  0.00    +0.000 C 
ATOM     25  C   UNL     1       1.587   4.231  17.711  0.00  0.00    +0.000 C 
ENDBRANCH  17  20
ENDBRANCH   5  17
TORSDOF 3
ENDMDL
MODEL 6
REMARK VINA RESULT:      -7.3      4.123      5.829
REMARK  Name = 
REMARK  3 active torsions:
REMARK  status: ('A' for Active; 'I' for Inactive)
REMARK    1  A    between atoms: C_2  and  C_3
REMARK    2  A    between atoms: C_14  and  S_15
REMARK    3  A    between atoms: S_15  and  C_18
REMARK                            x       y       z     vdW  Elec       q    Type
REMARK                         _______ _______ _______ _____ _____    ______ ____
ROOT
ATOM      1  O   UNL     1       6.023   5.195  15.555  0.00  0.00    +0.000 OA
ATOM      2  C   UNL     1       6.104   5.161  16.758  0.00  0.00    +0.000 C 
ATOM      3  N   UNL     1       5.482   4.237  17.587  0.00  0.00    +0.000 N 
ATOM      4  C   UNL     1       4.594   3.114  17.304  0.00  0.00    +0.000 C 
ATOM      5  C   UNL     1       3.714   3.584  18.466  0.00  0.00    +0.000 C 
ATOM      6  C   UNL     1       4.879   4.511  18.879  0.00  0.00    +0.000 C 
ENDROOT
BRANCH   2   7
ATOM      7  C   UNL     1       6.995   6.133  17.464  0.00  0.00    +0.000 A 
ATOM      8  C   UNL     1       7.681   5.758  18.625  0.00  0.00    +0.000 A 
ATOM      9  C   UNL     1       8.464   6.690  19.332  0.00  0.00    +0.000 A 
ATOM     10  C   UNL     1       8.505   7.995  18.826  0.00  0.00    +0.000 A 
ATOM     11  N   UNL     1       9.123   9.148  19.237  0.00  0.00    +0.000 N 
ATOM     12  C   UNL     1       8.794  10.147  18.362  0.00  0.00    +0.000 A 
ATOM     13  N   UNL     1       7.999   9.717  17.414  0.00  0.00    +0.000 NA
ATOM     14  C   UNL     1       7.814   8.390  17.692  0.00  0.00    +0.000 A 
ATOM     15  C   UNL     1       7.040   7.458  17.013  0.00  0.00    +0.000 A 
ATOM     16  H   UNL     1       9.718   9.245  20.045  0.00  0.00    +0.000 HD
ENDBRANCH   2   7
BRANCH   5  17
ATOM     17  S   UNL     1       2.178   4.391  17.999  0.00  0.00    +0.000 S 
ATOM     18  O   UNL     1       2.386   5.828  17.916  0.00  0.00    +0.000 OA
ATOM     19  O   UNL     1       1.637   3.683  16.848  0.00  0.00    +0.000 OA
BRANCH  17  20
ATOM     20  C   UNL     1       0.988   4.161  19.321  0.00  0.00    +0.000 C 
ATOM     21  C   UNL     1       0.764   2.729  19.794  0.00  0.00    +0.000 C 
ATOM     22  C   UNL     1       1.851   2.180  20.712  0.00  0.00    +0.000 C 
ATOM     23  C   UNL     1       2.181   3.118  21.871  0.00  0.00    +0.000 C 
ATOM     24  C   UNL     1       2.376   4.568  21.451  0.00  0.00    +0.000 C 
ATOM     25  C   UNL     1       1.279   5.087  20.523  0.00  0.00    +0.000 C 
ENDBRANCH  17  20
ENDBRANCH   5  17
TORSDOF 3
ENDMDL
MODEL 7
REMARK VINA RESULT:      -7.1      2.334      4.252
REMARK  Name = 
REMARK  3 active torsions:
REMARK  status: ('A' for Active; 'I' for Inactive)
REMARK    1  A    between atoms: C_2  and  C_3
REMARK    2  A    between atoms: C_14  and  S_15
REMARK    3  A    between atoms: S_15  and  C_18
REMARK                            x       y       z     vdW  Elec       q    Type
REMARK                         _______ _______ _______ _____ _____    ______ ____
ROOT
ATOM      1  O   UNL     1       2.297   4.995  21.496  0.00  0.00    +0.000 OA
ATOM      2  C   UNL     1       1.925   5.468  20.450  0.00  0.00    +0.000 C 
ATOM      3  N   UNL     1       1.660   4.756  19.287  0.00  0.00    +0.000 N 
ATOM      4  C   UNL     1       1.751   3.335  18.970  0.00  0.00    +0.000 C 
ATOM      5  C   UNL     1       2.427   3.727  17.652  0.00  0.00    +0.000 C 
ATOM      6  C   UNL     1       1.974   5.177  17.934  0.00  0.00    +0.000 C 
ENDROOT
BRANCH   2   7
ATOM      7  C   UNL     1       1.640   6.933  20.365  0.00  0.00    +0.000 A 
ATOM      8  C   UNL     1       0.886   7.573  21.356  0.00  0.00    +0.000 A 
ATOM      9  C   UNL     1       0.557   8.936  21.243  0.00  0.00    +0.000 A 
ATOM     10  C   UNL     1       1.004   9.602  20.096  0.00  0.00    +0.000 A 
ATOM     11  N   UNL     1       0.868  10.887  19.637  0.00  0.00    +0.000 N 
ATOM     12  C   UNL     1       1.499  10.980  18.427  0.00  0.00    +0.000 A 
ATOM     13  N   UNL     1       2.032   9.838  18.070  0.00  0.00    +0.000 NA
ATOM     14  C   UNL     1       1.731   8.981  19.093  0.00  0.00    +0.000 A 
ATOM     15  C   UNL     1       2.040   7.633  19.219  0.00  0.00    +0.000 A 
ATOM     16  H   UNL     1       0.384  11.636  20.108  0.00  0.00    +0.000 HD
ENDBRANCH   2   7
BRANCH   5  17
ATOM     17  S   UNL     1       4.200   3.443  17.574  0.00  0.00    +0.000 S 
ATOM     18  O   UNL     1       4.826   3.925  18.794  0.00  0.00    +0.000 OA
ATOM     19  O   UNL     1       4.411   2.062  17.164  0.00  0.00    +0.000 OA
BRANCH  17  20
ATOM     20  C   UNL     1       4.883   4.455  16.260  0.00  0.00    +0.000 C 
ATOM     21  C   UNL     1       4.789   5.965  16.447  0.00  0.00    +0.000 C 
ATOM     22  C   UNL     1       5.819   6.557  17.403  0.00  0.00    +0.000 C 
ATOM     23  C   UNL     1       7.245   6.108  17.094  0.00  0.00    +0.000 C 
ATOM     24  C   UNL     1       7.381   4.610  16.863  0.00  0.00    +0.000 C 
ATOM     25  C   UNL     1       6.330   4.042  15.910  0.00  0.00    +0.000 C 
ENDBRANCH  17  20
ENDBRANCH   5  17
TORSDOF 3
ENDMDL
MODEL 8
REMARK VINA RESULT:      -7.1      2.581      4.462
REMARK  Name = 
REMARK  3 active torsions:
REMARK  status: ('A' for Active; 'I' for Inactive)
REMARK    1  A    between atoms: C_2  and  C_3
REMARK    2  A    between atoms: C_14  and  S_15
REMARK    3  A    between atoms: S_15  and  C_18
REMARK                            x       y       z     vdW  Elec       q    Type
REMARK                         _______ _______ _______ _____ _____    ______ ____
ROOT
ATOM      1  O   UNL     1       1.476   5.453  21.194  0.00  0.00    +0.000 OA
ATOM      2  C   UNL     1       1.734   6.158  20.250  0.00  0.00    +0.000 C 
ATOM      3  N   UNL     1       2.149   5.719  19.000  0.00  0.00    +0.000 N 
ATOM      4  C   UNL     1       2.400   4.384  18.467  0.00  0.00    +0.000 C 
ATOM      5  C   UNL     1       3.685   4.933  17.840  0.00  0.00    +0.000 C 
ATOM      6  C   UNL     1       3.151   6.347  18.158  0.00  0.00    +0.000 C 
ENDROOT
BRANCH   2   7
ATOM      7  C   UNL     1       1.541   7.636  20.361  0.00  0.00    +0.000 A 
ATOM      8  C   UNL     1       1.155   8.217  21.574  0.00  0.00    +0.000 A 
ATOM      9  C   UNL     1       0.903   9.598  21.665  0.00  0.00    +0.000 A 
ATOM     10  C   UNL     1       1.044  10.345  20.488  0.00  0.00    +0.000 A 
ATOM     11  N   UNL     1       0.871  11.672  20.186  0.00  0.00    +0.000 N 
ATOM     12  C   UNL     1       1.129  11.845  18.854  0.00  0.00    +0.000 A 
ATOM     13  N   UNL     1       1.454  10.717  18.273  0.00  0.00    +0.000 NA
ATOM     14  C   UNL     1       1.403   9.785  19.273  0.00  0.00    +0.000 A 
ATOM     15  C   UNL     1       1.639   8.418  19.203  0.00  0.00    +0.000 A 
ATOM     16  H   UNL     1       0.599  12.396  20.833  0.00  0.00    +0.000 HD
ENDBRANCH   2   7
BRANCH   5  17
ATOM     17  S   UNL     1       5.213   4.453  18.656  0.00  0.00    +0.000 S 
ATOM     18  O   UNL     1       5.456   5.328  19.791  0.00  0.00    +0.000 OA
ATOM     19  O   UNL     1       5.172   3.013  18.864  0.00  0.00    +0.000 OA
BRANCH  17  20
ATOM     20  C   UNL     1       6.578   4.749  17.530  0.00  0.00    +0.000 C 
ATOM     21  C   UNL     1       6.354   5.802  16.451  0.00  0.00    +0.000 C 
ATOM     22  C   UNL     1       6.470   7.245  16.930  0.00  0.00    +0.000 C 
ATOM     23  C   UNL     1       7.747   7.507  17.725  0.00  0.00    +0.000 C 
ATOM     24  C   UNL     1       8.032   6.458  18.792  0.00  0.00    +0.000 C 
ATOM     25  C   UNL     1       7.897   5.023  18.287  0.00  0.00    +0.000 C 
ENDBRANCH  17  20
ENDBRANCH   5  17
TORSDOF 3
ENDMDL
MODEL 9
REMARK VINA RESULT:      -6.9      2.776      4.353
REMARK  Name = 
REMARK  3 active torsions:
REMARK  status: ('A' for Active; 'I' for Inactive)
REMARK    1  A    between atoms: C_2  and  C_3
REMARK    2  A    between atoms: C_14  and  S_15
REMARK    3  A    between atoms: S_15  and  C_18
REMARK                            x       y       z     vdW  Elec       q    Type
REMARK                         _______ _______ _______ _____ _____    ______ ____
ROOT
ATOM      1  O   UNL     1       1.748   5.921  20.912  0.00  0.00    +0.000 OA
ATOM      2  C   UNL     1       1.865   6.789  20.084  0.00  0.00    +0.000 C 
ATOM      3  N   UNL     1       2.272   6.606  18.768  0.00  0.00    +0.000 N 
ATOM      4  C   UNL     1       2.669   5.415  18.026  0.00  0.00    +0.000 C 
ATOM      5  C   UNL     1       3.839   6.223  17.457  0.00  0.00    +0.000 C 
ATOM      6  C   UNL     1       3.140   7.486  18.008  0.00  0.00    +0.000 C 
ENDROOT
BRANCH   2   7
ATOM      7  C   UNL     1       1.486   8.193  20.430  0.00  0.00    +0.000 A 
ATOM      8  C   UNL     1       1.272   8.567  21.762  0.00  0.00    +0.000 A 
ATOM      9  C   UNL     1       0.846   9.868  22.086  0.00  0.00    +0.000 A 
ATOM     10  C   UNL     1       0.637  10.750  21.018  0.00  0.00    +0.000 A 
ATOM     11  N   UNL     1       0.216  12.053  20.938  0.00  0.00    +0.000 N 
ATOM     12  C   UNL     1       0.172  12.409  19.619  0.00  0.00    +0.000 A 
ATOM     13  N   UNL     1       0.533  11.421  18.838  0.00  0.00    +0.000 NA
ATOM     14  C   UNL     1       0.820  10.392  19.693  0.00  0.00    +0.000 A 
ATOM     15  C   UNL     1       1.234   9.100  19.393  0.00  0.00    +0.000 A 
ATOM     16  H   UNL     1      -0.022  12.647  21.717  0.00  0.00    +0.000 HD
ENDBRANCH   2   7
BRANCH   5  17
ATOM     17  S   UNL     1       5.455   5.839  18.143  0.00  0.00    +0.000 S 
ATOM     18  O   UNL     1       6.410   6.861  17.745  0.00  0.00    +0.000 OA
ATOM     19  O   UNL     1       5.278   5.544  19.558  0.00  0.00    +0.000 OA
BRANCH  17  20
ATOM     20  C   UNL     1       6.046   4.321  17.395  0.00  0.00    +0.000 C 
ATOM     21  C   UNL     1       5.147   3.688  16.340  0.00  0.00    +0.000 C 
ATOM     22  C   UNL     1       5.200   4.354  14.969  0.00  0.00    +0.000 C 
ATOM     23  C   UNL     1       6.626   4.552  14.458  0.00  0.00    +0.000 C 
ATOM     24  C   UNL     1       7.571   5.149  15.492  0.00  0.00    +0.000 C 
ATOM     25  C   UNL     1       7.488   4.469  16.858  0.00  0.00    +0.000 C 
ENDBRANCH  17  20
ENDBRANCH   5  17
TORSDOF 3
ENDMDL
