MODEL 1
REMARK VINA RESULT:      -8.8      0.000      0.000
REMARK  Name = 
REMARK  3 active torsions:
REMARK  status: ('A' for Active; 'I' for Inactive)
REMARK    1  A    between atoms: C_2  and  C_3
REMARK    2  A    between atoms: N_12  and  C_13
REMARK    3  A    between atoms: C_16  and  C_17
REMARK                            x       y       z     vdW  Elec       q    Type
REMARK                         _______ _______ _______ _____ _____    ______ ____
ROOT
ATOM      1  C   UNL     1       0.260  11.227  19.919  0.00  0.00    +0.000 A 
ATOM      2  N   UNL     1       0.284  11.973  18.766  0.00  0.00    +0.000 NA
ATOM      3  N   UNL     1      -0.599  12.958  18.524  0.00  0.00    +0.000 NA
ATOM      4  C   UNL     1      -1.476  13.192  19.488  0.00  0.00    +0.000 A 
ATOM      5  C   UNL     1      -0.931  13.038  20.748  0.00  0.00    +0.000 A 
ATOM      6  C   UNL     1      -0.893  14.057  21.707  0.00  0.00    +0.000 A 
ATOM      7  C   UNL     1      -1.156  13.708  23.013  0.00  0.00    +0.000 A 
ATOM      8  C   UNL     1      -1.402  12.365  23.280  0.00  0.00    +0.000 A 
ATOM      9  C   UNL     1      -0.985  11.383  22.343  0.00  0.00    +0.000 A 
ATOM     10  C   UNL     1      -0.497  11.764  21.043  0.00  0.00    +0.000 A 
ENDROOT
BRANCH   1  16
ATOM     11  O   UNL     1       1.962   5.240  21.034  0.00  0.00    +0.000 OA
ATOM     12  C   UNL     1       2.184   5.858  19.990  0.00  0.00    +0.000 C 
ATOM     13  N   UNL     1       1.762   7.172  19.799  0.00  0.00    +0.000 N 
ATOM     14  C   UNL     1       2.186   8.117  18.740  0.00  0.00    +0.000 C 
ATOM     15  C   UNL     1       1.235   9.360  18.553  0.00  0.00    +0.000 C 
ATOM     16  N   UNL     1       0.991  10.033  19.830  0.00  0.00    +0.000 N 
ATOM     17  C   UNL     1       0.512   9.067  20.873  0.00  0.00    +0.000 C 
ATOM     18  C   UNL     1       1.408   7.862  21.049  0.00  0.00    +0.000 C 
BRANCH  12  19
ATOM     19  C   UNL     1       3.006   5.112  18.975  0.00  0.00    +0.000 A 
ATOM     20  C   UNL     1       4.390   5.180  18.930  0.00  0.00    +0.000 A 
ATOM     21  C   UNL     1       5.096   4.394  18.014  0.00  0.00    +0.000 A 
ATOM     22  C   UNL     1       4.405   3.601  17.094  0.00  0.00    +0.000 A 
ATOM     23  C   UNL     1       3.017   3.616  17.073  0.00  0.00    +0.000 A 
ATOM     24  C   UNL     1       2.312   4.367  18.009  0.00  0.00    +0.000 A 
ENDBRANCH  12  19
ENDBRANCH   1  16
BRANCH   4  25
ATOM     25  C   UNL     1      -2.791  12.440  19.246  0.00  0.00    +0.000 A 
ATOM     26  C   UNL     1      -2.976  11.572  18.155  0.00  0.00    +0.000 A 
ATOM     27  C   UNL     1      -4.208  10.920  17.946  0.00  0.00    +0.000 A 
ATOM     28  C   UNL     1      -5.297  11.146  18.820  0.00  0.00    +0.000 A 
ATOM     29 CL   UNL     1      -6.753  10.255  18.537  0.00  0.00    +0.000 Cl
ATOM     30  C   UNL     1      -5.156  12.052  19.843  0.00  0.00    +0.000 A 
ATOM     31 CL   UNL     1      -6.470  12.479  20.883  0.00  0.00    +0.000 Cl
ATOM     32  C   UNL     1      -3.924  12.688  20.056  0.00  0.00    +0.000 A 
ENDBRANCH   4  25
TORSDOF 3
ENDMDL
MODEL 2
REMARK VINA RESULT:      -8.7      3.270      4.553
REMARK  Name = 
REMARK  3 active torsions:
REMARK  status: ('A' for Active; 'I' for Inactive)
REMARK    1  A    between atoms: C_2  and  C_3
REMARK    2  A    between atoms: N_12  and  C_13
REMARK    3  A    between atoms: C_16  and  C_17
REMARK                            x       y       z     vdW  Elec       q    Type
REMARK                         _______ _______ _______ _____ _____    ______ ____
ROOT
ATOM      1  C   UNL     1       0.467  10.203  20.097  0.00  0.00    +0.000 A 
ATOM      2  N   UNL     1       1.059  10.616  21.265  0.00  0.00    +0.000 NA
ATOM      3  N   UNL     1       0.934  11.869  21.736  0.00  0.00    +0.000 NA
ATOM      4  C   UNL     1       0.167  12.677  21.020  0.00  0.00    +0.000 A 
ATOM      5  C   UNL     1      -0.920  12.026  20.471  0.00  0.00    +0.000 A 
ATOM      6  C   UNL     1      -2.250  12.387  20.724  0.00  0.00    +0.000 A 
ATOM      7  C   UNL     1      -3.126  12.357  19.662  0.00  0.00    +0.000 A 
ATOM      8  C   UNL     1      -2.630  11.935  18.433  0.00  0.00    +0.000 A 
ATOM      9  C   UNL     1      -1.424  11.187  18.391  0.00  0.00    +0.000 A 
ATOM     10  C   UNL     1      -0.610  11.032  19.569  0.00  0.00    +0.000 A 
ENDROOT
BRANCH   1  16
ATOM     11  O   UNL     1       4.287   6.373  16.823  0.00  0.00    +0.000 OA
ATOM     12  C   UNL     1       3.678   6.061  17.849  0.00  0.00    +0.000 C 
ATOM     13  N   UNL     1       2.867   6.961  18.537  0.00  0.00    +0.000 N 
ATOM     14  C   UNL     1       1.875   6.663  19.597  0.00  0.00    +0.000 C 
ATOM     15  C   UNL     1       1.433   7.914  20.448  0.00  0.00    +0.000 C 
ATOM     16  N   UNL     1       1.005   9.015  19.583  0.00  0.00    +0.000 N 
ATOM     17  C   UNL     1       2.046   9.334  18.552  0.00  0.00    +0.000 C 
ATOM     18  C   UNL     1       2.490   8.139  17.740  0.00  0.00    +0.000 C 
BRANCH  12  19
ATOM     19  C   UNL     1       3.820   4.619  18.255  0.00  0.00    +0.000 A 
ATOM     20  C   UNL     1       4.641   4.205  19.293  0.00  0.00    +0.000 A 
ATOM     21  C   UNL     1       4.659   2.860  19.672  0.00  0.00    +0.000 A 
ATOM     22  C   UNL     1       3.910   1.921  18.956  0.00  0.00    +0.000 A 
ATOM     23  C   UNL     1       3.171   2.323  17.852  0.00  0.00    +0.000 A 
ATOM     24  C   UNL     1       3.120   3.667  17.497  0.00  0.00    +0.000 A 
ENDBRANCH  12  19
ENDBRANCH   1  16
BRANCH   4  25
ATOM     25  C   UNL     1       0.996  13.513  20.036  0.00  0.00    +0.000 A 
ATOM     26  C   UNL     1       2.309  13.168  19.671  0.00  0.00    +0.000 A 
ATOM     27  C   UNL     1       3.053  13.975  18.787  0.00  0.00    +0.000 A 
ATOM     28  C   UNL     1       2.500  15.167  18.265  0.00  0.00    +0.000 A 
ATOM     29 CL   UNL     1       3.450  16.066  17.133  0.00  0.00    +0.000 Cl
ATOM     30  C   UNL     1       1.249  15.559  18.676  0.00  0.00    +0.000 A 
ATOM     31 CL   UNL     1       0.546  17.060  18.185  0.00  0.00    +0.000 Cl
ATOM     32  C   UNL     1       0.507  14.746  19.545  0.00  0.00    +0.000 A 
ENDBRANCH   4  25
TORSDOF 3
ENDMDL
MODEL 3
REMARK VINA RESULT:      -8.6      2.922      4.255
REMARK  Name = 
REMARK  3 active torsions:
REMARK  status: ('A' for Active; 'I' for Inactive)
REMARK    1  A    between atoms: C_2  and  C_3
REMARK    2  A    between atoms: N_12  and  C_13
REMARK    3  A    between atoms: C_16  and  C_17
REMARK                            x       y       z     vdW  Elec       q    Type
REMARK                         _______ _______ _______ _____ _____    ______ ____
ROOT
ATOM      1  C   UNL     1       0.197  10.704  20.492  0.00  0.00    +0.000 A 
ATOM      2  N   UNL     1       0.414  11.316  21.702  0.00  0.00    +0.000 NA
ATOM      3  N   UNL     1      -0.031  12.555  21.976  0.00  0.00    +0.000 NA
ATOM      4  C   UNL     1      -0.731  13.139  21.015  0.00  0.00    +0.000 A 
ATOM      5  C   UNL     1      -1.528  12.248  20.324  0.00  0.00    +0.000 A 
ATOM      6  C   UNL     1      -2.921  12.363  20.231  0.00  0.00    +0.000 A 
ATOM      7  C   UNL     1      -3.500  12.079  19.014  0.00  0.00    +0.000 A 
ATOM      8  C   UNL     1      -2.659  11.663  17.987  0.00  0.00    +0.000 A 
ATOM      9  C   UNL     1      -1.369  11.163  18.303  0.00  0.00    +0.000 A 
ATOM     10  C   UNL     1      -0.847  11.264  19.642  0.00  0.00    +0.000 A 
ENDROOT
BRANCH   1  16
ATOM     11  O   UNL     1       2.484   4.824  20.896  0.00  0.00    +0.000 OA
ATOM     12  C   UNL     1       2.625   5.575  19.928  0.00  0.00    +0.000 C 
ATOM     13  N   UNL     1       2.077   6.855  19.893  0.00  0.00    +0.000 N 
ATOM     14  C   UNL     1       2.388   7.951  18.946  0.00  0.00    +0.000 C 
ATOM     15  C   UNL     1       1.318   9.109  18.912  0.00  0.00    +0.000 C 
ATOM     16  N   UNL     1       1.037   9.605  20.260  0.00  0.00    +0.000 N 
ATOM     17  C   UNL     1       0.672   8.485  21.188  0.00  0.00    +0.000 C 
ATOM     18  C   UNL     1       1.683   7.361  21.217  0.00  0.00    +0.000 C 
BRANCH  12  19
ATOM     19  C   UNL     1       3.495   5.033  18.826  0.00  0.00    +0.000 A 
ATOM     20  C   UNL     1       2.986   4.367  17.722  0.00  0.00    +0.000 A 
ATOM     21  C   UNL     1       3.844   3.965  16.695  0.00  0.00    +0.000 A 
ATOM     22  C   UNL     1       5.222   4.164  16.816  0.00  0.00    +0.000 A 
ATOM     23  C   UNL     1       5.739   4.736  17.970  0.00  0.00    +0.000 A 
ATOM     24  C   UNL     1       4.883   5.173  18.977  0.00  0.00    +0.000 A 
ENDBRANCH  12  19
ENDBRANCH   1  16
BRANCH   4  25
ATOM     25  C   UNL     1       0.155  14.038  20.142  0.00  0.00    +0.000 A 
ATOM     26  C   UNL     1       1.559  13.950  20.149  0.00  0.00    +0.000 A 
ATOM     27  C   UNL     1       2.344  14.812  19.356  0.00  0.00    +0.000 A 
ATOM     28  C   UNL     1       1.734  15.804  18.554  0.00  0.00    +0.000 A 
ATOM     29 CL   UNL     1       2.761  16.776  17.558  0.00  0.00    +0.000 Cl
ATOM     30  C   UNL     1       0.369  15.954  18.600  0.00  0.00    +0.000 A 
ATOM     31 CL   UNL     1      -0.448  17.217  17.747  0.00  0.00    +0.000 Cl
ATOM     32  C   UNL     1      -0.410  15.086  19.378  0.00  0.00    +0.000 A 
ENDBRANCH   4  25
TORSDOF 3
ENDMDL
MODEL 4
REMARK VINA RESULT:      -8.5      0.729      1.357
REMARK  Name = 
REMARK  3 active torsions:
REMARK  status: ('A' for Active; 'I' for Inactive)
REMARK    1  A    between atoms: C_2  and  C_3
REMARK    2  A    between atoms: N_12  and  C_13
REMARK    3  A    between atoms: C_16  and  C_17
REMARK                            x       y       z     vdW  Elec       q    Type
REMARK                         _______ _______ _______ _____ _____    ______ ____
ROOT
ATOM      1  C   UNL     1       0.424  11.308  20.116  0.00  0.00    +0.000 A 
ATOM      2  N   UNL     1       0.575  12.137  19.031  0.00  0.00    +0.000 NA
ATOM      3  N   UNL     1      -0.238  13.183  18.802  0.00  0.00    +0.000 NA
ATOM      4  C   UNL     1      -1.177  13.391  19.713  0.00  0.00    +0.000 A 
ATOM      5  C   UNL     1      -0.743  13.113  20.993  0.00  0.00    +0.000 A 
ATOM      6  C   UNL     1      -0.732  14.053  22.031  0.00  0.00    +0.000 A 
ATOM      7  C   UNL     1      -1.115  13.621  23.281  0.00  0.00    +0.000 A 
ATOM      8  C   UNL     1      -1.445  12.277  23.421  0.00  0.00    +0.000 A 
ATOM      9  C   UNL     1      -1.002  11.347  22.444  0.00  0.00    +0.000 A 
ATOM     10  C   UNL     1      -0.394  11.799  21.218  0.00  0.00    +0.000 A 
ENDROOT
BRANCH   1  16
ATOM     11  O   UNL     1       1.900   5.237  21.084  0.00  0.00    +0.000 OA
ATOM     12  C   UNL     1       2.122   5.864  20.046  0.00  0.00    +0.000 C 
ATOM     13  N   UNL     1       1.751   7.198  19.888  0.00  0.00    +0.000 N 
ATOM     14  C   UNL     1       2.189   8.144  18.835  0.00  0.00    +0.000 C 
ATOM     15  C   UNL     1       1.286   9.428  18.694  0.00  0.00    +0.000 C 
ATOM     16  N   UNL     1       1.101  10.087  19.988  0.00  0.00    +0.000 N 
ATOM     17  C   UNL     1       0.607   9.123  21.025  0.00  0.00    +0.000 C 
ATOM     18  C   UNL     1       1.456   7.879  21.158  0.00  0.00    +0.000 C 
BRANCH  12  19
ATOM     19  C   UNL     1       2.888   5.104  18.997  0.00  0.00    +0.000 A 
ATOM     20  C   UNL     1       4.271   5.137  18.902  0.00  0.00    +0.000 A 
ATOM     21  C   UNL     1       4.922   4.339  17.958  0.00  0.00    +0.000 A 
ATOM     22  C   UNL     1       4.178   3.569  17.059  0.00  0.00    +0.000 A 
ATOM     23  C   UNL     1       2.791   3.620  17.089  0.00  0.00    +0.000 A 
ATOM     24  C   UNL     1       2.141   4.382  18.054  0.00  0.00    +0.000 A 
ENDBRANCH  12  19
ENDBRANCH   1  16
BRANCH   4  25
ATOM     25  C   UNL     1      -2.503  12.730  19.313  0.00  0.00    +0.000 A 
ATOM     26  C   UNL     1      -3.664  12.827  20.101  0.00  0.00    +0.000 A 
ATOM     27  C   UNL     1      -4.858  12.183  19.718  0.00  0.00    +0.000 A 
ATOM     28  C   UNL     1      -4.906  11.401  18.541  0.00  0.00    +0.000 A 
ATOM     29 CL   UNL     1      -6.425  10.699  18.103  0.00  0.00    +0.000 Cl
ATOM     30  C   UNL     1      -3.758  11.231  17.804  0.00  0.00    +0.000 A 
ATOM     31 CL   UNL     1      -3.697  10.196  16.421  0.00  0.00    +0.000 Cl
ATOM     32  C   UNL     1      -2.577  11.886  18.181  0.00  0.00    +0.000 A 
ENDBRANCH   4  25
TORSDOF 3
ENDMDL
MODEL 5
REMARK VINA RESULT:      -8.4      3.001      4.577
REMARK  Name = 
REMARK  3 active torsions:
REMARK  status: ('A' for Active; 'I' for Inactive)
REMARK    1  A    between atoms: C_2  and  C_3
REMARK    2  A    between atoms: N_12  and  C_13
REMARK    3  A    between atoms: C_16  and  C_17
REMARK                            x       y       z     vdW  Elec       q    Type
REMARK                         _______ _______ _______ _____ _____    ______ ____
ROOT
ATOM      1  C   UNL     1       0.882   9.688  19.786  0.00  0.00    +0.000 A 
ATOM      2  N   UNL     1       0.985  10.136  21.080  0.00  0.00    +0.000 NA
ATOM      3  N   UNL     1       0.400  11.271  21.501  0.00  0.00    +0.000 NA
ATOM      4  C   UNL     1      -0.319  11.916  20.594  0.00  0.00    +0.000 A 
ATOM      5  C   UNL     1      -0.989  11.060  19.743  0.00  0.00    +0.000 A 
ATOM      6  C   UNL     1      -2.381  11.048  19.591  0.00  0.00    +0.000 A 
ATOM      7  C   UNL     1      -2.878  10.888  18.317  0.00  0.00    +0.000 A 
ATOM      8  C   UNL     1      -1.958  10.711  17.289  0.00  0.00    +0.000 A 
ATOM      9  C   UNL     1      -0.636  10.301  17.602  0.00  0.00    +0.000 A 
ATOM     10  C   UNL     1      -0.180  10.258  18.968  0.00  0.00    +0.000 A 
ENDROOT
BRANCH   1  16
ATOM     11  O   UNL     1       3.705   4.044  19.388  0.00  0.00    +0.000 OA
ATOM     12  C   UNL     1       3.844   4.966  18.581  0.00  0.00    +0.000 C 
ATOM     13  N   UNL     1       3.175   6.180  18.714  0.00  0.00    +0.000 N 
ATOM     14  C   UNL     1       3.447   7.451  18.002  0.00  0.00    +0.000 C 
ATOM     15  C   UNL     1       2.274   8.501  18.068  0.00  0.00    +0.000 C 
ATOM     16  N   UNL     1       1.842   8.722  19.449  0.00  0.00    +0.000 N 
ATOM     17  C   UNL     1       1.521   7.428  20.134  0.00  0.00    +0.000 C 
ATOM     18  C   UNL     1       2.633   6.406  20.063  0.00  0.00    +0.000 C 
BRANCH  12  19
ATOM     19  C   UNL     1       4.846   4.705  17.488  0.00  0.00    +0.000 A 
ATOM     20  C   UNL     1       4.481   4.310  16.210  0.00  0.00    +0.000 A 
ATOM     21  C   UNL     1       5.457   4.168  15.221  0.00  0.00    +0.000 A 
ATOM     22  C   UNL     1       6.807   4.348  15.538  0.00  0.00    +0.000 A 
ATOM     23  C   UNL     1       7.177   4.640  16.844  0.00  0.00    +0.000 A 
ATOM     24  C   UNL     1       6.204   4.821  17.822  0.00  0.00    +0.000 A 
ENDBRANCH  12  19
ENDBRANCH   1  16
BRANCH   4  25
ATOM     25  C   UNL     1       0.501  13.016  19.906  0.00  0.00    +0.000 A 
ATOM     26  C   UNL     1       1.907  13.007  19.881  0.00  0.00    +0.000 A 
ATOM     27  C   UNL     1       2.629  14.049  19.265  0.00  0.00    +0.000 A 
ATOM     28  C   UNL     1       1.952  15.143  18.678  0.00  0.00    +0.000 A 
ATOM     29 CL   UNL     1       2.906  16.346  17.881  0.00  0.00    +0.000 Cl
ATOM     30  C   UNL     1       0.582  15.205  18.766  0.00  0.00    +0.000 A 
ATOM     31 CL   UNL     1      -0.317  16.562  18.184  0.00  0.00    +0.000 Cl
ATOM     32  C   UNL     1      -0.134  14.159  19.367  0.00  0.00    +0.000 A 
ENDBRANCH   4  25
TORSDOF 3
ENDMDL
MODEL 6
REMARK VINA RESULT:      -8.4      3.294      4.480
REMARK  Name = 
REMARK  3 active torsions:
REMARK  status: ('A' for Active; 'I' for Inactive)
REMARK    1  A    between atoms: C_2  and  C_3
REMARK    2  A    between atoms: N_12  and  C_13
REMARK    3  A    between atoms: C_16  and  C_17
REMARK                            x       y       z     vdW  Elec       q    Type
REMARK                         _______ _______ _______ _____ _____    ______ ____
ROOT
ATOM      1  C   UNL     1      -0.091  10.742  20.457  0.00  0.00    +0.000 A 
ATOM      2  N   UNL     1       0.489  11.159  21.630  0.00  0.00    +0.000 NA
ATOM      3  N   UNL     1       0.261  12.374  22.157  0.00  0.00    +0.000 NA
ATOM      4  C   UNL     1      -0.594  13.137  21.493  0.00  0.00    +0.000 A 
ATOM      5  C   UNL     1      -1.630  12.411  20.939  0.00  0.00    +0.000 A 
ATOM      6  C   UNL     1      -2.981  12.636  21.235  0.00  0.00    +0.000 A 
ATOM      7  C   UNL     1      -3.877  12.569  20.191  0.00  0.00    +0.000 A 
ATOM      8  C   UNL     1      -3.374  12.246  18.935  0.00  0.00    +0.000 A 
ATOM      9  C   UNL     1      -2.106  11.616  18.835  0.00  0.00    +0.000 A 
ATOM     10  C   UNL     1      -1.252  11.488  19.988  0.00  0.00    +0.000 A 
ENDROOT
BRANCH   1  16
ATOM     11  O   UNL     1       3.856   7.422  16.800  0.00  0.00    +0.000 OA
ATOM     12  C   UNL     1       3.388   7.035  17.873  0.00  0.00    +0.000 C 
ATOM     13  N   UNL     1       2.539   7.826  18.644  0.00  0.00    +0.000 N 
ATOM     14  C   UNL     1       1.694   7.406  19.787  0.00  0.00    +0.000 C 
ATOM     15  C   UNL     1       1.180   8.590  20.690  0.00  0.00    +0.000 C 
ATOM     16  N   UNL     1       0.541   9.630  19.882  0.00  0.00    +0.000 N 
ATOM     17  C   UNL     1       1.434  10.078  18.764  0.00  0.00    +0.000 C 
ATOM     18  C   UNL     1       1.947   8.948  17.900  0.00  0.00    +0.000 C 
BRANCH  12  19
ATOM     19  C   UNL     1       3.745   5.622  18.247  0.00  0.00    +0.000 A 
ATOM     20  C   UNL     1       4.852   5.303  19.017  0.00  0.00    +0.000 A 
ATOM     21  C   UNL     1       5.077   3.977  19.398  0.00  0.00    +0.000 A 
ATOM     22  C   UNL     1       4.230   2.964  18.938  0.00  0.00    +0.000 A 
ATOM     23  C   UNL     1       3.183   3.274  18.081  0.00  0.00    +0.000 A 
ATOM     24  C   UNL     1       2.935   4.599  17.733  0.00  0.00    +0.000 A 
ENDBRANCH  12  19
ENDBRANCH   1  16
BRANCH   4  25
ATOM     25  C   UNL     1       0.130  14.086  20.529  0.00  0.00    +0.000 A 
ATOM     26  C   UNL     1      -0.558  14.942  19.652  0.00  0.00    +0.000 A 
ATOM     27  C   UNL     1       0.140  15.780  18.758  0.00  0.00    +0.000 A 
ATOM     28  C   UNL     1       1.553  15.756  18.707  0.00  0.00    +0.000 A 
ATOM     29 CL   UNL     1       2.337  16.862  17.633  0.00  0.00    +0.000 Cl
ATOM     30  C   UNL     1       2.236  14.866  19.500  0.00  0.00    +0.000 A 
ATOM     31 CL   UNL     1       3.953  14.685  19.414  0.00  0.00    +0.000 Cl
ATOM     32  C   UNL     1       1.539  14.045  20.398  0.00  0.00    +0.000 A 
ENDBRANCH   4  25
TORSDOF 3
ENDMDL
MODEL 7
REMARK VINA RESULT:      -8.4      3.169      4.465
REMARK  Name = 
REMARK  3 active torsions:
REMARK  status: ('A' for Active; 'I' for Inactive)
REMARK    1  A    between atoms: C_2  and  C_3
REMARK    2  A    between atoms: N_12  and  C_13
REMARK    3  A    between atoms: C_16  and  C_17
REMARK                            x       y       z     vdW  Elec       q    Type
REMARK                         _______ _______ _______ _____ _____    ______ ____
ROOT
ATOM      1  C   UNL     1       0.199  10.609  20.505  0.00  0.00    +0.000 A 
ATOM      2  N   UNL     1       0.368  11.182  21.742  0.00  0.00    +0.000 NA
ATOM      3  N   UNL     1      -0.095  12.409  22.039  0.00  0.00    +0.000 NA
ATOM      4  C   UNL     1      -0.762  13.021  21.072  0.00  0.00    +0.000 A 
ATOM      5  C   UNL     1      -1.527  12.149  20.324  0.00  0.00    +0.000 A 
ATOM      6  C   UNL     1      -2.917  12.260  20.183  0.00  0.00    +0.000 A 
ATOM      7  C   UNL     1      -3.448  12.013  18.937  0.00  0.00    +0.000 A 
ATOM      8  C   UNL     1      -2.568  11.636  17.928  0.00  0.00    +0.000 A 
ATOM      9  C   UNL     1      -1.287  11.131  18.276  0.00  0.00    +0.000 A 
ATOM     10  C   UNL     1      -0.815  11.191  19.636  0.00  0.00    +0.000 A 
ENDROOT
BRANCH   1  16
ATOM     11  O   UNL     1       2.524   4.738  20.830  0.00  0.00    +0.000 OA
ATOM     12  C   UNL     1       2.683   5.513  19.884  0.00  0.00    +0.000 C 
ATOM     13  N   UNL     1       2.125   6.789  19.865  0.00  0.00    +0.000 N 
ATOM     14  C   UNL     1       2.450   7.909  18.951  0.00  0.00    +0.000 C 
ATOM     15  C   UNL     1       1.373   9.059  18.917  0.00  0.00    +0.000 C 
ATOM     16  N   UNL     1       1.053   9.521  20.269  0.00  0.00    +0.000 N 
ATOM     17  C   UNL     1       0.675   8.378  21.162  0.00  0.00    +0.000 C 
ATOM     18  C   UNL     1       1.694   7.261  21.190  0.00  0.00    +0.000 C 
BRANCH  12  19
ATOM     19  C   UNL     1       3.584   5.003  18.792  0.00  0.00    +0.000 A 
ATOM     20  C   UNL     1       3.108   4.357  17.662  0.00  0.00    +0.000 A 
ATOM     21  C   UNL     1       3.994   3.985  16.647  0.00  0.00    +0.000 A 
ATOM     22  C   UNL     1       5.367   4.194  16.806  0.00  0.00    +0.000 A 
ATOM     23  C   UNL     1       5.851   4.746  17.985  0.00  0.00    +0.000 A 
ATOM     24  C   UNL     1       4.967   5.153  18.980  0.00  0.00    +0.000 A 
ENDBRANCH  12  19
ENDBRANCH   1  16
BRANCH   4  25
ATOM     25  C   UNL     1       0.151  13.952  20.263  0.00  0.00    +0.000 A 
ATOM     26  C   UNL     1      -0.321  14.725  19.187  0.00  0.00    +0.000 A 
ATOM     27  C   UNL     1       0.552  15.547  18.446  0.00  0.00    +0.000 A 
ATOM     28  C   UNL     1       1.932  15.591  18.754  0.00  0.00    +0.000 A 
ATOM     29 CL   UNL     1       2.925  16.676  17.843  0.00  0.00    +0.000 Cl
ATOM     30  C   UNL     1       2.420  14.780  19.749  0.00  0.00    +0.000 A 
ATOM     31 CL   UNL     1       4.108  14.680  20.111  0.00  0.00    +0.000 Cl
ATOM     32  C   UNL     1       1.547  13.974  20.494  0.00  0.00    +0.000 A 
ENDBRANCH   4  25
TORSDOF 3
ENDMDL
MODEL 8
REMARK VINA RESULT:      -8.4      3.207      4.384
REMARK  Name = 
REMARK  3 active torsions:
REMARK  status: ('A' for Active; 'I' for Inactive)
REMARK    1  A    between atoms: C_2  and  C_3
REMARK    2  A    between atoms: N_12  and  C_13
REMARK    3  A    between atoms: C_16  and  C_17
REMARK                            x       y       z     vdW  Elec       q    Type
REMARK                         _______ _______ _______ _____ _____    ______ ____
ROOT
ATOM      1  C   UNL     1       0.238  10.913  20.321  0.00  0.00    +0.000 A 
ATOM      2  N   UNL     1       0.532  11.439  21.555  0.00  0.00    +0.000 NA
ATOM      3  N   UNL     1       0.036  12.616  21.976  0.00  0.00    +0.000 NA
ATOM      4  C   UNL     1      -0.790  13.224  21.138  0.00  0.00    +0.000 A 
ATOM      5  C   UNL     1      -1.591  12.336  20.448  0.00  0.00    +0.000 A 
ATOM      6  C   UNL     1      -2.991  12.357  20.493  0.00  0.00    +0.000 A 
ATOM      7  C   UNL     1      -3.666  12.131  19.314  0.00  0.00    +0.000 A 
ATOM      8  C   UNL     1      -2.905  11.862  18.181  0.00  0.00    +0.000 A 
ATOM      9  C   UNL     1      -1.560  11.433  18.333  0.00  0.00    +0.000 A 
ATOM     10  C   UNL     1      -0.918  11.463  19.622  0.00  0.00    +0.000 A 
ENDROOT
BRANCH   1  16
ATOM     11  O   UNL     1       2.858   5.174  19.910  0.00  0.00    +0.000 OA
ATOM     12  C   UNL     1       2.901   6.038  19.031  0.00  0.00    +0.000 C 
ATOM     13  N   UNL     1       2.283   7.278  19.176  0.00  0.00    +0.000 N 
ATOM     14  C   UNL     1       2.478   8.492  18.349  0.00  0.00    +0.000 C 
ATOM     15  C   UNL     1       1.348   9.579  18.507  0.00  0.00    +0.000 C 
ATOM     16  N   UNL     1       1.120   9.900  19.917  0.00  0.00    +0.000 N 
ATOM     17  C   UNL     1       0.872   8.662  20.726  0.00  0.00    +0.000 C 
ATOM     18  C   UNL     1       1.942   7.605  20.569  0.00  0.00    +0.000 C 
BRANCH  12  19
ATOM     19  C   UNL     1       3.732   5.678  17.829  0.00  0.00    +0.000 A 
ATOM     20  C   UNL     1       4.422   6.620  17.082  0.00  0.00    +0.000 A 
ATOM     21  C   UNL     1       5.243   6.206  16.029  0.00  0.00    +0.000 A 
ATOM     22  C   UNL     1       5.307   4.854  15.681  0.00  0.00    +0.000 A 
ATOM     23  C   UNL     1       4.532   3.926  16.365  0.00  0.00    +0.000 A 
ATOM     24  C   UNL     1       3.745   4.331  17.439  0.00  0.00    +0.000 A 
ENDBRANCH  12  19
ENDBRANCH   1  16
BRANCH   4  25
ATOM     25  C   UNL     1      -0.053  14.252  20.269  0.00  0.00    +0.000 A 
ATOM     26  C   UNL     1      -0.725  15.123  19.394  0.00  0.00    +0.000 A 
ATOM     27  C   UNL     1      -0.014  16.036  18.589  0.00  0.00    +0.000 A 
ATOM     28  C   UNL     1       1.399  16.076  18.626  0.00  0.00    +0.000 A 
ATOM     29 CL   UNL     1       2.195  17.270  17.660  0.00  0.00    +0.000 Cl
ATOM     30  C   UNL     1       2.073  15.175  19.416  0.00  0.00    +0.000 A 
ATOM     31 CL   UNL     1       3.799  15.074  19.430  0.00  0.00    +0.000 Cl
ATOM     32  C   UNL     1       1.361  14.280  20.226  0.00  0.00    +0.000 A 
ENDBRANCH   4  25
TORSDOF 3
ENDMDL
MODEL 9
REMARK VINA RESULT:      -8.4      1.346      1.664
REMARK  Name = 
REMARK  3 active torsions:
REMARK  status: ('A' for Active; 'I' for Inactive)
REMARK    1  A    between atoms: C_2  and  C_3
REMARK    2  A    between atoms: N_12  and  C_13
REMARK    3  A    between atoms: C_16  and  C_17
REMARK                            x       y       z     vdW  Elec       q    Type
REMARK                         _______ _______ _______ _____ _____    ______ ____
ROOT
ATOM      1  C   UNL     1       0.218  10.827  19.542  0.00  0.00    +0.000 A 
ATOM      2  N   UNL     1       0.284  11.818  18.593  0.00  0.00    +0.000 NA
ATOM      3  N   UNL     1      -0.514  12.900  18.621  0.00  0.00    +0.000 NA
ATOM      4  C   UNL     1      -1.347  12.972  19.648  0.00  0.00    +0.000 A 
ATOM      5  C   UNL     1      -0.793  12.484  20.814  0.00  0.00    +0.000 A 
ATOM      6  C   UNL     1      -0.645  13.245  21.981  0.00  0.00    +0.000 A 
ATOM      7  C   UNL     1      -0.912  12.622  23.180  0.00  0.00    +0.000 A 
ATOM      8  C   UNL     1      -1.268  11.278  23.139  0.00  0.00    +0.000 A 
ATOM      9  C   UNL     1      -0.958  10.512  21.985  0.00  0.00    +0.000 A 
ATOM     10  C   UNL     1      -0.465  11.146  20.789  0.00  0.00    +0.000 A 
ENDROOT
BRANCH   1  16
ATOM     11  O   UNL     1       4.335   6.960  16.701  0.00  0.00    +0.000 OA
ATOM     12  C   UNL     1       3.725   6.705  17.742  0.00  0.00    +0.000 C 
ATOM     13  N   UNL     1       2.846   7.612  18.330  0.00  0.00    +0.000 N 
ATOM     14  C   UNL     1       1.852   7.352  19.398  0.00  0.00    +0.000 C 
ATOM     15  C   UNL     1       1.315   8.645  20.121  0.00  0.00    +0.000 C 
ATOM     16  N   UNL     1       0.840   9.632  19.150  0.00  0.00    +0.000 N 
ATOM     17  C   UNL     1       1.881   9.920  18.110  0.00  0.00    +0.000 C 
ATOM     18  C   UNL     1       2.415   8.685  17.421  0.00  0.00    +0.000 C 
BRANCH  12  19
ATOM     19  C   UNL     1       3.946   5.319  18.284  0.00  0.00    +0.000 A 
ATOM     20  C   UNL     1       4.873   5.036  19.275  0.00  0.00    +0.000 A 
ATOM     21  C   UNL     1       4.966   3.741  19.791  0.00  0.00    +0.000 A 
ATOM     22  C   UNL     1       4.181   2.716  19.255  0.00  0.00    +0.000 A 
ATOM     23  C   UNL     1       3.329   2.981  18.192  0.00  0.00    +0.000 A 
ATOM     24  C   UNL     1       3.206   4.278  17.703  0.00  0.00    +0.000 A 
ENDBRANCH  12  19
ENDBRANCH   1  16
BRANCH   4  25
ATOM     25  C   UNL     1      -2.728  12.406  19.291  0.00  0.00    +0.000 A 
ATOM     26  C   UNL     1      -2.985  11.751  18.074  0.00  0.00    +0.000 A 
ATOM     27  C   UNL     1      -4.274  11.269  17.767  0.00  0.00    +0.000 A 
ATOM     28  C   UNL     1      -5.345  11.457  18.670  0.00  0.00    +0.000 A 
ATOM     29 CL   UNL     1      -6.879  10.776  18.252  0.00  0.00    +0.000 Cl
ATOM     30  C   UNL     1      -5.127  12.166  19.827  0.00  0.00    +0.000 A 
ATOM     31 CL   UNL     1      -6.404  12.547  20.928  0.00  0.00    +0.000 Cl
ATOM     32  C   UNL     1      -3.841  12.631  20.136  0.00  0.00    +0.000 A 
ENDBRANCH   4  25
TORSDOF 3
ENDMDL
