MODEL 1
REMARK VINA RESULT:      -7.6      0.000      0.000
REMARK  Name = 
REMARK  5 active torsions:
REMARK  status: ('A' for Active; 'I' for Inactive)
REMARK    1  A    between atoms: C_1  and  C_2
REMARK    2  A    between atoms: C_4  and  N_5
REMARK    3  A    between atoms: N_5  and  C_6
REMARK    4  A    between atoms: N_10  and  C_11
REMARK    5  A    between atoms: N_10  and  C_12
REMARK                            x       y       z     vdW  Elec       q    Type
REMARK                         _______ _______ _______ _____ _____    ______ ____
ROOT
ATOM      1  N   UNL     1       3.611   4.865  18.360  0.00  0.00    +0.000 N 
ATOM      2  H   UNL     1       2.949   4.094  18.236  0.00  0.00    +0.000 HD
ENDROOT
BRANCH   1   6
ATOM      3  C   UNL     1       6.296   3.929  14.286  0.00  0.00    +0.000 C 
ATOM      4  C   UNL     1       6.235   4.272  15.753  0.00  0.00    +0.000 A 
ATOM      5  C   UNL     1       4.878   4.358  16.363  0.00  0.00    +0.000 A 
ATOM      6  C   UNL     1       4.803   4.693  17.665  0.00  0.00    +0.000 A 
ATOM      7  N   UNL     1       6.013   4.942  18.345  0.00  0.00    +0.000 N 
ATOM      8  N   UNL     1       6.208   5.308  19.643  0.00  0.00    +0.000 NA
ATOM      9  C   UNL     1       7.539   5.353  19.715  0.00  0.00    +0.000 A 
ATOM     10  N   UNL     1       8.210   5.070  18.568  0.00  0.00    +0.000 NA
ATOM     11  C   UNL     1       7.256   4.815  17.701  0.00  0.00    +0.000 A 
ATOM     12  N   UNL     1       7.353   4.480  16.382  0.00  0.00    +0.000 NA
ENDBRANCH   1   6
BRANCH   1  13
ATOM     13  C   UNL     1       3.000   6.084  18.699  0.00  0.00    +0.000 A 
ATOM     14  C   UNL     1       2.964   7.115  17.773  0.00  0.00    +0.000 A 
ATOM     15  C   UNL     1       2.325   8.326  18.082  0.00  0.00    +0.000 A 
ATOM     16  C   UNL     1       1.728   8.530  19.325  0.00  0.00    +0.000 A 
ATOM     17  N   UNL     1       1.142   9.724  19.695  0.00  0.00    +0.000 N 
ATOM     18  C   UNL     1       0.557   9.846  21.027  0.00  0.00    +0.000 C 
ATOM     19  C   UNL     1       0.882  10.838  18.799  0.00  0.00    +0.000 C 
ATOM     20  N   UNL     1       1.756   7.522  20.226  0.00  0.00    +0.000 NA
ATOM     21  C   UNL     1       2.373   6.354  19.908  0.00  0.00    +0.000 A 
ENDBRANCH   1  13
TORSDOF 2
ENDMDL
MODEL 2
REMARK VINA RESULT:      -7.5      0.628      1.355
REMARK  Name = 
REMARK  5 active torsions:
REMARK  status: ('A' for Active; 'I' for Inactive)
REMARK    1  A    between atoms: C_1  and  C_2
REMARK    2  A    between atoms: C_4  and  N_5
REMARK    3  A    between atoms: N_5  and  C_6
REMARK    4  A    between atoms: N_10  and  C_11
REMARK    5  A    between atoms: N_10  and  C_12
REMARK                            x       y       z     vdW  Elec       q    Type
REMARK                         _______ _______ _______ _____ _____    ______ ____
ROOT
ATOM      1  N   UNL     1       3.607   4.607  18.341  0.00  0.00    +0.000 N 
ATOM      2  H   UNL     1       2.971   3.831  18.141  0.00  0.00    +0.000 HD
ENDROOT
BRANCH   1   6
ATOM      3  C   UNL     1       6.347   3.955  14.248  0.00  0.00    +0.000 C 
ATOM      4  C   UNL     1       6.264   4.262  15.722  0.00  0.00    +0.000 A 
ATOM      5  C   UNL     1       4.905   4.236  16.334  0.00  0.00    +0.000 A 
ATOM      6  C   UNL     1       4.808   4.538  17.642  0.00  0.00    +0.000 A 
ATOM      7  N   UNL     1       5.998   4.859  18.327  0.00  0.00    +0.000 N 
ATOM      8  N   UNL     1       6.168   5.212  19.633  0.00  0.00    +0.000 NA
ATOM      9  C   UNL     1       7.492   5.352  19.706  0.00  0.00    +0.000 A 
ATOM     10  N   UNL     1       8.180   5.142  18.553  0.00  0.00    +0.000 NA
ATOM     11  C   UNL     1       7.245   4.837  17.681  0.00  0.00    +0.000 A 
ATOM     12  N   UNL     1       7.364   4.537  16.355  0.00  0.00    +0.000 NA
ENDBRANCH   1   6
BRANCH   1  13
ATOM     13  C   UNL     1       2.957   5.771  18.787  0.00  0.00    +0.000 A 
ATOM     14  C   UNL     1       2.370   5.791  20.043  0.00  0.00    +0.000 A 
ATOM     15  C   UNL     1       1.750   6.956  20.519  0.00  0.00    +0.000 A 
ATOM     16  C   UNL     1       1.692   8.112  19.742  0.00  0.00    +0.000 A 
ATOM     17  N   UNL     1       1.041   9.260  20.143  0.00  0.00    +0.000 N 
ATOM     18  C   UNL     1       1.021  10.415  19.250  0.00  0.00    +0.000 C 
ATOM     19  C   UNL     1       0.518   9.499  21.478  0.00  0.00    +0.000 C 
ATOM     20  N   UNL     1       2.271   8.095  18.520  0.00  0.00    +0.000 NA
ATOM     21  C   UNL     1       2.873   6.961  18.077  0.00  0.00    +0.000 A 
ENDBRANCH   1  13
TORSDOF 2
ENDMDL
MODEL 3
REMARK VINA RESULT:      -7.3      2.034      6.687
REMARK  Name = 
REMARK  5 active torsions:
REMARK  status: ('A' for Active; 'I' for Inactive)
REMARK    1  A    between atoms: C_1  and  C_2
REMARK    2  A    between atoms: C_4  and  N_5
REMARK    3  A    between atoms: N_5  and  C_6
REMARK    4  A    between atoms: N_10  and  C_11
REMARK    5  A    between atoms: N_10  and  C_12
REMARK                            x       y       z     vdW  Elec       q    Type
REMARK                         _______ _______ _______ _____ _____    ______ ____
ROOT
ATOM      1  N   UNL     1       5.531   4.219  18.309  0.00  0.00    +0.000 N 
ATOM      2  H   UNL     1       6.251   3.999  19.002  0.00  0.00    +0.000 HD
ENDROOT
BRANCH   1   6
ATOM      3  C   UNL     1       2.244   7.922  18.723  0.00  0.00    +0.000 C 
ATOM      4  C   UNL     1       2.722   6.554  19.142  0.00  0.00    +0.000 A 
ATOM      5  C   UNL     1       3.981   6.065  18.511  0.00  0.00    +0.000 A 
ATOM      6  C   UNL     1       4.407   4.834  18.851  0.00  0.00    +0.000 A 
ATOM      7  N   UNL     1       3.626   4.104  19.771  0.00  0.00    +0.000 N 
ATOM      8  N   UNL     1       3.826   2.848  20.260  0.00  0.00    +0.000 NA
ATOM      9  C   UNL     1       2.803   2.720  21.105  0.00  0.00    +0.000 A 
ATOM     10  N   UNL     1       1.953   3.778  21.180  0.00  0.00    +0.000 NA
ATOM     11  C   UNL     1       2.462   4.650  20.339  0.00  0.00    +0.000 A 
ATOM     12  N   UNL     1       2.012   5.894  20.006  0.00  0.00    +0.000 NA
ENDBRANCH   1   6
BRANCH   1  13
ATOM     13  C   UNL     1       6.030   4.372  17.004  0.00  0.00    +0.000 A 
ATOM     14  C   UNL     1       5.519   3.592  15.978  0.00  0.00    +0.000 A 
ATOM     15  C   UNL     1       5.979   3.757  14.663  0.00  0.00    +0.000 A 
ATOM     16  C   UNL     1       6.967   4.693  14.356  0.00  0.00    +0.000 A 
ATOM     17  N   UNL     1       7.492   4.849  13.090  0.00  0.00    +0.000 N 
ATOM     18  C   UNL     1       8.536   5.846  12.872  0.00  0.00    +0.000 C 
ATOM     19  C   UNL     1       6.964   4.230  11.886  0.00  0.00    +0.000 C 
ATOM     20  N   UNL     1       7.459   5.460  15.355  0.00  0.00    +0.000 NA
ATOM     21  C   UNL     1       6.998   5.291  16.622  0.00  0.00    +0.000 A 
ENDBRANCH   1  13
TORSDOF 2
ENDMDL
MODEL 4
REMARK VINA RESULT:      -7.2      1.890      2.723
REMARK  Name = 
REMARK  5 active torsions:
REMARK  status: ('A' for Active; 'I' for Inactive)
REMARK    1  A    between atoms: C_1  and  C_2
REMARK    2  A    between atoms: C_4  and  N_5
REMARK    3  A    between atoms: N_5  and  C_6
REMARK    4  A    between atoms: N_10  and  C_11
REMARK    5  A    between atoms: N_10  and  C_12
REMARK                            x       y       z     vdW  Elec       q    Type
REMARK                         _______ _______ _______ _____ _____    ______ ____
ROOT
ATOM      1  N   UNL     1       2.853   6.477  17.833  0.00  0.00    +0.000 N 
ATOM      2  H   UNL     1       2.672   6.446  16.827  0.00  0.00    +0.000 HD
ENDROOT
BRANCH   1   6
ATOM      3  C   UNL     1       7.777   6.212  18.438  0.00  0.00    +0.000 C 
ATOM      4  C   UNL     1       6.415   5.580  18.573  0.00  0.00    +0.000 A 
ATOM      5  C   UNL     1       5.259   6.373  18.067  0.00  0.00    +0.000 A 
ATOM      6  C   UNL     1       4.031   5.838  18.207  0.00  0.00    +0.000 A 
ATOM      7  N   UNL     1       3.937   4.574  18.825  0.00  0.00    +0.000 N 
ATOM      8  N   UNL     1       2.826   3.833  19.097  0.00  0.00    +0.000 NA
ATOM      9  C   UNL     1       3.358   2.737  19.639  0.00  0.00    +0.000 A 
ATOM     10  N   UNL     1       4.712   2.725  19.759  0.00  0.00    +0.000 NA
ATOM     11  C   UNL     1       5.082   3.881  19.253  0.00  0.00    +0.000 A 
ATOM     12  N   UNL     1       6.334   4.407  19.124  0.00  0.00    +0.000 NA
ENDBRANCH   1   6
BRANCH   1  13
ATOM     13  C   UNL     1       2.237   7.559  18.486  0.00  0.00    +0.000 A 
ATOM     14  C   UNL     1       1.862   8.677  17.757  0.00  0.00    +0.000 A 
ATOM     15  C   UNL     1       1.212   9.750  18.386  0.00  0.00    +0.000 A 
ATOM     16  C   UNL     1       0.941   9.728  19.753  0.00  0.00    +0.000 A 
ATOM     17  N   UNL     1       0.360  10.784  20.425  0.00  0.00    +0.000 N 
ATOM     18  C   UNL     1       0.132  10.673  21.863  0.00  0.00    +0.000 C 
ATOM     19  C   UNL     1      -0.231  11.951  19.792  0.00  0.00    +0.000 C 
ATOM     20  N   UNL     1       1.300   8.635  20.463  0.00  0.00    +0.000 NA
ATOM     21  C   UNL     1       1.923   7.602  19.837  0.00  0.00    +0.000 A 
ENDBRANCH   1  13
TORSDOF 2
ENDMDL
MODEL 5
REMARK VINA RESULT:      -7.1      1.684      2.640
REMARK  Name = 
REMARK  5 active torsions:
REMARK  status: ('A' for Active; 'I' for Inactive)
REMARK    1  A    between atoms: C_1  and  C_2
REMARK    2  A    between atoms: C_4  and  N_5
REMARK    3  A    between atoms: N_5  and  C_6
REMARK    4  A    between atoms: N_10  and  C_11
REMARK    5  A    between atoms: N_10  and  C_12
REMARK                            x       y       z     vdW  Elec       q    Type
REMARK                         _______ _______ _______ _____ _____    ______ ____
ROOT
ATOM      1  N   UNL     1       3.605   6.126  17.792  0.00  0.00    +0.000 N 
ATOM      2  H   UNL     1       3.067   5.465  17.226  0.00  0.00    +0.000 HD
ENDROOT
BRANCH   1   6
ATOM      3  C   UNL     1       8.052   8.342  17.787  0.00  0.00    +0.000 C 
ATOM      4  C   UNL     1       7.141   7.253  17.277  0.00  0.00    +0.000 A 
ATOM      5  C   UNL     1       5.740   7.264  17.786  0.00  0.00    +0.000 A 
ATOM      6  C   UNL     1       4.920   6.282  17.366  0.00  0.00    +0.000 A 
ATOM      7  N   UNL     1       5.454   5.320  16.483  0.00  0.00    +0.000 N 
ATOM      8  N   UNL     1       4.846   4.232  15.931  0.00  0.00    +0.000 NA
ATOM      9  C   UNL     1       5.820   3.738  15.166  0.00  0.00    +0.000 A 
ATOM     10  N   UNL     1       7.005   4.403  15.200  0.00  0.00    +0.000 NA
ATOM     11  C   UNL     1       6.782   5.397  16.031  0.00  0.00    +0.000 A 
ATOM     12  N   UNL     1       7.629   6.382  16.448  0.00  0.00    +0.000 NA
ENDBRANCH   1   6
BRANCH   1  13
ATOM     13  C   UNL     1       2.813   7.083  18.450  0.00  0.00    +0.000 A 
ATOM     14  C   UNL     1       2.377   8.205  17.761  0.00  0.00    +0.000 A 
ATOM     15  C   UNL     1       1.555   9.151  18.392  0.00  0.00    +0.000 A 
ATOM     16  C   UNL     1       1.168   8.998  19.723  0.00  0.00    +0.000 A 
ATOM     17  N   UNL     1       0.412   9.931  20.402  0.00  0.00    +0.000 N 
ATOM     18  C   UNL     1       0.072   9.688  21.801  0.00  0.00    +0.000 C 
ATOM     19  C   UNL     1      -0.251  11.071  19.791  0.00  0.00    +0.000 C 
ATOM     20  N   UNL     1       1.586   7.900  20.392  0.00  0.00    +0.000 NA
ATOM     21  C   UNL     1       2.377   6.991  19.765  0.00  0.00    +0.000 A 
ENDBRANCH   1  13
TORSDOF 2
ENDMDL
MODEL 6
REMARK VINA RESULT:      -7.1      2.061      3.511
REMARK  Name = 
REMARK  5 active torsions:
REMARK  status: ('A' for Active; 'I' for Inactive)
REMARK    1  A    between atoms: C_1  and  C_2
REMARK    2  A    between atoms: C_4  and  N_5
REMARK    3  A    between atoms: N_5  and  C_6
REMARK    4  A    between atoms: N_10  and  C_11
REMARK    5  A    between atoms: N_10  and  C_12
REMARK                            x       y       z     vdW  Elec       q    Type
REMARK                         _______ _______ _______ _____ _____    ______ ____
ROOT
ATOM      1  N   UNL     1       2.814   6.629  20.039  0.00  0.00    +0.000 N 
ATOM      2  H   UNL     1       3.202   6.478  20.974  0.00  0.00    +0.000 HD
ENDROOT
BRANCH   1   6
ATOM      3  C   UNL     1       0.700   2.315  18.774  0.00  0.00    +0.000 C 
ATOM      4  C   UNL     1       1.770   3.354  18.549  0.00  0.00    +0.000 A 
ATOM      5  C   UNL     1       1.781   4.513  19.487  0.00  0.00    +0.000 A 
ATOM      6  C   UNL     1       2.710   5.466  19.284  0.00  0.00    +0.000 A 
ATOM      7  N   UNL     1       3.593   5.295  18.197  0.00  0.00    +0.000 N 
ATOM      8  N   UNL     1       4.598   6.111  17.772  0.00  0.00    +0.000 NA
ATOM      9  C   UNL     1       5.096   5.417  16.749  0.00  0.00    +0.000 A 
ATOM     10  N   UNL     1       4.480   4.239  16.469  0.00  0.00    +0.000 NA
ATOM     11  C   UNL     1       3.530   4.159  17.373  0.00  0.00    +0.000 A 
ATOM     12  N   UNL     1       2.594   3.183  17.561  0.00  0.00    +0.000 NA
ENDBRANCH   1   6
BRANCH   1  13
ATOM     13  C   UNL     1       2.003   7.773  19.943  0.00  0.00    +0.000 A 
ATOM     14  C   UNL     1       1.886   8.432  18.729  0.00  0.00    +0.000 A 
ATOM     15  C   UNL     1       1.052   9.554  18.606  0.00  0.00    +0.000 A 
ATOM     16  C   UNL     1       0.334  10.042  19.698  0.00  0.00    +0.000 A 
ATOM     17  N   UNL     1      -0.451  11.175  19.640  0.00  0.00    +0.000 N 
ATOM     18  C   UNL     1      -1.151  11.617  20.842  0.00  0.00    +0.000 C 
ATOM     19  C   UNL     1      -0.803  11.884  18.421  0.00  0.00    +0.000 C 
ATOM     20  N   UNL     1       0.441   9.394  20.880  0.00  0.00    +0.000 NA
ATOM     21  C   UNL     1       1.249   8.306  20.980  0.00  0.00    +0.000 A 
ENDBRANCH   1  13
TORSDOF 2
ENDMDL
MODEL 7
REMARK VINA RESULT:      -7.0      2.413      3.635
REMARK  Name = 
REMARK  5 active torsions:
REMARK  status: ('A' for Active; 'I' for Inactive)
REMARK    1  A    between atoms: C_1  and  C_2
REMARK    2  A    between atoms: C_4  and  N_5
REMARK    3  A    between atoms: N_5  and  C_6
REMARK    4  A    between atoms: N_10  and  C_11
REMARK    5  A    between atoms: N_10  and  C_12
REMARK                            x       y       z     vdW  Elec       q    Type
REMARK                         _______ _______ _______ _____ _____    ______ ____
ROOT
ATOM      1  N   UNL     1       2.726   6.507  20.088  0.00  0.00    +0.000 N 
ATOM      2  H   UNL     1       2.747   6.083  21.019  0.00  0.00    +0.000 HD
ENDROOT
BRANCH   1   6
ATOM      3  C   UNL     1       5.210   4.784  16.146  0.00  0.00    +0.000 C 
ATOM      4  C   UNL     1       4.085   4.637  17.140  0.00  0.00    +0.000 A 
ATOM      5  C   UNL     1       3.936   5.729  18.144  0.00  0.00    +0.000 A 
ATOM      6  C   UNL     1       2.956   5.600  19.058  0.00  0.00    +0.000 A 
ATOM      7  N   UNL     1       2.155   4.441  18.998  0.00  0.00    +0.000 N 
ATOM      8  N   UNL     1       1.123   4.069  19.806  0.00  0.00    +0.000 NA
ATOM      9  C   UNL     1       0.738   2.924  19.243  0.00  0.00    +0.000 A 
ATOM     10  N   UNL     1       1.451   2.520  18.158  0.00  0.00    +0.000 NA
ATOM     11  C   UNL     1       2.348   3.469  18.002  0.00  0.00    +0.000 A 
ATOM     12  N   UNL     1       3.336   3.579  17.069  0.00  0.00    +0.000 NA
ENDBRANCH   1   6
BRANCH   1  13
ATOM     13  C   UNL     1       1.961   7.684  20.020  0.00  0.00    +0.000 A 
ATOM     14  C   UNL     1       1.882   8.383  18.825  0.00  0.00    +0.000 A 
ATOM     15  C   UNL     1       1.093   9.540  18.729  0.00  0.00    +0.000 A 
ATOM     16  C   UNL     1       0.385  10.024  19.829  0.00  0.00    +0.000 A 
ATOM     17  N   UNL     1      -0.353  11.189  19.799  0.00  0.00    +0.000 N 
ATOM     18  C   UNL     1      -1.046  11.623  21.008  0.00  0.00    +0.000 C 
ATOM     19  C   UNL     1      -0.666  11.946  18.599  0.00  0.00    +0.000 C 
ATOM     20  N   UNL     1       0.456   9.338  20.992  0.00  0.00    +0.000 NA
ATOM     21  C   UNL     1       1.219   8.217  21.066  0.00  0.00    +0.000 A 
ENDBRANCH   1  13
TORSDOF 2
ENDMDL
MODEL 8
REMARK VINA RESULT:      -7.0      2.105      3.805
REMARK  Name = 
REMARK  5 active torsions:
REMARK  status: ('A' for Active; 'I' for Inactive)
REMARK    1  A    between atoms: C_1  and  C_2
REMARK    2  A    between atoms: C_4  and  N_5
REMARK    3  A    between atoms: N_5  and  C_6
REMARK    4  A    between atoms: N_10  and  C_11
REMARK    5  A    between atoms: N_10  and  C_12
REMARK                            x       y       z     vdW  Elec       q    Type
REMARK                         _______ _______ _______ _____ _____    ______ ____
ROOT
ATOM      1  N   UNL     1       2.689   6.636  20.170  0.00  0.00    +0.000 N 
ATOM      2  H   UNL     1       3.066   6.469  21.106  0.00  0.00    +0.000 HD
ENDROOT
BRANCH   1   6
ATOM      3  C   UNL     1       0.687   2.300  18.800  0.00  0.00    +0.000 C 
ATOM      4  C   UNL     1       1.729   3.371  18.602  0.00  0.00    +0.000 A 
ATOM      5  C   UNL     1       1.711   4.507  19.567  0.00  0.00    +0.000 A 
ATOM      6  C   UNL     1       2.615   5.488  19.387  0.00  0.00    +0.000 A 
ATOM      7  N   UNL     1       3.502   5.366  18.298  0.00  0.00    +0.000 N 
ATOM      8  N   UNL     1       4.487   6.217  17.893  0.00  0.00    +0.000 NA
ATOM      9  C   UNL     1       5.003   5.561  16.854  0.00  0.00    +0.000 A 
ATOM     10  N   UNL     1       4.417   4.373  16.546  0.00  0.00    +0.000 NA
ATOM     11  C   UNL     1       3.469   4.248  17.447  0.00  0.00    +0.000 A 
ATOM     12  N   UNL     1       2.559   3.245  17.610  0.00  0.00    +0.000 NA
ENDBRANCH   1   6
BRANCH   1  13
ATOM     13  C   UNL     1       1.860   7.768  20.088  0.00  0.00    +0.000 A 
ATOM     14  C   UNL     1       1.119   8.158  21.193  0.00  0.00    +0.000 A 
ATOM     15  C   UNL     1       0.315   9.307  21.140  0.00  0.00    +0.000 A 
ATOM     16  C   UNL     1       0.228  10.074  19.978  0.00  0.00    +0.000 A 
ATOM     17  N   UNL     1      -0.595  11.175  19.860  0.00  0.00    +0.000 N 
ATOM     18  C   UNL     1      -0.630  11.904  18.596  0.00  0.00    +0.000 C 
ATOM     19  C   UNL     1      -1.308  11.804  20.959  0.00  0.00    +0.000 C 
ATOM     20  N   UNL     1       0.956   9.698  18.903  0.00  0.00    +0.000 NA
ATOM     21  C   UNL     1       1.734   8.586  18.973  0.00  0.00    +0.000 A 
ENDBRANCH   1  13
TORSDOF 2
ENDMDL
MODEL 9
REMARK VINA RESULT:      -7.0      1.124      2.550
REMARK  Name = 
REMARK  5 active torsions:
REMARK  status: ('A' for Active; 'I' for Inactive)
REMARK    1  A    between atoms: C_1  and  C_2
REMARK    2  A    between atoms: C_4  and  N_5
REMARK    3  A    between atoms: N_5  and  C_6
REMARK    4  A    between atoms: N_10  and  C_11
REMARK    5  A    between atoms: N_10  and  C_12
REMARK                            x       y       z     vdW  Elec       q    Type
REMARK                         _______ _______ _______ _____ _____    ______ ____
ROOT
ATOM      1  N   UNL     1       3.633   5.690  17.848  0.00  0.00    +0.000 N 
ATOM      2  H   UNL     1       3.146   5.215  17.085  0.00  0.00    +0.000 HD
ENDROOT
BRANCH   1   6
ATOM      3  C   UNL     1       8.149   5.505  19.913  0.00  0.00    +0.000 C 
ATOM      4  C   UNL     1       7.271   5.389  18.691  0.00  0.00    +0.000 A 
ATOM      5  C   UNL     1       5.818   5.655  18.887  0.00  0.00    +0.000 A 
ATOM      6  C   UNL     1       5.015   5.527  17.814  0.00  0.00    +0.000 A 
ATOM      7  N   UNL     1       5.611   5.145  16.594  0.00  0.00    +0.000 N 
ATOM      8  N   UNL     1       5.025   4.934  15.382  0.00  0.00    +0.000 NA
ATOM      9  C   UNL     1       6.079   4.641  14.620  0.00  0.00    +0.000 A 
ATOM     10  N   UNL     1       7.285   4.624  15.246  0.00  0.00    +0.000 NA
ATOM     11  C   UNL     1       6.996   4.936  16.490  0.00  0.00    +0.000 A 
ATOM     12  N   UNL     1       7.827   5.058  17.565  0.00  0.00    +0.000 NA
ENDBRANCH   1   6
BRANCH   1  13
ATOM     13  C   UNL     1       2.926   6.783  18.378  0.00  0.00    +0.000 A 
ATOM     14  C   UNL     1       2.652   7.879  17.573  0.00  0.00    +0.000 A 
ATOM     15  C   UNL     1       1.915   8.962  18.074  0.00  0.00    +0.000 A 
ATOM     16  C   UNL     1       1.455   8.975  19.391  0.00  0.00    +0.000 A 
ATOM     17  N   UNL     1       0.780  10.043  19.945  0.00  0.00    +0.000 N 
ATOM     18  C   UNL     1       0.352   9.968  21.339  0.00  0.00    +0.000 C 
ATOM     19  C   UNL     1       0.278  11.188  19.203  0.00  0.00    +0.000 C 
ATOM     20  N   UNL     1       1.715   7.903  20.173  0.00  0.00    +0.000 NA
ATOM     21  C   UNL     1       2.425   6.860  19.670  0.00  0.00    +0.000 A 
ENDBRANCH   1  13
TORSDOF 2
ENDMDL
