MODEL 1
REMARK VINA RESULT:      -7.8      0.000      0.000
REMARK  Name = 
REMARK  4 active torsions:
REMARK  status: ('A' for Active; 'I' for Inactive)
REMARK    1  A    between atoms: C_2  and  C_19
REMARK    2  A    between atoms: N_3  and  C_4
REMARK    3  A    between atoms: C_7  and  S_8
REMARK    4  A    between atoms: S_8  and  N_11
REMARK                            x       y       z     vdW  Elec       q    Type
REMARK                         _______ _______ _______ _____ _____    ______ ____
ROOT
ATOM      1  C   UNL     1       8.128   7.777  18.439  0.00  0.00    +0.000 A 
ATOM      2  C   UNL     1       7.237   7.927  17.372  0.00  0.00    +0.000 A 
ATOM      3  C   UNL     1       6.417   6.877  16.964  0.00  0.00    +0.000 A 
ATOM      4  C   UNL     1       6.496   5.649  17.615  0.00  0.00    +0.000 A 
ATOM      5  C   UNL     1       7.381   5.472  18.681  0.00  0.00    +0.000 A 
ATOM      6  C   UNL     1       8.209   6.533  19.079  0.00  0.00    +0.000 A 
ENDROOT
BRANCH   1   9
ATOM      7  O   UNL     1       8.051  10.579  17.681  0.00  0.00    +0.000 OA
ATOM      8  C   UNL     1       8.909  10.146  18.449  0.00  0.00    +0.000 C 
ATOM      9  N   UNL     1       8.957   8.828  18.889  0.00  0.00    +0.000 N 
ATOM     10  H   UNL     1       9.589   8.633  19.656  0.00  0.00    +0.000 HD
BRANCH   8  11
ATOM     11  C   UNL     1       9.928  11.045  18.978  0.00  0.00    +0.000 A 
ATOM     12  C   UNL     1      10.093  11.370  20.314  0.00  0.00    +0.000 A 
ATOM     13  C   UNL     1      11.127  12.321  20.529  0.00  0.00    +0.000 A 
ATOM     14  C   UNL     1      11.727  12.691  19.347  0.00  0.00    +0.000 A 
ATOM     15  S   UNL     1      11.053  11.881  17.997  0.00  0.00    +0.000 S 
ENDBRANCH   8  11
ENDBRANCH   1   9
BRANCH   4  16
ATOM     16  S   UNL     1       5.372   4.365  17.125  0.00  0.00    +0.000 S 
ATOM     17  O   UNL     1       4.051   4.955  17.040  0.00  0.00    +0.000 OA
ATOM     18  O   UNL     1       5.957   3.679  15.993  0.00  0.00    +0.000 OA
BRANCH  16  19
ATOM     19  N   UNL     1       5.348   3.382  18.504  0.00  0.00    +0.000 N 
ATOM     20  C   UNL     1       4.030   3.086  18.916  0.00  0.00    +0.000 A 
ATOM     21  N   UNL     1       3.511   3.755  19.913  0.00  0.00    +0.000 NA
ATOM     22  C   UNL     1       2.220   3.307  20.125  0.00  0.00    +0.000 A 
ATOM     23  C   UNL     1       1.834   2.221  19.367  0.00  0.00    +0.000 A 
ATOM     24  S   UNL     1       3.106   1.789  18.297  0.00  0.00    +0.000 S 
ATOM     25  H   UNL     1       5.804   3.929  19.235  0.00  0.00    +0.000 HD
ENDBRANCH  16  19
ENDBRANCH   4  16
TORSDOF 4
ENDMDL
MODEL 2
REMARK VINA RESULT:      -7.6      1.684      2.151
REMARK  Name = 
REMARK  4 active torsions:
REMARK  status: ('A' for Active; 'I' for Inactive)
REMARK    1  A    between atoms: C_2  and  C_19
REMARK    2  A    between atoms: N_3  and  C_4
REMARK    3  A    between atoms: C_7  and  S_8
REMARK    4  A    between atoms: S_8  and  N_11
REMARK                            x       y       z     vdW  Elec       q    Type
REMARK                         _______ _______ _______ _____ _____    ______ ____
ROOT
ATOM      1  C   UNL     1       7.677   8.097  17.739  0.00  0.00    +0.000 A 
ATOM      2  C   UNL     1       8.095   7.004  18.505  0.00  0.00    +0.000 A 
ATOM      3  C   UNL     1       7.291   5.877  18.653  0.00  0.00    +0.000 A 
ATOM      4  C   UNL     1       6.039   5.840  18.045  0.00  0.00    +0.000 A 
ATOM      5  C   UNL     1       5.595   6.921  17.279  0.00  0.00    +0.000 A 
ATOM      6  C   UNL     1       6.410   8.056  17.142  0.00  0.00    +0.000 A 
ENDROOT
BRANCH   1   9
ATOM      7  O   UNL     1       8.884   9.794  19.763  0.00  0.00    +0.000 OA
ATOM      8  C   UNL     1       8.987  10.053  18.564  0.00  0.00    +0.000 C 
ATOM      9  N   UNL     1       8.479   9.245  17.553  0.00  0.00    +0.000 N 
ATOM     10  H   UNL     1       8.781   9.460  16.612  0.00  0.00    +0.000 HD
BRANCH   8  11
ATOM     11  C   UNL     1       9.708  11.247  18.141  0.00  0.00    +0.000 A 
ATOM     12  C   UNL     1      11.084  11.355  18.032  0.00  0.00    +0.000 A 
ATOM     13  C   UNL     1      11.511  12.657  17.657  0.00  0.00    +0.000 A 
ATOM     14  C   UNL     1      10.443  13.509  17.486  0.00  0.00    +0.000 A 
ATOM     15  S   UNL     1       8.942  12.729  17.759  0.00  0.00    +0.000 S 
ENDBRANCH   8  11
ENDBRANCH   1   9
BRANCH   4  16
ATOM     16  S   UNL     1       5.080   4.352  18.183  0.00  0.00    +0.000 S 
ATOM     17  O   UNL     1       5.183   3.654  16.917  0.00  0.00    +0.000 OA
ATOM     18  O   UNL     1       5.450   3.706  19.423  0.00  0.00    +0.000 OA
BRANCH  16  19
ATOM     19  N   UNL     1       3.501   4.961  18.244  0.00  0.00    +0.000 N 
ATOM     20  C   UNL     1       2.621   4.073  18.900  0.00  0.00    +0.000 A 
ATOM     21  N   UNL     1       1.836   3.311  18.181  0.00  0.00    +0.000 NA
ATOM     22  C   UNL     1       1.082   2.523  19.032  0.00  0.00    +0.000 A 
ATOM     23  C   UNL     1       1.221   2.796  20.377  0.00  0.00    +0.000 A 
ATOM     24  S   UNL     1       2.391   4.033  20.592  0.00  0.00    +0.000 S 
ATOM     25  H   UNL     1       3.208   5.054  17.271  0.00  0.00    +0.000 HD
ENDBRANCH  16  19
ENDBRANCH   4  16
TORSDOF 4
ENDMDL
MODEL 3
REMARK VINA RESULT:      -7.5      1.697      1.919
REMARK  Name = 
REMARK  4 active torsions:
REMARK  status: ('A' for Active; 'I' for Inactive)
REMARK    1  A    between atoms: C_2  and  C_19
REMARK    2  A    between atoms: N_3  and  C_4
REMARK    3  A    between atoms: C_7  and  S_8
REMARK    4  A    between atoms: S_8  and  N_11
REMARK                            x       y       z     vdW  Elec       q    Type
REMARK                         _______ _______ _______ _____ _____    ______ ____
ROOT
ATOM      1  C   UNL     1       7.658   8.080  17.700  0.00  0.00    +0.000 A 
ATOM      2  C   UNL     1       6.433   7.905  17.048  0.00  0.00    +0.000 A 
ATOM      3  C   UNL     1       5.664   6.761  17.252  0.00  0.00    +0.000 A 
ATOM      4  C   UNL     1       6.129   5.762  18.103  0.00  0.00    +0.000 A 
ATOM      5  C   UNL     1       7.352   5.910  18.762  0.00  0.00    +0.000 A 
ATOM      6  C   UNL     1       8.123   7.063  18.544  0.00  0.00    +0.000 A 
ENDROOT
BRANCH   1   9
ATOM      7  O   UNL     1       8.859   9.754  19.746  0.00  0.00    +0.000 OA
ATOM      8  C   UNL     1       8.955  10.033  18.552  0.00  0.00    +0.000 C 
ATOM      9  N   UNL     1       8.450   9.237  17.530  0.00  0.00    +0.000 N 
ATOM     10  H   UNL     1       8.748   9.470  16.591  0.00  0.00    +0.000 HD
BRANCH   8  11
ATOM     11  C   UNL     1       9.666  11.239  18.145  0.00  0.00    +0.000 A 
ATOM     12  C   UNL     1      11.042  11.367  18.059  0.00  0.00    +0.000 A 
ATOM     13  C   UNL     1      11.455  12.677  17.696  0.00  0.00    +0.000 A 
ATOM     14  C   UNL     1      10.379  13.514  17.511  0.00  0.00    +0.000 A 
ATOM     15  S   UNL     1       8.885  12.711  17.757  0.00  0.00    +0.000 S 
ENDBRANCH   8  11
ENDBRANCH   1   9
BRANCH   4  16
ATOM     16  S   UNL     1       5.081   4.361  18.406  0.00  0.00    +0.000 S 
ATOM     17  O   UNL     1       4.894   3.680  17.141  0.00  0.00    +0.000 OA
ATOM     18  O   UNL     1       5.607   3.664  19.559  0.00  0.00    +0.000 OA
BRANCH  16  19
ATOM     19  N   UNL     1       3.599   5.106  18.751  0.00  0.00    +0.000 N 
ATOM     20  C   UNL     1       2.632   4.174  19.187  0.00  0.00    +0.000 A 
ATOM     21  N   UNL     1       1.730   3.751  18.339  0.00  0.00    +0.000 NA
ATOM     22  C   UNL     1       0.907   2.844  18.981  0.00  0.00    +0.000 A 
ATOM     23  C   UNL     1       1.127   2.695  20.336  0.00  0.00    +0.000 A 
ATOM     24  S   UNL     1       2.457   3.671  20.810  0.00  0.00    +0.000 S 
ATOM     25  H   UNL     1       3.288   5.512  17.867  0.00  0.00    +0.000 HD
ENDBRANCH  16  19
ENDBRANCH   4  16
TORSDOF 4
ENDMDL
MODEL 4
REMARK VINA RESULT:      -7.5      0.744      1.355
REMARK  Name = 
REMARK  4 active torsions:
REMARK  status: ('A' for Active; 'I' for Inactive)
REMARK    1  A    between atoms: C_2  and  C_19
REMARK    2  A    between atoms: N_3  and  C_4
REMARK    3  A    between atoms: C_7  and  S_8
REMARK    4  A    between atoms: S_8  and  N_11
REMARK                            x       y       z     vdW  Elec       q    Type
REMARK                         _______ _______ _______ _____ _____    ______ ____
ROOT
ATOM      1  C   UNL     1       8.018   7.622  18.427  0.00  0.00    +0.000 A 
ATOM      2  C   UNL     1       8.085   6.331  18.961  0.00  0.00    +0.000 A 
ATOM      3  C   UNL     1       7.253   5.315  18.496  0.00  0.00    +0.000 A 
ATOM      4  C   UNL     1       6.324   5.589  17.497  0.00  0.00    +0.000 A 
ATOM      5  C   UNL     1       6.234   6.872  16.950  0.00  0.00    +0.000 A 
ATOM      6  C   UNL     1       7.071   7.891  17.431  0.00  0.00    +0.000 A 
ENDROOT
BRANCH   1   9
ATOM      7  O   UNL     1       7.929  10.430  17.690  0.00  0.00    +0.000 OA
ATOM      8  C   UNL     1       8.806   9.989  18.432  0.00  0.00    +0.000 C 
ATOM      9  N   UNL     1       8.862   8.668  18.862  0.00  0.00    +0.000 N 
ATOM     10  H   UNL     1       9.514   8.467  19.610  0.00  0.00    +0.000 HD
BRANCH   8  11
ATOM     11  C   UNL     1       9.840  10.882  18.941  0.00  0.00    +0.000 A 
ATOM     12  C   UNL     1      10.957  11.297  18.236  0.00  0.00    +0.000 A 
ATOM     13  C   UNL     1      11.827  12.115  19.007  0.00  0.00    +0.000 A 
ATOM     14  C   UNL     1      11.344  12.305  20.282  0.00  0.00    +0.000 A 
ATOM     15  S   UNL     1       9.845  11.514  20.531  0.00  0.00    +0.000 S 
ENDBRANCH   8  11
ENDBRANCH   1   9
BRANCH   4  16
ATOM     16  S   UNL     1       5.344   4.248  16.869  0.00  0.00    +0.000 S 
ATOM     17  O   UNL     1       4.013   4.764  16.621  0.00  0.00    +0.000 OA
ATOM     18  O   UNL     1       6.103   3.607  15.818  0.00  0.00    +0.000 OA
BRANCH  16  19
ATOM     19  N   UNL     1       5.205   3.253  18.232  0.00  0.00    +0.000 N 
ATOM     20  C   UNL     1       3.881   3.212  18.720  0.00  0.00    +0.000 A 
ATOM     21  N   UNL     1       3.564   3.944  19.758  0.00  0.00    +0.000 NA
ATOM     22  C   UNL     1       2.223   3.754  20.043  0.00  0.00    +0.000 A 
ATOM     23  C   UNL     1       1.587   2.785  19.293  0.00  0.00    +0.000 A 
ATOM     24  S   UNL     1       2.683   2.140  18.141  0.00  0.00    +0.000 S 
ATOM     25  H   UNL     1       5.802   3.680  18.941  0.00  0.00    +0.000 HD
ENDBRANCH  16  19
ENDBRANCH   4  16
TORSDOF 4
ENDMDL
MODEL 5
REMARK VINA RESULT:      -7.4      1.365      1.497
REMARK  Name = 
REMARK  4 active torsions:
REMARK  status: ('A' for Active; 'I' for Inactive)
REMARK    1  A    between atoms: C_2  and  C_19
REMARK    2  A    between atoms: N_3  and  C_4
REMARK    3  A    between atoms: C_7  and  S_8
REMARK    4  A    between atoms: S_8  and  N_11
REMARK                            x       y       z     vdW  Elec       q    Type
REMARK                         _______ _______ _______ _____ _____    ______ ____
ROOT
ATOM      1  C   UNL     1       8.131   7.666  18.478  0.00  0.00    +0.000 A 
ATOM      2  C   UNL     1       7.263   7.746  17.384  0.00  0.00    +0.000 A 
ATOM      3  C   UNL     1       6.424   6.685  17.051  0.00  0.00    +0.000 A 
ATOM      4  C   UNL     1       6.462   5.514  17.804  0.00  0.00    +0.000 A 
ATOM      5  C   UNL     1       7.324   5.407  18.898  0.00  0.00    +0.000 A 
ATOM      6  C   UNL     1       8.171   6.479  19.221  0.00  0.00    +0.000 A 
ENDROOT
BRANCH   1   9
ATOM      7  O   UNL     1       7.922  10.471  17.755  0.00  0.00    +0.000 OA
ATOM      8  C   UNL     1       8.860  10.051  18.432  0.00  0.00    +0.000 C 
ATOM      9  N   UNL     1       8.979   8.732  18.854  0.00  0.00    +0.000 N 
ATOM     10  H   UNL     1       9.687   8.546  19.552  0.00  0.00    +0.000 HD
BRANCH   8  11
ATOM     11  C   UNL     1       9.906  10.969  18.867  0.00  0.00    +0.000 A 
ATOM     12  C   UNL     1      10.212  11.268  20.183  0.00  0.00    +0.000 A 
ATOM     13  C   UNL     1      11.237  12.245  20.306  0.00  0.00    +0.000 A 
ATOM     14  C   UNL     1      11.689  12.662  19.074  0.00  0.00    +0.000 A 
ATOM     15  S   UNL     1      10.889  11.862  17.787  0.00  0.00    +0.000 S 
ENDBRANCH   8  11
ENDBRANCH   1   9
BRANCH   4  16
ATOM     16  S   UNL     1       5.316   4.219  17.402  0.00  0.00    +0.000 S 
ATOM     17  O   UNL     1       5.645   3.747  16.073  0.00  0.00    +0.000 OA
ATOM     18  O   UNL     1       5.272   3.310  18.527  0.00  0.00    +0.000 OA
BRANCH  16  19
ATOM     19  N   UNL     1       3.865   5.079  17.239  0.00  0.00    +0.000 N 
ATOM     20  C   UNL     1       2.842   4.541  18.050  0.00  0.00    +0.000 A 
ATOM     21  N   UNL     1       1.941   3.766  17.504  0.00  0.00    +0.000 NA
ATOM     22  C   UNL     1       1.058   3.352  18.486  0.00  0.00    +0.000 A 
ATOM     23  C   UNL     1       1.237   3.925  19.728  0.00  0.00    +0.000 A 
ATOM     24  S   UNL     1       2.602   4.964  19.688  0.00  0.00    +0.000 S 
ATOM     25  H   UNL     1       3.597   4.973  16.260  0.00  0.00    +0.000 HD
ENDBRANCH  16  19
ENDBRANCH   4  16
TORSDOF 4
ENDMDL
MODEL 6
REMARK VINA RESULT:      -7.4      6.494      7.894
REMARK  Name = 
REMARK  4 active torsions:
REMARK  status: ('A' for Active; 'I' for Inactive)
REMARK    1  A    between atoms: C_2  and  C_19
REMARK    2  A    between atoms: N_3  and  C_4
REMARK    3  A    between atoms: C_7  and  S_8
REMARK    4  A    between atoms: S_8  and  N_11
REMARK                            x       y       z     vdW  Elec       q    Type
REMARK                         _______ _______ _______ _____ _____    ______ ____
ROOT
ATOM      1  C   UNL     1       0.692   9.218  19.896  0.00  0.00    +0.000 A 
ATOM      2  C   UNL     1       1.226   9.321  18.607  0.00  0.00    +0.000 A 
ATOM      3  C   UNL     1       2.169   8.407  18.143  0.00  0.00    +0.000 A 
ATOM      4  C   UNL     1       2.606   7.384  18.978  0.00  0.00    +0.000 A 
ATOM      5  C   UNL     1       2.092   7.261  20.272  0.00  0.00    +0.000 A 
ATOM      6  C   UNL     1       1.148   8.192  20.734  0.00  0.00    +0.000 A 
ENDROOT
BRANCH   1   9
ATOM      7  O   UNL     1       1.081  11.520  21.623  0.00  0.00    +0.000 OA
ATOM      8  C   UNL     1      -0.042  11.173  21.260  0.00  0.00    +0.000 C 
ATOM      9  N   UNL     1      -0.280  10.116  20.389  0.00  0.00    +0.000 N 
ATOM     10  H   UNL     1      -1.220  10.041  20.020  0.00  0.00    +0.000 HD
BRANCH   8  11
ATOM     11  C   UNL     1      -1.212  11.913  21.718  0.00  0.00    +0.000 A 
ATOM     12  C   UNL     1      -1.685  11.938  23.019  0.00  0.00    +0.000 A 
ATOM     13  C   UNL     1      -2.881  12.693  23.160  0.00  0.00    +0.000 A 
ATOM     14  C   UNL     1      -3.286  13.227  21.959  0.00  0.00    +0.000 A 
ATOM     15  S   UNL     1      -2.216  12.832  20.680  0.00  0.00    +0.000 S 
ENDBRANCH   8  11
ENDBRANCH   1   9
BRANCH   4  16
ATOM     16  S   UNL     1       3.741   6.187  18.320  0.00  0.00    +0.000 S 
ATOM     17  O   UNL     1       4.505   6.844  17.279  0.00  0.00    +0.000 OA
ATOM     18  O   UNL     1       4.400   5.548  19.438  0.00  0.00    +0.000 OA
BRANCH  16  19
ATOM     19  N   UNL     1       2.696   5.121  17.520  0.00  0.00    +0.000 N 
ATOM     20  C   UNL     1       2.567   3.896  18.209  0.00  0.00    +0.000 A 
ATOM     21  N   UNL     1       3.247   2.858  17.791  0.00  0.00    +0.000 NA
ATOM     22  C   UNL     1       2.974   1.786  18.621  0.00  0.00    +0.000 A 
ATOM     23  C   UNL     1       1.998   2.001  19.572  0.00  0.00    +0.000 A 
ATOM     24  S   UNL     1       1.451   3.625  19.474  0.00  0.00    +0.000 S 
ATOM     25  H   UNL     1       3.131   4.944  16.614  0.00  0.00    +0.000 HD
ENDBRANCH  16  19
ENDBRANCH   4  16
TORSDOF 4
ENDMDL
MODEL 7
REMARK VINA RESULT:      -7.4      6.193      7.646
REMARK  Name = 
REMARK  4 active torsions:
REMARK  status: ('A' for Active; 'I' for Inactive)
REMARK    1  A    between atoms: C_2  and  C_19
REMARK    2  A    between atoms: N_3  and  C_4
REMARK    3  A    between atoms: C_7  and  S_8
REMARK    4  A    between atoms: S_8  and  N_11
REMARK                            x       y       z     vdW  Elec       q    Type
REMARK                         _______ _______ _______ _____ _____    ______ ____
ROOT
ATOM      1  C   UNL     1       1.093   9.004  19.567  0.00  0.00    +0.000 A 
ATOM      2  C   UNL     1       1.506   7.942  20.378  0.00  0.00    +0.000 A 
ATOM      3  C   UNL     1       2.460   7.028  19.937  0.00  0.00    +0.000 A 
ATOM      4  C   UNL     1       3.000   7.157  18.661  0.00  0.00    +0.000 A 
ATOM      5  C   UNL     1       2.601   8.206  17.829  0.00  0.00    +0.000 A 
ATOM      6  C   UNL     1       1.633   9.118  18.280  0.00  0.00    +0.000 A 
ENDROOT
BRANCH   1   9
ATOM      7  O   UNL     1       1.207  10.742  21.891  0.00  0.00    +0.000 OA
ATOM      8  C   UNL     1       0.226  10.728  21.148  0.00  0.00    +0.000 C 
ATOM      9  N   UNL     1       0.143   9.959  19.993  0.00  0.00    +0.000 N 
ATOM     10  H   UNL     1      -0.627  10.167  19.370  0.00  0.00    +0.000 HD
BRANCH   8  11
ATOM     11  C   UNL     1      -0.919  11.581  21.444  0.00  0.00    +0.000 A 
ATOM     12  C   UNL     1      -1.402  11.862  22.711  0.00  0.00    +0.000 A 
ATOM     13  C   UNL     1      -2.569  12.673  22.691  0.00  0.00    +0.000 A 
ATOM     14  C   UNL     1      -2.943  12.991  21.406  0.00  0.00    +0.000 A 
ATOM     15  S   UNL     1      -1.877  12.328  20.239  0.00  0.00    +0.000 S 
ENDBRANCH   8  11
ENDBRANCH   1   9
BRANCH   4  16
ATOM     16  S   UNL     1       4.278   6.026  18.170  0.00  0.00    +0.000 S 
ATOM     17  O   UNL     1       5.178   6.746  17.292  0.00  0.00    +0.000 OA
ATOM     18  O   UNL     1       4.766   5.371  19.364  0.00  0.00    +0.000 OA
BRANCH  16  19
ATOM     19  N   UNL     1       3.426   4.952  17.175  0.00  0.00    +0.000 N 
ATOM     20  C   UNL     1       3.074   3.769  17.860  0.00  0.00    +0.000 A 
ATOM     21  N   UNL     1       3.792   2.691  17.675  0.00  0.00    +0.000 NA
ATOM     22  C   UNL     1       3.271   1.672  18.452  0.00  0.00    +0.000 A 
ATOM     23  C   UNL     1       2.095   1.966  19.111  0.00  0.00    +0.000 A 
ATOM     24  S   UNL     1       1.662   3.599  18.806  0.00  0.00    +0.000 S 
ATOM     25  H   UNL     1       4.070   4.714  16.419  0.00  0.00    +0.000 HD
ENDBRANCH  16  19
ENDBRANCH   4  16
TORSDOF 4
ENDMDL
MODEL 8
REMARK VINA RESULT:      -7.3      6.625      7.850
REMARK  Name = 
REMARK  4 active torsions:
REMARK  status: ('A' for Active; 'I' for Inactive)
REMARK    1  A    between atoms: C_2  and  C_19
REMARK    2  A    between atoms: N_3  and  C_4
REMARK    3  A    between atoms: C_7  and  S_8
REMARK    4  A    between atoms: S_8  and  N_11
REMARK                            x       y       z     vdW  Elec       q    Type
REMARK                         _______ _______ _______ _____ _____    ______ ____
ROOT
ATOM      1  C   UNL     1       0.675   9.289  20.339  0.00  0.00    +0.000 A 
ATOM      2  C   UNL     1       1.126   8.158  21.026  0.00  0.00    +0.000 A 
ATOM      3  C   UNL     1       1.974   7.235  20.417  0.00  0.00    +0.000 A 
ATOM      4  C   UNL     1       2.366   7.428  19.096  0.00  0.00    +0.000 A 
ATOM      5  C   UNL     1       1.925   8.548  18.385  0.00  0.00    +0.000 A 
ATOM      6  C   UNL     1       1.064   9.467  19.005  0.00  0.00    +0.000 A 
ENDROOT
BRANCH   1   9
ATOM      7  O   UNL     1       1.392  11.892  21.409  0.00  0.00    +0.000 OA
ATOM      8  C   UNL     1       0.241  11.464  21.481  0.00  0.00    +0.000 C 
ATOM      9  N   UNL     1      -0.169  10.253  20.935  0.00  0.00    +0.000 N 
ATOM     10  H   UNL     1      -1.167  10.094  20.895  0.00  0.00    +0.000 HD
BRANCH   8  11
ATOM     11  C   UNL     1      -0.789  12.263  22.135  0.00  0.00    +0.000 A 
ATOM     12  C   UNL     1      -1.823  11.760  22.906  0.00  0.00    +0.000 A 
ATOM     13  C   UNL     1      -2.713  12.768  23.364  0.00  0.00    +0.000 A 
ATOM     14  C   UNL     1      -2.330  14.017  22.931  0.00  0.00    +0.000 A 
ATOM     15  S   UNL     1      -0.895  13.965  21.995  0.00  0.00    +0.000 S 
ENDBRANCH   8  11
ENDBRANCH   1   9
BRANCH   4  16
ATOM     16  S   UNL     1       3.518   6.279  18.384  0.00  0.00    +0.000 S 
ATOM     17  O   UNL     1       4.228   6.976  17.331  0.00  0.00    +0.000 OA
ATOM     18  O   UNL     1       4.230   5.644  19.471  0.00  0.00    +0.000 OA
BRANCH  16  19
ATOM     19  N   UNL     1       2.483   5.192  17.599  0.00  0.00    +0.000 N 
ATOM     20  C   UNL     1       2.391   3.964  18.288  0.00  0.00    +0.000 A 
ATOM     21  N   UNL     1       3.085   2.941  17.857  0.00  0.00    +0.000 NA
ATOM     22  C   UNL     1       2.849   1.862  18.689  0.00  0.00    +0.000 A 
ATOM     23  C   UNL     1       1.884   2.055  19.656  0.00  0.00    +0.000 A 
ATOM     24  S   UNL     1       1.301   3.667  19.569  0.00  0.00    +0.000 S 
ATOM     25  H   UNL     1       2.907   5.025  16.686  0.00  0.00    +0.000 HD
ENDBRANCH  16  19
ENDBRANCH   4  16
TORSDOF 4
ENDMDL
MODEL 9
REMARK VINA RESULT:      -7.2      1.501      2.006
REMARK  Name = 
REMARK  4 active torsions:
REMARK  status: ('A' for Active; 'I' for Inactive)
REMARK    1  A    between atoms: C_2  and  C_19
REMARK    2  A    between atoms: N_3  and  C_4
REMARK    3  A    between atoms: C_7  and  S_8
REMARK    4  A    between atoms: S_8  and  N_11
REMARK                            x       y       z     vdW  Elec       q    Type
REMARK                         _______ _______ _______ _____ _____    ______ ____
ROOT
ATOM      1  C   UNL     1       8.159   7.757  18.515  0.00  0.00    +0.000 A 
ATOM      2  C   UNL     1       8.167   6.556  19.233  0.00  0.00    +0.000 A 
ATOM      3  C   UNL     1       7.307   5.512  18.901  0.00  0.00    +0.000 A 
ATOM      4  C   UNL     1       6.407   5.669  17.850  0.00  0.00    +0.000 A 
ATOM      5  C   UNL     1       6.375   6.860  17.121  0.00  0.00    +0.000 A 
ATOM      6  C   UNL     1       7.241   7.910  17.468  0.00  0.00    +0.000 A 
ENDROOT
BRANCH   1   9
ATOM      7  O   UNL     1       7.906  10.551  17.763  0.00  0.00    +0.000 OA
ATOM      8  C   UNL     1       8.888  10.139  18.380  0.00  0.00    +0.000 C 
ATOM      9  N   UNL     1       9.032   8.826  18.814  0.00  0.00    +0.000 N 
ATOM     10  H   UNL     1       9.787   8.649  19.465  0.00  0.00    +0.000 HD
BRANCH   8  11
ATOM     11  C   UNL     1       9.964  11.059  18.726  0.00  0.00    +0.000 A 
ATOM     12  C   UNL     1      10.906  11.559  17.843  0.00  0.00    +0.000 A 
ATOM     13  C   UNL     1      11.874  12.386  18.474  0.00  0.00    +0.000 A 
ATOM     14  C   UNL     1      11.640  12.497  19.826  0.00  0.00    +0.000 A 
ATOM     15  S   UNL     1      10.251  11.622  20.317  0.00  0.00    +0.000 S 
ENDBRANCH   8  11
ENDBRANCH   1   9
BRANCH   4  16
ATOM     16  S   UNL     1       5.390   4.285  17.400  0.00  0.00    +0.000 S 
ATOM     17  O   UNL     1       5.840   3.822  16.103  0.00  0.00    +0.000 OA
ATOM     18  O   UNL     1       5.341   3.390  18.536  0.00  0.00    +0.000 OA
BRANCH  16  19
ATOM     19  N   UNL     1       3.893   5.029  17.129  0.00  0.00    +0.000 N 
ATOM     20  C   UNL     1       2.881   4.489  17.952  0.00  0.00    +0.000 A 
ATOM     21  N   UNL     1       2.050   3.614  17.445  0.00  0.00    +0.000 NA
ATOM     22  C   UNL     1       1.164   3.219  18.432  0.00  0.00    +0.000 A 
ATOM     23  C   UNL     1       1.265   3.899  19.629  0.00  0.00    +0.000 A 
ATOM     24  S   UNL     1       2.560   5.021  19.543  0.00  0.00    +0.000 S 
ATOM     25  H   UNL     1       3.664   4.829  16.154  0.00  0.00    +0.000 HD
ENDBRANCH  16  19
ENDBRANCH   4  16
TORSDOF 4
ENDMDL
