MODEL 1
REMARK VINA RESULT:      -7.2      0.000      0.000
REMARK  Name = 
REMARK  5 active torsions:
REMARK  status: ('A' for Active; 'I' for Inactive)
REMARK    1  A    between atoms: C_2  and  C_3
REMARK    2  A    between atoms: C_3  and  S_4
REMARK    3  A    between atoms: N_5  and  CA_6
REMARK    4  A    between atoms: CA_18  and  C_19
REMARK    5  A    between atoms: C_19  and  OXT_21
REMARK                            x       y       z     vdW  Elec       q    Type
REMARK                         _______ _______ _______ _____ _____    ______ ____
ROOT
ATOM      1  CA  UNL     1       4.242   5.383  17.020  0.00  0.00    +0.000 C 
ATOM      2  C   UNL     1       4.418   6.872  17.260  0.00  0.00    +0.000 C 
ATOM      3  C   UNL     1       3.099   7.565  17.578  0.00  0.00    +0.000 C 
ATOM      4  C   UNL     1       2.512   7.262  18.928  0.00  0.00    +0.000 A 
ATOM      5  C   UNL     1       1.935   8.319  19.662  0.00  0.00    +0.000 A 
ATOM      6  C   UNL     1       1.253   8.100  20.869  0.00  0.00    +0.000 A 
ATOM      7  C   UNL     1       1.103   6.810  21.367  0.00  0.00    +0.000 A 
ATOM      8  C   UNL     1       1.649   5.763  20.644  0.00  0.00    +0.000 A 
ATOM      9  C   UNL     1       2.361   5.987  19.451  0.00  0.00    +0.000 A 
ATOM     10  N   UNL     1       2.865   4.760  18.989  0.00  0.00    +0.000 N 
ATOM     11  C   UNL     1       4.049   4.576  18.306  0.00  0.00    +0.000 C 
ATOM     12  O   UNL     1       4.854   3.697  18.633  0.00  0.00    +0.000 OA
ATOM     13  CA  UNL     1       2.305   3.668  19.819  0.00  0.00    +0.000 C 
ATOM     14  C   UNL     1       1.647   4.320  21.036  0.00  0.00    +0.000 C 
ENDROOT
BRANCH   1  17
ATOM     15  O   UNL     1       5.446   6.372  14.667  0.00  0.00    +0.000 OA
ATOM     16  C   UNL     1       5.893   5.338  15.162  0.00  0.00    +0.000 C 
ATOM     17  N   UNL     1       5.392   4.809  16.325  0.00  0.00    +0.000 N 
ATOM     18  H   UNL     1       5.758   3.922  16.672  0.00  0.00    +0.000 HD
BRANCH  16  19
ATOM     19  C   UNL     1       6.977   4.521  14.483  0.00  0.00    +0.000 C 
BRANCH  19  20
ATOM     20  S   UNL     1       6.365   3.709  12.979  0.00  0.00    +0.000 S 
ATOM     21  H   UNL     1       7.300   4.206  12.154  0.00  0.00    +0.000 HD
ENDBRANCH  19  20
ENDBRANCH  16  19
ENDBRANCH   1  17
BRANCH  13  22
ATOM     22  C   UNL     1       1.250   2.908  19.002  0.00  0.00    +0.000 C 
ATOM     23  O   UNL     1       1.468   2.418  17.905  0.00  0.00    +0.000 OA
BRANCH  22  24
ATOM     24  OXT UNL     1       0.052   2.755  19.620  0.00  0.00    +0.000 OA
ATOM     25  HXT UNL     1      -0.329   1.864  19.456  0.00  0.00    +0.000 HD
ENDBRANCH  22  24
ENDBRANCH  13  22
TORSDOF 5
ENDMDL
MODEL 2
REMARK VINA RESULT:      -7.1      1.466      1.854
REMARK  Name = 
REMARK  5 active torsions:
REMARK  status: ('A' for Active; 'I' for Inactive)
REMARK    1  A    between atoms: C_2  and  C_3
REMARK    2  A    between atoms: C_3  and  S_4
REMARK    3  A    between atoms: N_5  and  CA_6
REMARK    4  A    between atoms: CA_18  and  C_19
REMARK    5  A    between atoms: C_19  and  OXT_21
REMARK                            x       y       z     vdW  Elec       q    Type
REMARK                         _______ _______ _______ _____ _____    ______ ____
ROOT
ATOM      1  CA  UNL     1       4.888   5.605  16.523  0.00  0.00    +0.000 C 
ATOM      2  C   UNL     1       4.490   6.981  17.028  0.00  0.00    +0.000 C 
ATOM      3  C   UNL     1       3.062   7.009  17.560  0.00  0.00    +0.000 C 
ATOM      4  C   UNL     1       2.838   6.298  18.865  0.00  0.00    +0.000 A 
ATOM      5  C   UNL     1       1.997   6.902  19.822  0.00  0.00    +0.000 A 
ATOM      6  C   UNL     1       1.634   6.248  21.010  0.00  0.00    +0.000 A 
ATOM      7  C   UNL     1       2.079   4.954  21.264  0.00  0.00    +0.000 A 
ATOM      8  C   UNL     1       2.889   4.346  20.321  0.00  0.00    +0.000 A 
ATOM      9  C   UNL     1       3.281   5.015  19.147  0.00  0.00    +0.000 A 
ATOM     10  N   UNL     1       4.161   4.189  18.428  0.00  0.00    +0.000 N 
ATOM     11  C   UNL     1       5.213   4.614  17.644  0.00  0.00    +0.000 C 
ATOM     12  O   UNL     1       6.337   4.112  17.744  0.00  0.00    +0.000 OA
ATOM     13  CA  UNL     1       4.201   2.856  19.073  0.00  0.00    +0.000 C 
ATOM     14  C   UNL     1       3.515   2.992  20.432  0.00  0.00    +0.000 C 
ENDROOT
BRANCH   1  17
ATOM     15  O   UNL     1       5.230   4.268  14.061  0.00  0.00    +0.000 OA
ATOM     16  C   UNL     1       6.158   4.953  14.488  0.00  0.00    +0.000 C 
ATOM     17  N   UNL     1       6.062   5.667  15.657  0.00  0.00    +0.000 N 
ATOM     18  H   UNL     1       6.874   6.181  15.999  0.00  0.00    +0.000 HD
BRANCH  16  19
ATOM     19  C   UNL     1       7.510   5.000  13.799  0.00  0.00    +0.000 C 
BRANCH  19  20
ATOM     20  S   UNL     1       7.425   4.353  12.105  0.00  0.00    +0.000 S 
ATOM     21  H   UNL     1       8.067   5.379  11.526  0.00  0.00    +0.000 HD
ENDBRANCH  19  20
ENDBRANCH  16  19
ENDBRANCH   1  17
BRANCH  13  22
ATOM     22  C   UNL     1       3.432   1.853  18.200  0.00  0.00    +0.000 C 
ATOM     23  O   UNL     1       2.444   2.145  17.546  0.00  0.00    +0.000 OA
BRANCH  22  24
ATOM     24  OXT UNL     1       3.973   0.610  18.150  0.00  0.00    +0.000 OA
ATOM     25  HXT UNL     1       4.770   0.539  18.720  0.00  0.00    +0.000 HD
ENDBRANCH  22  24
ENDBRANCH  13  22
TORSDOF 5
ENDMDL
MODEL 3
REMARK VINA RESULT:      -6.8      3.575      5.911
REMARK  Name = 
REMARK  5 active torsions:
REMARK  status: ('A' for Active; 'I' for Inactive)
REMARK    1  A    between atoms: C_2  and  C_3
REMARK    2  A    between atoms: C_3  and  S_4
REMARK    3  A    between atoms: N_5  and  CA_6
REMARK    4  A    between atoms: CA_18  and  C_19
REMARK    5  A    between atoms: C_19  and  OXT_21
REMARK                            x       y       z     vdW  Elec       q    Type
REMARK                         _______ _______ _______ _____ _____    ______ ____
ROOT
ATOM      1  CA  UNL     1       2.209   6.454  19.827  0.00  0.00    +0.000 C 
ATOM      2  C   UNL     1       2.508   7.388  18.668  0.00  0.00    +0.000 C 
ATOM      3  C   UNL     1       3.933   7.229  18.153  0.00  0.00    +0.000 C 
ATOM      4  C   UNL     1       4.217   5.959  17.401  0.00  0.00    +0.000 A 
ATOM      5  C   UNL     1       5.018   6.030  16.242  0.00  0.00    +0.000 A 
ATOM      6  C   UNL     1       5.435   4.878  15.556  0.00  0.00    +0.000 A 
ATOM      7  C   UNL     1       5.088   3.616  16.027  0.00  0.00    +0.000 A 
ATOM      8  C   UNL     1       4.318   3.536  17.174  0.00  0.00    +0.000 A 
ATOM      9  C   UNL     1       3.872   4.691  17.842  0.00  0.00    +0.000 A 
ATOM     10  N   UNL     1       3.050   4.304  18.914  0.00  0.00    +0.000 N 
ATOM     11  C   UNL     1       1.965   5.005  19.396  0.00  0.00    +0.000 C 
ATOM     12  O   UNL     1       0.881   4.451  19.609  0.00  0.00    +0.000 OA
ATOM     13  CA  UNL     1       3.111   2.832  19.058  0.00  0.00    +0.000 C 
ATOM     14  C   UNL     1       3.795   2.284  17.804  0.00  0.00    +0.000 C 
ENDROOT
BRANCH   1  17
ATOM     15  O   UNL     1       1.862   8.923  21.150  0.00  0.00    +0.000 OA
ATOM     16  C   UNL     1       0.958   8.091  21.218  0.00  0.00    +0.000 C 
ATOM     17  N   UNL     1       1.028   6.881  20.573  0.00  0.00    +0.000 N 
ATOM     18  H   UNL     1       0.278   6.201  20.699  0.00  0.00    +0.000 HD
BRANCH  16  19
ATOM     19  C   UNL     1      -0.270   8.302  22.086  0.00  0.00    +0.000 C 
BRANCH  19  20
ATOM     20  S   UNL     1      -0.309   9.971  22.801  0.00  0.00    +0.000 S 
ATOM     21  H   UNL     1      -0.685   9.592  24.032  0.00  0.00    +0.000 HD
ENDBRANCH  19  20
ENDBRANCH  16  19
ENDBRANCH   1  17
BRANCH  13  22
ATOM     22  C   UNL     1       3.947   2.483  20.299  0.00  0.00    +0.000 C 
ATOM     23  O   UNL     1       3.501   2.487  21.436  0.00  0.00    +0.000 OA
BRANCH  22  24
ATOM     24  OXT UNL     1       5.221   2.098  20.039  0.00  0.00    +0.000 OA
ATOM     25  HXT UNL     1       5.505   1.365  20.628  0.00  0.00    +0.000 HD
ENDBRANCH  22  24
ENDBRANCH  13  22
TORSDOF 5
ENDMDL
MODEL 4
REMARK VINA RESULT:      -6.6      7.071      9.693
REMARK  Name = 
REMARK  5 active torsions:
REMARK  status: ('A' for Active; 'I' for Inactive)
REMARK    1  A    between atoms: C_2  and  C_3
REMARK    2  A    between atoms: C_3  and  S_4
REMARK    3  A    between atoms: N_5  and  CA_6
REMARK    4  A    between atoms: CA_18  and  C_19
REMARK    5  A    between atoms: C_19  and  OXT_21
REMARK                            x       y       z     vdW  Elec       q    Type
REMARK                         _______ _______ _______ _____ _____    ______ ____
ROOT
ATOM      1  CA  UNL     1      -1.196  11.145  22.444  0.00  0.00    +0.000 C 
ATOM      2  C   UNL     1      -0.457  10.067  23.218  0.00  0.00    +0.000 C 
ATOM      3  C   UNL     1      -0.399   8.748  22.458  0.00  0.00    +0.000 C 
ATOM      4  C   UNL     1       0.508   8.725  21.260  0.00  0.00    +0.000 A 
ATOM      5  C   UNL     1       1.298   7.578  21.038  0.00  0.00    +0.000 A 
ATOM      6  C   UNL     1       2.074   7.422  19.879  0.00  0.00    +0.000 A 
ATOM      7  C   UNL     1       2.060   8.399  18.889  0.00  0.00    +0.000 A 
ATOM      8  C   UNL     1       1.273   9.520  19.088  0.00  0.00    +0.000 A 
ATOM      9  C   UNL     1       0.522   9.691  20.265  0.00  0.00    +0.000 A 
ATOM     10  N   UNL     1      -0.104  10.948  20.224  0.00  0.00    +0.000 N 
ATOM     11  C   UNL     1      -0.371  11.756  21.309  0.00  0.00    +0.000 C 
ATOM     12  O   UNL     1      -0.087  12.958  21.304  0.00  0.00    +0.000 OA
ATOM     13  CA  UNL     1       0.103  11.542  18.883  0.00  0.00    +0.000 C 
ATOM     14  C   UNL     1       1.168  10.701  18.177  0.00  0.00    +0.000 C 
ENDROOT
BRANCH   1  17
ATOM     15  O   UNL     1      -3.799  12.210  22.684  0.00  0.00    +0.000 OA
ATOM     16  C   UNL     1      -2.894  12.724  23.339  0.00  0.00    +0.000 C 
ATOM     17  N   UNL     1      -1.608  12.245  23.312  0.00  0.00    +0.000 N 
ATOM     18  H   UNL     1      -0.879  12.734  23.831  0.00  0.00    +0.000 HD
BRANCH  16  19
ATOM     19  C   UNL     1      -3.110  13.979  24.167  0.00  0.00    +0.000 C 
BRANCH  19  20
ATOM     20  S   UNL     1      -4.687  14.785  23.768  0.00  0.00    +0.000 S 
ATOM     21  H   UNL     1      -4.451  14.923  22.455  0.00  0.00    +0.000 HD
ENDBRANCH  19  20
ENDBRANCH  16  19
ENDBRANCH   1  17
BRANCH  13  22
ATOM     22  C   UNL     1      -1.216  11.478  18.097  0.00  0.00    +0.000 C 
ATOM     23  O   UNL     1      -2.031  10.578  18.217  0.00  0.00    +0.000 OA
BRANCH  22  24
ATOM     24  OXT UNL     1      -1.451  12.544  17.293  0.00  0.00    +0.000 OA
ATOM     25  HXT UNL     1      -1.629  12.267  16.367  0.00  0.00    +0.000 HD
ENDBRANCH  22  24
ENDBRANCH  13  22
TORSDOF 5
ENDMDL
MODEL 5
REMARK VINA RESULT:      -6.6      9.810     11.636
REMARK  Name = 
REMARK  5 active torsions:
REMARK  status: ('A' for Active; 'I' for Inactive)
REMARK    1  A    between atoms: C_2  and  C_3
REMARK    2  A    between atoms: C_3  and  S_4
REMARK    3  A    between atoms: N_5  and  CA_6
REMARK    4  A    between atoms: CA_18  and  C_19
REMARK    5  A    between atoms: C_19  and  OXT_21
REMARK                            x       y       z     vdW  Elec       q    Type
REMARK                         _______ _______ _______ _____ _____    ______ ____
ROOT
ATOM      1  CA  UNL     1      -2.992  12.579  21.239  0.00  0.00    +0.000 C 
ATOM      2  C   UNL     1      -1.681  12.566  20.472  0.00  0.00    +0.000 C 
ATOM      3  C   UNL     1      -1.555  11.346  19.568  0.00  0.00    +0.000 C 
ATOM      4  C   UNL     1      -2.440  11.340  18.354  0.00  0.00    +0.000 A 
ATOM      5  C   UNL     1      -1.902  10.885  17.132  0.00  0.00    +0.000 A 
ATOM      6  C   UNL     1      -2.694  10.726  15.984  0.00  0.00    +0.000 A 
ATOM      7  C   UNL     1      -4.059  10.991  16.031  0.00  0.00    +0.000 A 
ATOM      8  C   UNL     1      -4.601  11.419  17.230  0.00  0.00    +0.000 A 
ATOM      9  C   UNL     1      -3.800  11.610  18.371  0.00  0.00    +0.000 A 
ATOM     10  N   UNL     1      -4.601  12.124  19.405  0.00  0.00    +0.000 N 
ATOM     11  C   UNL     1      -4.192  13.001  20.387  0.00  0.00    +0.000 C 
ATOM     12  O   UNL     1      -4.848  14.010  20.667  0.00  0.00    +0.000 OA
ATOM     13  CA  UNL     1      -6.017  12.096  18.972  0.00  0.00    +0.000 C 
ATOM     14  C   UNL     1      -6.024  11.809  17.470  0.00  0.00    +0.000 C 
ENDROOT
BRANCH   1  17
ATOM     15  O   UNL     1      -3.647  11.957  23.913  0.00  0.00    +0.000 OA
ATOM     16  C   UNL     1      -3.310  13.110  23.647  0.00  0.00    +0.000 C 
ATOM     17  N   UNL     1      -2.939  13.489  22.380  0.00  0.00    +0.000 N 
ATOM     18  H   UNL     1      -2.717  14.467  22.194  0.00  0.00    +0.000 HD
BRANCH  16  19
ATOM     19  C   UNL     1      -3.358  14.223  24.678  0.00  0.00    +0.000 C 
BRANCH  19  20
ATOM     20  S   UNL     1      -4.209  15.694  24.040  0.00  0.00    +0.000 S 
ATOM     21  H   UNL     1      -3.735  15.605  22.788  0.00  0.00    +0.000 HD
ENDBRANCH  19  20
ENDBRANCH  16  19
ENDBRANCH   1  17
BRANCH  13  22
ATOM     22  C   UNL     1      -6.748  10.970  19.720  0.00  0.00    +0.000 C 
ATOM     23  O   UNL     1      -6.914  10.959  20.929  0.00  0.00    +0.000 OA
BRANCH  22  24
ATOM     24  OXT UNL     1      -7.265  10.000  18.924  0.00  0.00    +0.000 OA
ATOM     25  HXT UNL     1      -8.047   9.573  19.338  0.00  0.00    +0.000 HD
ENDBRANCH  22  24
ENDBRANCH  13  22
TORSDOF 5
ENDMDL
MODEL 6
REMARK VINA RESULT:      -6.4      4.173      6.385
REMARK  Name = 
REMARK  5 active torsions:
REMARK  status: ('A' for Active; 'I' for Inactive)
REMARK    1  A    between atoms: C_2  and  C_3
REMARK    2  A    between atoms: C_3  and  S_4
REMARK    3  A    between atoms: N_5  and  CA_6
REMARK    4  A    between atoms: CA_18  and  C_19
REMARK    5  A    between atoms: C_19  and  OXT_21
REMARK                            x       y       z     vdW  Elec       q    Type
REMARK                         _______ _______ _______ _____ _____    ______ ____
ROOT
ATOM      1  CA  UNL     1       2.066   8.187  19.432  0.00  0.00    +0.000 C 
ATOM      2  C   UNL     1       1.369   7.507  20.597  0.00  0.00    +0.000 C 
ATOM      3  C   UNL     1       1.346   8.382  21.845  0.00  0.00    +0.000 C 
ATOM      4  C   UNL     1       0.428   9.570  21.791  0.00  0.00    +0.000 A 
ATOM      5  C   UNL     1      -0.327   9.887  22.940  0.00  0.00    +0.000 A 
ATOM      6  C   UNL     1      -1.109  11.050  23.017  0.00  0.00    +0.000 A 
ATOM      7  C   UNL     1      -1.137  11.949  21.956  0.00  0.00    +0.000 A 
ATOM      8  C   UNL     1      -0.384  11.657  20.832  0.00  0.00    +0.000 A 
ATOM      9  C   UNL     1       0.373  10.474  20.742  0.00  0.00    +0.000 A 
ATOM     10  N   UNL     1       0.958  10.408  19.466  0.00  0.00    +0.000 N 
ATOM     11  C   UNL     1       1.210   9.257  18.749  0.00  0.00    +0.000 C 
ATOM     12  O   UNL     1       0.888   9.153  17.562  0.00  0.00    +0.000 OA
ATOM     13  CA  UNL     1       0.719  11.689  18.762  0.00  0.00    +0.000 C 
ATOM     14  C   UNL     1      -0.326  12.459  19.571  0.00  0.00    +0.000 C 
ENDROOT
BRANCH   1  17
ATOM     15  O   UNL     1       3.764   5.957  19.763  0.00  0.00    +0.000 OA
ATOM     16  C   UNL     1       3.314   6.187  18.642  0.00  0.00    +0.000 C 
ATOM     17  N   UNL     1       2.451   7.227  18.400  0.00  0.00    +0.000 N 
ATOM     18  H   UNL     1       2.143   7.413  17.445  0.00  0.00    +0.000 HD
BRANCH  16  19
ATOM     19  C   UNL     1       3.740   5.391  17.421  0.00  0.00    +0.000 C 
BRANCH  19  20
ATOM     20  S   UNL     1       3.999   3.638  17.819  0.00  0.00    +0.000 S 
ATOM     21  H   UNL     1       5.326   3.725  17.997  0.00  0.00    +0.000 HD
ENDBRANCH  19  20
ENDBRANCH  16  19
ENDBRANCH   1  17
BRANCH  13  22
ATOM     22  C   UNL     1       2.030  12.487  18.712  0.00  0.00    +0.000 C 
ATOM     23  O   UNL     1       2.467  13.129  19.654  0.00  0.00    +0.000 OA
BRANCH  22  24
ATOM     24  OXT UNL     1       2.721  12.376  17.550  0.00  0.00    +0.000 OA
ATOM     25  HXT UNL     1       2.263  12.836  16.812  0.00  0.00    +0.000 HD
ENDBRANCH  22  24
ENDBRANCH  13  22
TORSDOF 5
ENDMDL
MODEL 7
REMARK VINA RESULT:      -6.4      3.191      5.442
REMARK  Name = 
REMARK  5 active torsions:
REMARK  status: ('A' for Active; 'I' for Inactive)
REMARK    1  A    between atoms: C_2  and  C_3
REMARK    2  A    between atoms: C_3  and  S_4
REMARK    3  A    between atoms: N_5  and  CA_6
REMARK    4  A    between atoms: CA_18  and  C_19
REMARK    5  A    between atoms: C_19  and  OXT_21
REMARK                            x       y       z     vdW  Elec       q    Type
REMARK                         _______ _______ _______ _____ _____    ______ ____
ROOT
ATOM      1  CA  UNL     1       4.512   3.074  19.642  0.00  0.00    +0.000 C 
ATOM      2  C   UNL     1       3.156   3.439  20.220  0.00  0.00    +0.000 C 
ATOM      3  C   UNL     1       3.079   4.905  20.628  0.00  0.00    +0.000 C 
ATOM      4  C   UNL     1       3.035   5.896  19.499  0.00  0.00    +0.000 A 
ATOM      5  C   UNL     1       2.163   6.998  19.607  0.00  0.00    +0.000 A 
ATOM      6  C   UNL     1       2.153   8.034  18.659  0.00  0.00    +0.000 A 
ATOM      7  C   UNL     1       3.040   8.013  17.587  0.00  0.00    +0.000 A 
ATOM      8  C   UNL     1       3.913   6.944  17.483  0.00  0.00    +0.000 A 
ATOM      9  C   UNL     1       3.899   5.890  18.414  0.00  0.00    +0.000 A 
ATOM     10  N   UNL     1       4.829   4.917  18.010  0.00  0.00    +0.000 N 
ATOM     11  C   UNL     1       4.713   3.557  18.204  0.00  0.00    +0.000 C 
ATOM     12  O   UNL     1       4.908   2.755  17.284  0.00  0.00    +0.000 OA
ATOM     13  CA  UNL     1       5.608   5.445  16.867  0.00  0.00    +0.000 C 
ATOM     14  C   UNL     1       4.896   6.708  16.381  0.00  0.00    +0.000 C 
ENDROOT
BRANCH   1  17
ATOM     15  O   UNL     1       5.629   1.540  21.731  0.00  0.00    +0.000 OA
ATOM     16  C   UNL     1       5.310   0.966  20.691  0.00  0.00    +0.000 C 
ATOM     17  N   UNL     1       4.726   1.629  19.640  0.00  0.00    +0.000 N 
ATOM     18  H   UNL     1       4.525   1.124  18.778  0.00  0.00    +0.000 HD
BRANCH  16  19
ATOM     19  C   UNL     1       5.612  -0.503  20.454  0.00  0.00    +0.000 C 
BRANCH  19  20
ATOM     20  S   UNL     1       6.609  -1.210  21.797  0.00  0.00    +0.000 S 
ATOM     21  H   UNL     1       6.623  -2.465  21.322  0.00  0.00    +0.000 HD
ENDBRANCH  19  20
ENDBRANCH  16  19
ENDBRANCH   1  17
BRANCH  13  22
ATOM     22  C   UNL     1       7.024   5.799  17.346  0.00  0.00    +0.000 C 
ATOM     23  O   UNL     1       7.644   5.140  18.165  0.00  0.00    +0.000 OA
BRANCH  22  24
ATOM     24  OXT UNL     1       7.579   6.876  16.737  0.00  0.00    +0.000 OA
ATOM     25  HXT UNL     1       7.234   7.719  17.108  0.00  0.00    +0.000 HD
ENDBRANCH  22  24
ENDBRANCH  13  22
TORSDOF 5
ENDMDL
MODEL 8
REMARK VINA RESULT:      -6.2      8.277      9.954
REMARK  Name = 
REMARK  5 active torsions:
REMARK  status: ('A' for Active; 'I' for Inactive)
REMARK    1  A    between atoms: C_2  and  C_3
REMARK    2  A    between atoms: C_3  and  S_4
REMARK    3  A    between atoms: N_5  and  CA_6
REMARK    4  A    between atoms: CA_18  and  C_19
REMARK    5  A    between atoms: C_19  and  OXT_21
REMARK                            x       y       z     vdW  Elec       q    Type
REMARK                         _______ _______ _______ _____ _____    ______ ____
ROOT
ATOM      1  CA  UNL     1      -3.601  11.857  19.036  0.00  0.00    +0.000 C 
ATOM      2  C   UNL     1      -4.913  12.569  19.319  0.00  0.00    +0.000 C 
ATOM      3  C   UNL     1      -5.466  12.232  20.698  0.00  0.00    +0.000 C 
ATOM      4  C   UNL     1      -4.720  12.821  21.862  0.00  0.00    +0.000 A 
ATOM      5  C   UNL     1      -5.463  13.339  22.943  0.00  0.00    +0.000 A 
ATOM      6  C   UNL     1      -4.846  13.789  24.121  0.00  0.00    +0.000 A 
ATOM      7  C   UNL     1      -3.465  13.708  24.265  0.00  0.00    +0.000 A 
ATOM      8  C   UNL     1      -2.728  13.183  23.218  0.00  0.00    +0.000 A 
ATOM      9  C   UNL     1      -3.344  12.763  22.024  0.00  0.00    +0.000 A 
ATOM     10  N   UNL     1      -2.348  12.358  21.119  0.00  0.00    +0.000 N 
ATOM     11  C   UNL     1      -2.400  12.486  19.747  0.00  0.00    +0.000 C 
ATOM     12  O   UNL     1      -1.454  12.955  19.106  0.00  0.00    +0.000 OA
ATOM     13  CA  UNL     1      -1.043  12.344  21.819  0.00  0.00    +0.000 C 
ATOM     14  C   UNL     1      -1.239  13.064  23.154  0.00  0.00    +0.000 C 
ENDROOT
BRANCH   1  17
ATOM     15  O   UNL     1      -3.332   9.574  17.399  0.00  0.00    +0.000 OA
ATOM     16  C   UNL     1      -3.144  10.680  16.895  0.00  0.00    +0.000 C 
ATOM     17  N   UNL     1      -3.292  11.843  17.609  0.00  0.00    +0.000 N 
ATOM     18  H   UNL     1      -3.077  12.736  17.165  0.00  0.00    +0.000 HD
BRANCH  16  19
ATOM     19  C   UNL     1      -2.656  10.844  15.467  0.00  0.00    +0.000 C 
BRANCH  19  20
ATOM     20  S   UNL     1      -3.749  10.009  14.282  0.00  0.00    +0.000 S 
ATOM     21  H   UNL     1      -4.032   8.955  15.063  0.00  0.00    +0.000 HD
ENDBRANCH  19  20
ENDBRANCH  16  19
ENDBRANCH   1  17
BRANCH  13  22
ATOM     22  C   UNL     1      -0.624  10.888  22.070  0.00  0.00    +0.000 C 
ATOM     23  O   UNL     1      -0.471  10.066  21.181  0.00  0.00    +0.000 OA
BRANCH  22  24
ATOM     24  OXT UNL     1      -0.365  10.585  23.367  0.00  0.00    +0.000 OA
ATOM     25  HXT UNL     1      -1.184  10.341  23.851  0.00  0.00    +0.000 HD
ENDBRANCH  22  24
ENDBRANCH  13  22
TORSDOF 5
ENDMDL
MODEL 9
REMARK VINA RESULT:      -6.1      7.383     10.036
REMARK  Name = 
REMARK  5 active torsions:
REMARK  status: ('A' for Active; 'I' for Inactive)
REMARK    1  A    between atoms: C_2  and  C_3
REMARK    2  A    between atoms: C_3  and  S_4
REMARK    3  A    between atoms: N_5  and  CA_6
REMARK    4  A    between atoms: CA_18  and  C_19
REMARK    5  A    between atoms: C_19  and  OXT_21
REMARK                            x       y       z     vdW  Elec       q    Type
REMARK                         _______ _______ _______ _____ _____    ______ ____
ROOT
ATOM      1  CA  UNL     1      -1.926  11.933  22.154  0.00  0.00    +0.000 C 
ATOM      2  C   UNL     1      -0.983  11.247  23.127  0.00  0.00    +0.000 C 
ATOM      3  C   UNL     1      -0.763   9.780  22.779  0.00  0.00    +0.000 C 
ATOM      4  C   UNL     1       0.068   9.519  21.554  0.00  0.00    +0.000 A 
ATOM      5  C   UNL     1       1.014   8.474  21.595  0.00  0.00    +0.000 A 
ATOM      6  C   UNL     1       1.737   8.081  20.458  0.00  0.00    +0.000 A 
ATOM      7  C   UNL     1       1.515   8.704  19.235  0.00  0.00    +0.000 A 
ATOM      8  C   UNL     1       0.574   9.718  19.179  0.00  0.00    +0.000 A 
ATOM      9  C   UNL     1      -0.126  10.134  20.327  0.00  0.00    +0.000 A 
ATOM     10  N   UNL     1      -0.944  11.225  19.987  0.00  0.00    +0.000 N 
ATOM     11  C   UNL     1      -1.273  12.279  20.814  0.00  0.00    +0.000 C 
ATOM     12  O   UNL     1      -1.181  13.451  20.433  0.00  0.00    +0.000 OA
ATOM     13  CA  UNL     1      -0.909  11.410  18.518  0.00  0.00    +0.000 C 
ATOM     14  C   UNL     1       0.233  10.546  17.982  0.00  0.00    +0.000 C 
ENDROOT
BRANCH   1  17
ATOM     15  O   UNL     1      -4.473  12.309  23.310  0.00  0.00    +0.000 OA
ATOM     16  C   UNL     1      -3.724  13.281  23.217  0.00  0.00    +0.000 C 
ATOM     17  N   UNL     1      -2.455  13.179  22.703  0.00  0.00    +0.000 N 
ATOM     18  H   UNL     1      -1.887  14.020  22.597  0.00  0.00    +0.000 HD
BRANCH  16  19
ATOM     19  C   UNL     1      -4.172  14.684  23.586  0.00  0.00    +0.000 C 
BRANCH  19  20
ATOM     20  S   UNL     1      -3.877  15.861  22.236  0.00  0.00    +0.000 S 
ATOM     21  H   UNL     1      -3.127  15.038  21.487  0.00  0.00    +0.000 HD
ENDBRANCH  19  20
ENDBRANCH  16  19
ENDBRANCH   1  17
BRANCH  13  22
ATOM     22  C   UNL     1      -2.244  10.938  17.921  0.00  0.00    +0.000 C 
ATOM     23  O   UNL     1      -2.591   9.768  17.884  0.00  0.00    +0.000 OA
BRANCH  22  24
ATOM     24  OXT UNL     1      -3.058  11.933  17.489  0.00  0.00    +0.000 OA
ATOM     25  HXT UNL     1      -3.528  11.682  16.664  0.00  0.00    +0.000 HD
ENDBRANCH  22  24
ENDBRANCH  13  22
TORSDOF 5
ENDMDL
