MODEL 1
REMARK VINA RESULT:      -7.7      0.000      0.000
REMARK  Name = 
REMARK  11 active torsions:
REMARK  status: ('A' for Active; 'I' for Inactive)
REMARK    1  A    between atoms: C_1  and  C_2
REMARK    2  A    between atoms: C_2  and  C_3
REMARK    3  A    between atoms: C_3  and  C_4
REMARK    4  A    between atoms: C_4  and  N_5
REMARK    5  A    between atoms: N_5  and  C_6
REMARK    6  A    between atoms: N_9  and  C_10
REMARK    7  A    between atoms: C_13  and  C_14
REMARK    8  A    between atoms: C_19  and  O_20
REMARK    9  A    between atoms: O_20  and  C_21
REMARK   10  A    between atoms: C_22  and  O_23
REMARK   11  A    between atoms: O_23  and  C_24
REMARK                            x       y       z     vdW  Elec       q    Type
REMARK                         _______ _______ _______ _____ _____    ______ ____
ROOT
ATOM      1  C   UNL     1       2.473   7.268  18.661  0.00  0.00    +0.000 A 
ATOM      2  C   UNL     1       2.239   8.265  17.709  0.00  0.00    +0.000 A 
ATOM      3  C   UNL     1       1.538   9.447  18.008  0.00  0.00    +0.000 A 
ATOM      4  C   UNL     1       1.087   9.690  19.303  0.00  0.00    +0.000 A 
ATOM      5  C   UNL     1       1.354   8.726  20.269  0.00  0.00    +0.000 A 
ATOM      6  C   UNL     1       2.003   7.524  19.955  0.00  0.00    +0.000 A 
ENDROOT
BRANCH   4   7
ATOM      7  C   UNL     1       0.474  10.971  19.713  0.00  0.00    +0.000 C 
ATOM      8  C   UNL     1       0.841  12.164  19.209  0.00  0.00    +0.000 C 
ATOM      9  C   UNL     1       2.100  12.449  18.430  0.00  0.00    +0.000 C 
ATOM     10  C   UNL     1       2.208  13.925  18.525  0.00  0.00    +0.000 A 
ATOM     11  C   UNL     1       3.340  14.692  18.376  0.00  0.00    +0.000 A 
ATOM     12  C   UNL     1       3.199  16.080  18.333  0.00  0.00    +0.000 A 
ATOM     13  C   UNL     1       1.903  16.662  18.318  0.00  0.00    +0.000 A 
ATOM     14  C   UNL     1       0.776  15.877  18.597  0.00  0.00    +0.000 A 
ATOM     15  C   UNL     1       0.981  14.518  18.782  0.00  0.00    +0.000 A 
ATOM     16  C   UNL     1       0.122  13.467  19.370  0.00  0.00    +0.000 C 
ATOM     17  O   UNL     1      -0.947  13.642  19.931  0.00  0.00    +0.000 OA
BRANCH  12  18
ATOM     18  O   UNL     1       4.269  16.945  18.295  0.00  0.00    +0.000 OA
ATOM     19  C   UNL     1       5.072  17.010  19.469  0.00  0.00    +0.000 C 
ENDBRANCH  12  18
BRANCH  13  20
ATOM     20  O   UNL     1       1.866  18.015  18.077  0.00  0.00    +0.000 OA
ATOM     21  C   UNL     1       1.030  18.471  17.021  0.00  0.00    +0.000 C 
ENDBRANCH  13  20
ENDBRANCH   4   7
BRANCH   1  26
ATOM     22  N   UNL     1       5.975   5.321  17.824  0.00  0.00    +0.000 N 
ATOM     23  C   UNL     1       5.857   3.817  17.597  0.00  0.00    +0.000 C 
ATOM     24  C   UNL     1       5.497   5.719  19.251  0.00  0.00    +0.000 C 
ATOM     25  C   UNL     1       3.991   5.485  19.465  0.00  0.00    +0.000 C 
ATOM     26  N   UNL     1       3.181   6.104  18.414  0.00  0.00    +0.000 N 
ATOM     27  C   UNL     1       3.558   5.822  17.020  0.00  0.00    +0.000 C 
ATOM     28  C   UNL     1       5.067   6.083  16.795  0.00  0.00    +0.000 C 
BRANCH  22  29
ATOM     29  C   UNL     1       7.436   5.791  17.596  0.00  0.00    +0.000 C 
BRANCH  29  30
ATOM     30  C   UNL     1       7.803   7.027  18.422  0.00  0.00    +0.000 C 
BRANCH  30  32
ATOM     31  C   UNL     1       8.584   9.409  18.309  0.00  0.00    +0.000 C 
ATOM     32  C   UNL     1       7.849   8.297  17.573  0.00  0.00    +0.000 C 
ENDBRANCH  30  32
ENDBRANCH  29  30
ENDBRANCH  22  29
ENDBRANCH   1  26
TORSDOF 7
ENDMDL
MODEL 2
REMARK VINA RESULT:      -7.7      0.696      1.109
REMARK  Name = 
REMARK  11 active torsions:
REMARK  status: ('A' for Active; 'I' for Inactive)
REMARK    1  A    between atoms: C_1  and  C_2
REMARK    2  A    between atoms: C_2  and  C_3
REMARK    3  A    between atoms: C_3  and  C_4
REMARK    4  A    between atoms: C_4  and  N_5
REMARK    5  A    between atoms: N_5  and  C_6
REMARK    6  A    between atoms: N_9  and  C_10
REMARK    7  A    between atoms: C_13  and  C_14
REMARK    8  A    between atoms: C_19  and  O_20
REMARK    9  A    between atoms: O_20  and  C_21
REMARK   10  A    between atoms: C_22  and  O_23
REMARK   11  A    between atoms: O_23  and  C_24
REMARK                            x       y       z     vdW  Elec       q    Type
REMARK                         _______ _______ _______ _____ _____    ______ ____
ROOT
ATOM      1  C   UNL     1       2.409   7.354  18.874  0.00  0.00    +0.000 A 
ATOM      2  C   UNL     1       1.929   7.584  20.166  0.00  0.00    +0.000 A 
ATOM      3  C   UNL     1       1.216   8.747  20.510  0.00  0.00    +0.000 A 
ATOM      4  C   UNL     1       0.916   9.703  19.544  0.00  0.00    +0.000 A 
ATOM      5  C   UNL     1       1.349   9.462  18.245  0.00  0.00    +0.000 A 
ATOM      6  C   UNL     1       2.108   8.330  17.916  0.00  0.00    +0.000 A 
ENDROOT
BRANCH   4   7
ATOM      7  C   UNL     1       0.050  10.871  19.809  0.00  0.00    +0.000 C 
ATOM      8  C   UNL     1       0.317  12.110  19.355  0.00  0.00    +0.000 C 
ATOM      9  C   UNL     1       1.638  12.592  18.812  0.00  0.00    +0.000 C 
ATOM     10  C   UNL     1       1.500  14.066  18.895  0.00  0.00    +0.000 A 
ATOM     11  C   UNL     1       2.510  14.999  18.938  0.00  0.00    +0.000 A 
ATOM     12  C   UNL     1       2.168  16.349  18.841  0.00  0.00    +0.000 A 
ATOM     13  C   UNL     1       0.823  16.724  18.578  0.00  0.00    +0.000 A 
ATOM     14  C   UNL     1      -0.202  15.774  18.664  0.00  0.00    +0.000 A 
ATOM     15  C   UNL     1       0.171  14.460  18.912  0.00  0.00    +0.000 A 
ATOM     16  C   UNL     1      -0.611  13.285  19.356  0.00  0.00    +0.000 C 
ATOM     17  O   UNL     1      -1.778  13.290  19.709  0.00  0.00    +0.000 OA
BRANCH  12  18
ATOM     18  O   UNL     1       3.082  17.369  18.979  0.00  0.00    +0.000 OA
ATOM     19  C   UNL     1       4.200  17.105  19.821  0.00  0.00    +0.000 C 
ENDBRANCH  12  18
BRANCH  13  20
ATOM     20  O   UNL     1       0.624  18.057  18.307  0.00  0.00    +0.000 OA
ATOM     21  C   UNL     1       0.372  18.422  16.955  0.00  0.00    +0.000 C 
ENDBRANCH  13  20
ENDBRANCH   4   7
BRANCH   1  26
ATOM     22  N   UNL     1       5.895   5.383  18.022  0.00  0.00    +0.000 N 
ATOM     23  C   UNL     1       5.739   3.951  17.518  0.00  0.00    +0.000 C 
ATOM     24  C   UNL     1       5.293   5.552  19.448  0.00  0.00    +0.000 C 
ATOM     25  C   UNL     1       3.766   5.372  19.479  0.00  0.00    +0.000 C 
ATOM     26  N   UNL     1       3.090   6.211  18.487  0.00  0.00    +0.000 N 
ATOM     27  C   UNL     1       3.593   6.157  17.105  0.00  0.00    +0.000 C 
ATOM     28  C   UNL     1       5.125   6.365  17.069  0.00  0.00    +0.000 C 
BRANCH  22  29
ATOM     29  C   UNL     1       7.389   5.800  18.015  0.00  0.00    +0.000 C 
BRANCH  29  30
ATOM     30  C   UNL     1       7.611   7.225  17.501  0.00  0.00    +0.000 C 
BRANCH  30  32
ATOM     31  C   UNL     1       8.400   9.541  18.059  0.00  0.00    +0.000 C 
ATOM     32  C   UNL     1       8.400   8.081  18.492  0.00  0.00    +0.000 C 
ENDBRANCH  30  32
ENDBRANCH  29  30
ENDBRANCH  22  29
ENDBRANCH   1  26
TORSDOF 7
ENDMDL
MODEL 3
REMARK VINA RESULT:      -7.5      1.583      2.129
REMARK  Name = 
REMARK  11 active torsions:
REMARK  status: ('A' for Active; 'I' for Inactive)
REMARK    1  A    between atoms: C_1  and  C_2
REMARK    2  A    between atoms: C_2  and  C_3
REMARK    3  A    between atoms: C_3  and  C_4
REMARK    4  A    between atoms: C_4  and  N_5
REMARK    5  A    between atoms: N_5  and  C_6
REMARK    6  A    between atoms: N_9  and  C_10
REMARK    7  A    between atoms: C_13  and  C_14
REMARK    8  A    between atoms: C_19  and  O_20
REMARK    9  A    between atoms: O_20  and  C_21
REMARK   10  A    between atoms: C_22  and  O_23
REMARK   11  A    between atoms: O_23  and  C_24
REMARK                            x       y       z     vdW  Elec       q    Type
REMARK                         _______ _______ _______ _____ _____    ______ ____
ROOT
ATOM      1  C   UNL     1       2.175   7.300  19.580  0.00  0.00    +0.000 A 
ATOM      2  C   UNL     1       2.088   8.208  18.521  0.00  0.00    +0.000 A 
ATOM      3  C   UNL     1       1.387   9.424  18.623  0.00  0.00    +0.000 A 
ATOM      4  C   UNL     1       0.786   9.792  19.823  0.00  0.00    +0.000 A 
ATOM      5  C   UNL     1       0.905   8.918  20.898  0.00  0.00    +0.000 A 
ATOM      6  C   UNL     1       1.556   7.682  20.777  0.00  0.00    +0.000 A 
ENDROOT
BRANCH   4   7
ATOM      7  C   UNL     1       0.161  11.114  20.037  0.00  0.00    +0.000 C 
ATOM      8  C   UNL     1       0.614  12.248  19.470  0.00  0.00    +0.000 C 
ATOM      9  C   UNL     1       1.961  12.441  18.820  0.00  0.00    +0.000 C 
ATOM     10  C   UNL     1       2.093  13.918  18.789  0.00  0.00    +0.000 A 
ATOM     11  C   UNL     1       3.253  14.651  18.702  0.00  0.00    +0.000 A 
ATOM     12  C   UNL     1       3.152  16.031  18.513  0.00  0.00    +0.000 A 
ATOM     13  C   UNL     1       1.881  16.625  18.291  0.00  0.00    +0.000 A 
ATOM     14  C   UNL     1       0.711  15.887  18.508  0.00  0.00    +0.000 A 
ATOM     15  C   UNL     1       0.859  14.548  18.843  0.00  0.00    +0.000 A 
ATOM     16  C   UNL     1      -0.088  13.570  19.422  0.00  0.00    +0.000 C 
ATOM     17  O   UNL     1      -1.209  13.814  19.835  0.00  0.00    +0.000 OA
BRANCH  12  18
ATOM     18  O   UNL     1       4.240  16.873  18.520  0.00  0.00    +0.000 OA
ATOM     19  C   UNL     1       4.885  17.063  19.775  0.00  0.00    +0.000 C 
ENDBRANCH  12  18
BRANCH  13  20
ATOM     20  O   UNL     1       1.905  17.949  17.923  0.00  0.00    +0.000 OA
ATOM     21  C   UNL     1       1.090  18.340  16.824  0.00  0.00    +0.000 C 
ENDBRANCH  13  20
ENDBRANCH   4   7
BRANCH   1  26
ATOM     22  N   UNL     1       4.178   4.414  17.478  0.00  0.00    +0.000 N 
ATOM     23  C   UNL     1       4.644   3.209  18.290  0.00  0.00    +0.000 C 
ATOM     24  C   UNL     1       4.813   5.734  18.006  0.00  0.00    +0.000 C 
ATOM     25  C   UNL     1       4.338   6.104  19.421  0.00  0.00    +0.000 C 
ATOM     26  N   UNL     1       2.877   6.108  19.529  0.00  0.00    +0.000 N 
ATOM     27  C   UNL     1       2.163   4.921  19.035  0.00  0.00    +0.000 C 
ATOM     28  C   UNL     1       2.620   4.562  17.600  0.00  0.00    +0.000 C 
BRANCH  22  29
ATOM     29  C   UNL     1       4.512   4.218  15.976  0.00  0.00    +0.000 C 
BRANCH  29  30
ATOM     30  C   UNL     1       5.562   5.208  15.463  0.00  0.00    +0.000 C 
BRANCH  30  32
ATOM     31  C   UNL     1       6.276   3.844  13.480  0.00  0.00    +0.000 C 
ATOM     32  C   UNL     1       6.732   4.505  14.774  0.00  0.00    +0.000 C 
ENDBRANCH  30  32
ENDBRANCH  29  30
ENDBRANCH  22  29
ENDBRANCH   1  26
TORSDOF 7
ENDMDL
MODEL 4
REMARK VINA RESULT:      -7.4      3.219      5.181
REMARK  Name = 
REMARK  11 active torsions:
REMARK  status: ('A' for Active; 'I' for Inactive)
REMARK    1  A    between atoms: C_1  and  C_2
REMARK    2  A    between atoms: C_2  and  C_3
REMARK    3  A    between atoms: C_3  and  C_4
REMARK    4  A    between atoms: C_4  and  N_5
REMARK    5  A    between atoms: N_5  and  C_6
REMARK    6  A    between atoms: N_9  and  C_10
REMARK    7  A    between atoms: C_13  and  C_14
REMARK    8  A    between atoms: C_19  and  O_20
REMARK    9  A    between atoms: O_20  and  C_21
REMARK   10  A    between atoms: C_22  and  O_23
REMARK   11  A    between atoms: O_23  and  C_24
REMARK                            x       y       z     vdW  Elec       q    Type
REMARK                         _______ _______ _______ _____ _____    ______ ____
ROOT
ATOM      1  C   UNL     1       2.172   7.006  19.389  0.00  0.00    +0.000 A 
ATOM      2  C   UNL     1       2.263   7.842  18.273  0.00  0.00    +0.000 A 
ATOM      3  C   UNL     1       1.810   9.174  18.287  0.00  0.00    +0.000 A 
ATOM      4  C   UNL     1       1.289   9.729  19.453  0.00  0.00    +0.000 A 
ATOM      5  C   UNL     1       1.236   8.919  20.583  0.00  0.00    +0.000 A 
ATOM      6  C   UNL     1       1.636   7.576  20.550  0.00  0.00    +0.000 A 
ENDROOT
BRANCH   4   7
ATOM      7  C   UNL     1       0.931  11.157  19.573  0.00  0.00    +0.000 C 
ATOM      8  C   UNL     1       0.345  11.685  20.664  0.00  0.00    +0.000 C 
ATOM      9  C   UNL     1      -0.329  10.916  21.772  0.00  0.00    +0.000 C 
ATOM     10  C   UNL     1      -1.152  11.958  22.431  0.00  0.00    +0.000 A 
ATOM     11  C   UNL     1      -2.271  11.771  23.210  0.00  0.00    +0.000 A 
ATOM     12  C   UNL     1      -2.802  12.874  23.881  0.00  0.00    +0.000 A 
ATOM     13  C   UNL     1      -2.121  14.120  23.850  0.00  0.00    +0.000 A 
ATOM     14  C   UNL     1      -1.062  14.321  22.955  0.00  0.00    +0.000 A 
ATOM     15  C   UNL     1      -0.660  13.232  22.194  0.00  0.00    +0.000 A 
ATOM     16  C   UNL     1       0.177  13.140  20.978  0.00  0.00    +0.000 C 
ATOM     17  O   UNL     1       0.601  14.078  20.324  0.00  0.00    +0.000 OA
BRANCH  12  18
ATOM     18  O   UNL     1      -3.976  12.824  24.599  0.00  0.00    +0.000 OA
ATOM     19  C   UNL     1      -5.181  12.927  23.848  0.00  0.00    +0.000 C 
ENDBRANCH  12  18
BRANCH  13  20
ATOM     20  O   UNL     1      -2.616  15.084  24.695  0.00  0.00    +0.000 OA
ATOM     21  C   UNL     1      -1.839  15.415  25.840  0.00  0.00    +0.000 C 
ENDBRANCH  13  20
ENDBRANCH   4   7
BRANCH   1  26
ATOM     22  N   UNL     1       4.216   3.885  17.703  0.00  0.00    +0.000 N 
ATOM     23  C   UNL     1       4.171   2.570  18.477  0.00  0.00    +0.000 C 
ATOM     24  C   UNL     1       4.864   5.019  18.551  0.00  0.00    +0.000 C 
ATOM     25  C   UNL     1       4.021   5.405  19.779  0.00  0.00    +0.000 C 
ATOM     26  N   UNL     1       2.631   5.699  19.424  0.00  0.00    +0.000 N 
ATOM     27  C   UNL     1       1.923   4.709  18.598  0.00  0.00    +0.000 C 
ATOM     28  C   UNL     1       2.756   4.339  17.348  0.00  0.00    +0.000 C 
BRANCH  22  29
ATOM     29  C   UNL     1       4.987   3.703  16.369  0.00  0.00    +0.000 C 
BRANCH  29  30
ATOM     30  C   UNL     1       6.348   4.404  16.363  0.00  0.00    +0.000 C 
BRANCH  30  32
ATOM     31  C   UNL     1       5.949   3.988  13.921  0.00  0.00    +0.000 C 
ATOM     32  C   UNL     1       6.921   4.543  14.953  0.00  0.00    +0.000 C 
ENDBRANCH  30  32
ENDBRANCH  29  30
ENDBRANCH  22  29
ENDBRANCH   1  26
TORSDOF 7
ENDMDL
MODEL 5
REMARK VINA RESULT:      -7.3      1.411      2.089
REMARK  Name = 
REMARK  11 active torsions:
REMARK  status: ('A' for Active; 'I' for Inactive)
REMARK    1  A    between atoms: C_1  and  C_2
REMARK    2  A    between atoms: C_2  and  C_3
REMARK    3  A    between atoms: C_3  and  C_4
REMARK    4  A    between atoms: C_4  and  N_5
REMARK    5  A    between atoms: N_5  and  C_6
REMARK    6  A    between atoms: N_9  and  C_10
REMARK    7  A    between atoms: C_13  and  C_14
REMARK    8  A    between atoms: C_19  and  O_20
REMARK    9  A    between atoms: O_20  and  C_21
REMARK   10  A    between atoms: C_22  and  O_23
REMARK   11  A    between atoms: O_23  and  C_24
REMARK                            x       y       z     vdW  Elec       q    Type
REMARK                         _______ _______ _______ _____ _____    ______ ____
ROOT
ATOM      1  C   UNL     1       2.003   7.311  19.544  0.00  0.00    +0.000 A 
ATOM      2  C   UNL     1       1.594   7.738  20.810  0.00  0.00    +0.000 A 
ATOM      3  C   UNL     1       1.093   9.031  21.046  0.00  0.00    +0.000 A 
ATOM      4  C   UNL     1       0.940   9.931  19.995  0.00  0.00    +0.000 A 
ATOM      5  C   UNL     1       1.301   9.501  18.723  0.00  0.00    +0.000 A 
ATOM      6  C   UNL     1       1.852   8.232  18.499  0.00  0.00    +0.000 A 
ENDROOT
BRANCH   4   7
ATOM      7  C   UNL     1       0.288  11.248  20.152  0.00  0.00    +0.000 C 
ATOM      8  C   UNL     1       0.732  12.370  19.557  0.00  0.00    +0.000 C 
ATOM      9  C   UNL     1       2.089  12.566  18.930  0.00  0.00    +0.000 C 
ATOM     10  C   UNL     1       2.197  14.043  18.853  0.00  0.00    +0.000 A 
ATOM     11  C   UNL     1       3.346  14.795  18.767  0.00  0.00    +0.000 A 
ATOM     12  C   UNL     1       3.224  16.165  18.530  0.00  0.00    +0.000 A 
ATOM     13  C   UNL     1       1.948  16.730  18.263  0.00  0.00    +0.000 A 
ATOM     14  C   UNL     1       0.786  15.977  18.480  0.00  0.00    +0.000 A 
ATOM     15  C   UNL     1       0.951  14.653  18.861  0.00  0.00    +0.000 A 
ATOM     16  C   UNL     1       0.009  13.678  19.452  0.00  0.00    +0.000 C 
ATOM     17  O   UNL     1      -1.125  13.914  19.834  0.00  0.00    +0.000 OA
BRANCH  12  18
ATOM     18  O   UNL     1       4.297  17.027  18.532  0.00  0.00    +0.000 OA
ATOM     19  C   UNL     1       4.943  17.230  19.784  0.00  0.00    +0.000 C 
ENDBRANCH  12  18
BRANCH  13  20
ATOM     20  O   UNL     1       1.957  18.041  17.851  0.00  0.00    +0.000 OA
ATOM     21  C   UNL     1       1.128  18.389  16.749  0.00  0.00    +0.000 C 
ENDBRANCH  13  20
ENDBRANCH   4   7
BRANCH   1  26
ATOM     22  N   UNL     1       4.822   4.814  17.937  0.00  0.00    +0.000 N 
ATOM     23  C   UNL     1       4.494   3.324  17.992  0.00  0.00    +0.000 C 
ATOM     24  C   UNL     1       4.890   5.433  19.364  0.00  0.00    +0.000 C 
ATOM     25  C   UNL     1       3.529   5.436  20.082  0.00  0.00    +0.000 C 
ATOM     26  N   UNL     1       2.475   6.039  19.264  0.00  0.00    +0.000 N 
ATOM     27  C   UNL     1       2.333   5.552  17.883  0.00  0.00    +0.000 C 
ATOM     28  C   UNL     1       3.696   5.573  17.150  0.00  0.00    +0.000 C 
BRANCH  22  29
ATOM     29  C   UNL     1       6.158   5.047  17.185  0.00  0.00    +0.000 C 
BRANCH  29  30
ATOM     30  C   UNL     1       6.339   4.116  15.983  0.00  0.00    +0.000 C 
BRANCH  30  32
ATOM     31  C   UNL     1       6.288   3.911  13.483  0.00  0.00    +0.000 C 
ATOM     32  C   UNL     1       6.350   4.877  14.658  0.00  0.00    +0.000 C 
ENDBRANCH  30  32
ENDBRANCH  29  30
ENDBRANCH  22  29
ENDBRANCH   1  26
TORSDOF 7
ENDMDL
MODEL 6
REMARK VINA RESULT:      -7.3      3.323      5.141
REMARK  Name = 
REMARK  11 active torsions:
REMARK  status: ('A' for Active; 'I' for Inactive)
REMARK    1  A    between atoms: C_1  and  C_2
REMARK    2  A    between atoms: C_2  and  C_3
REMARK    3  A    between atoms: C_3  and  C_4
REMARK    4  A    between atoms: C_4  and  N_5
REMARK    5  A    between atoms: N_5  and  C_6
REMARK    6  A    between atoms: N_9  and  C_10
REMARK    7  A    between atoms: C_13  and  C_14
REMARK    8  A    between atoms: C_19  and  O_20
REMARK    9  A    between atoms: O_20  and  C_21
REMARK   10  A    between atoms: C_22  and  O_23
REMARK   11  A    between atoms: O_23  and  C_24
REMARK                            x       y       z     vdW  Elec       q    Type
REMARK                         _______ _______ _______ _____ _____    ______ ____
ROOT
ATOM      1  C   UNL     1       1.905   7.382  19.368  0.00  0.00    +0.000 A 
ATOM      2  C   UNL     1       1.914   8.341  18.351  0.00  0.00    +0.000 A 
ATOM      3  C   UNL     1       1.543   9.680  18.571  0.00  0.00    +0.000 A 
ATOM      4  C   UNL     1       1.196  10.114  19.847  0.00  0.00    +0.000 A 
ATOM      5  C   UNL     1       1.228   9.180  20.876  0.00  0.00    +0.000 A 
ATOM      6  C   UNL     1       1.543   7.834  20.644  0.00  0.00    +0.000 A 
ENDROOT
BRANCH   4   7
ATOM      7  C   UNL     1       0.938  11.533  20.171  0.00  0.00    +0.000 C 
ATOM      8  C   UNL     1       0.198  11.931  21.223  0.00  0.00    +0.000 C 
ATOM      9  C   UNL     1      -0.736  11.066  22.030  0.00  0.00    +0.000 C 
ATOM     10  C   UNL     1      -1.584  12.067  22.720  0.00  0.00    +0.000 A 
ATOM     11  C   UNL     1      -2.843  11.879  23.243  0.00  0.00    +0.000 A 
ATOM     12  C   UNL     1      -3.402  12.905  24.007  0.00  0.00    +0.000 A 
ATOM     13  C   UNL     1      -2.630  14.052  24.331  0.00  0.00    +0.000 A 
ATOM     14  C   UNL     1      -1.406  14.280  23.689  0.00  0.00    +0.000 A 
ATOM     15  C   UNL     1      -0.954  13.299  22.818  0.00  0.00    +0.000 A 
ATOM     16  C   UNL     1       0.091  13.320  21.771  0.00  0.00    +0.000 C 
ATOM     17  O   UNL     1       0.707  14.301  21.391  0.00  0.00    +0.000 OA
BRANCH  12  18
ATOM     18  O   UNL     1      -4.692  12.869  24.487  0.00  0.00    +0.000 OA
ATOM     19  C   UNL     1      -5.728  13.053  23.527  0.00  0.00    +0.000 C 
ENDBRANCH  12  18
BRANCH  13  20
ATOM     20  O   UNL     1      -3.198  14.908  25.244  0.00  0.00    +0.000 OA
ATOM     21  C   UNL     1      -3.293  16.281  24.886  0.00  0.00    +0.000 C 
ENDBRANCH  13  20
ENDBRANCH   4   7
BRANCH   1  26
ATOM     22  N   UNL     1       4.667   4.573  18.253  0.00  0.00    +0.000 N 
ATOM     23  C   UNL     1       4.196   3.123  18.313  0.00  0.00    +0.000 C 
ATOM     24  C   UNL     1       4.600   5.249  19.655  0.00  0.00    +0.000 C 
ATOM     25  C   UNL     1       3.161   5.406  20.176  0.00  0.00    +0.000 C 
ATOM     26  N   UNL     1       2.288   6.062  19.199  0.00  0.00    +0.000 N 
ATOM     27  C   UNL     1       2.289   5.526  17.829  0.00  0.00    +0.000 C 
ATOM     28  C   UNL     1       3.735   5.392  17.292  0.00  0.00    +0.000 C 
BRANCH  22  29
ATOM     29  C   UNL     1       6.108   4.652  17.686  0.00  0.00    +0.000 C 
BRANCH  29  30
ATOM     30  C   UNL     1       6.394   5.968  16.958  0.00  0.00    +0.000 C 
BRANCH  30  32
ATOM     31  C   UNL     1       7.957   6.090  18.918  0.00  0.00    +0.000 C 
ATOM     32  C   UNL     1       7.435   6.819  17.687  0.00  0.00    +0.000 C 
ENDBRANCH  30  32
ENDBRANCH  29  30
ENDBRANCH  22  29
ENDBRANCH   1  26
TORSDOF 7
ENDMDL
MODEL 7
REMARK VINA RESULT:      -7.3      1.092      1.371
REMARK  Name = 
REMARK  11 active torsions:
REMARK  status: ('A' for Active; 'I' for Inactive)
REMARK    1  A    between atoms: C_1  and  C_2
REMARK    2  A    between atoms: C_2  and  C_3
REMARK    3  A    between atoms: C_3  and  C_4
REMARK    4  A    between atoms: C_4  and  N_5
REMARK    5  A    between atoms: N_5  and  C_6
REMARK    6  A    between atoms: N_9  and  C_10
REMARK    7  A    between atoms: C_13  and  C_14
REMARK    8  A    between atoms: C_19  and  O_20
REMARK    9  A    between atoms: O_20  and  C_21
REMARK   10  A    between atoms: C_22  and  O_23
REMARK   11  A    between atoms: O_23  and  C_24
REMARK                            x       y       z     vdW  Elec       q    Type
REMARK                         _______ _______ _______ _____ _____    ______ ____
ROOT
ATOM      1  C   UNL     1       2.596   7.149  18.685  0.00  0.00    +0.000 A 
ATOM      2  C   UNL     1       2.092   8.180  17.887  0.00  0.00    +0.000 A 
ATOM      3  C   UNL     1       1.244   9.182  18.393  0.00  0.00    +0.000 A 
ATOM      4  C   UNL     1       0.912   9.208  19.745  0.00  0.00    +0.000 A 
ATOM      5  C   UNL     1       1.446   8.213  20.558  0.00  0.00    +0.000 A 
ATOM      6  C   UNL     1       2.244   7.184  20.040  0.00  0.00    +0.000 A 
ENDROOT
BRANCH   4   7
ATOM      7  C   UNL     1       0.147  10.310  20.365  0.00  0.00    +0.000 C 
ATOM      8  C   UNL     1       0.149  11.570  19.891  0.00  0.00    +0.000 C 
ATOM      9  C   UNL     1       1.133  12.149  18.906  0.00  0.00    +0.000 C 
ATOM     10  C   UNL     1       0.951  13.609  19.092  0.00  0.00    +0.000 A 
ATOM     11  C   UNL     1       1.845  14.608  18.784  0.00  0.00    +0.000 A 
ATOM     12  C   UNL     1       1.415  15.933  18.876  0.00  0.00    +0.000 A 
ATOM     13  C   UNL     1       0.053  16.219  19.158  0.00  0.00    +0.000 A 
ATOM     14  C   UNL     1      -0.805  15.200  19.591  0.00  0.00    +0.000 A 
ATOM     15  C   UNL     1      -0.291  13.911  19.628  0.00  0.00    +0.000 A 
ATOM     16  C   UNL     1      -0.775  12.680  20.289  0.00  0.00    +0.000 C 
ATOM     17  O   UNL     1      -1.717  12.600  21.060  0.00  0.00    +0.000 OA
BRANCH  12  18
ATOM     18  O   UNL     1       2.253  17.010  18.696  0.00  0.00    +0.000 OA
ATOM     19  C   UNL     1       2.977  17.050  17.471  0.00  0.00    +0.000 C 
ENDBRANCH  12  18
BRANCH  13  20
ATOM     20  O   UNL     1      -0.311  17.538  19.035  0.00  0.00    +0.000 OA
ATOM     21  C   UNL     1      -1.057  17.908  17.882  0.00  0.00    +0.000 C 
ENDBRANCH  13  20
ENDBRANCH   4   7
BRANCH   1  26
ATOM     22  N   UNL     1       6.373   5.768  17.915  0.00  0.00    +0.000 N 
ATOM     23  C   UNL     1       6.452   4.399  17.244  0.00  0.00    +0.000 C 
ATOM     24  C   UNL     1       5.657   5.682  19.295  0.00  0.00    +0.000 C 
ATOM     25  C   UNL     1       4.171   5.302  19.177  0.00  0.00    +0.000 C 
ATOM     26  N   UNL     1       3.455   6.161  18.232  0.00  0.00    +0.000 N 
ATOM     27  C   UNL     1       4.053   6.341  16.900  0.00  0.00    +0.000 C 
ATOM     28  C   UNL     1       5.541   6.749  17.016  0.00  0.00    +0.000 C 
BRANCH  22  29
ATOM     29  C   UNL     1       7.791   6.373  18.081  0.00  0.00    +0.000 C 
BRANCH  29  30
ATOM     30  C   UNL     1       7.874   7.835  17.633  0.00  0.00    +0.000 C 
BRANCH  30  32
ATOM     31  C   UNL     1       8.621  10.163  18.200  0.00  0.00    +0.000 C 
ATOM     32  C   UNL     1       8.636   8.704  18.635  0.00  0.00    +0.000 C 
ENDBRANCH  30  32
ENDBRANCH  29  30
ENDBRANCH  22  29
ENDBRANCH   1  26
TORSDOF 7
ENDMDL
MODEL 8
REMARK VINA RESULT:      -7.2      3.345      5.168
REMARK  Name = 
REMARK  11 active torsions:
REMARK  status: ('A' for Active; 'I' for Inactive)
REMARK    1  A    between atoms: C_1  and  C_2
REMARK    2  A    between atoms: C_2  and  C_3
REMARK    3  A    between atoms: C_3  and  C_4
REMARK    4  A    between atoms: C_4  and  N_5
REMARK    5  A    between atoms: N_5  and  C_6
REMARK    6  A    between atoms: N_9  and  C_10
REMARK    7  A    between atoms: C_13  and  C_14
REMARK    8  A    between atoms: C_19  and  O_20
REMARK    9  A    between atoms: O_20  and  C_21
REMARK   10  A    between atoms: C_22  and  O_23
REMARK   11  A    between atoms: O_23  and  C_24
REMARK                            x       y       z     vdW  Elec       q    Type
REMARK                         _______ _______ _______ _____ _____    ______ ____
ROOT
ATOM      1  C   UNL     1       2.220   7.011  19.544  0.00  0.00    +0.000 A 
ATOM      2  C   UNL     1       1.539   7.571  20.629  0.00  0.00    +0.000 A 
ATOM      3  C   UNL     1       0.989   8.865  20.590  0.00  0.00    +0.000 A 
ATOM      4  C   UNL     1       1.065   9.628  19.428  0.00  0.00    +0.000 A 
ATOM      5  C   UNL     1       1.700   9.063  18.327  0.00  0.00    +0.000 A 
ATOM      6  C   UNL     1       2.296   7.797  18.387  0.00  0.00    +0.000 A 
ENDROOT
BRANCH   4   7
ATOM      7  C   UNL     1       0.384  10.932  19.277  0.00  0.00    +0.000 C 
ATOM      8  C   UNL     1      -0.160  11.607  20.306  0.00  0.00    +0.000 C 
ATOM      9  C   UNL     1      -0.467  11.049  21.673  0.00  0.00    +0.000 C 
ATOM     10  C   UNL     1      -1.425  12.042  22.216  0.00  0.00    +0.000 A 
ATOM     11  C   UNL     1      -2.345  11.852  23.221  0.00  0.00    +0.000 A 
ATOM     12  C   UNL     1      -3.037  12.964  23.704  0.00  0.00    +0.000 A 
ATOM     13  C   UNL     1      -2.696  14.265  23.249  0.00  0.00    +0.000 A 
ATOM     14  C   UNL     1      -1.851  14.425  22.142  0.00  0.00    +0.000 A 
ATOM     15  C   UNL     1      -1.300  13.275  21.595  0.00  0.00    +0.000 A 
ATOM     16  C   UNL     1      -0.638  13.026  20.295  0.00  0.00    +0.000 C 
ATOM     17  O   UNL     1      -0.552  13.816  19.370  0.00  0.00    +0.000 OA
BRANCH  12  18
ATOM     18  O   UNL     1      -4.053  12.875  24.628  0.00  0.00    +0.000 OA
ATOM     19  C   UNL     1      -5.368  12.708  24.107  0.00  0.00    +0.000 C 
ENDBRANCH  12  18
BRANCH  13  20
ATOM     20  O   UNL     1      -3.294  15.303  23.924  0.00  0.00    +0.000 OA
ATOM     21  C   UNL     1      -3.149  16.609  23.381  0.00  0.00    +0.000 C 
ENDBRANCH  13  20
ENDBRANCH   4   7
BRANCH   1  26
ATOM     22  N   UNL     1       4.140   3.952  17.615  0.00  0.00    +0.000 N 
ATOM     23  C   UNL     1       4.292   2.660  18.412  0.00  0.00    +0.000 C 
ATOM     24  C   UNL     1       4.850   5.143  18.324  0.00  0.00    +0.000 C 
ATOM     25  C   UNL     1       4.195   5.521  19.663  0.00  0.00    +0.000 C 
ATOM     26  N   UNL     1       2.752   5.732  19.532  0.00  0.00    +0.000 N 
ATOM     27  C   UNL     1       1.977   4.683  18.851  0.00  0.00    +0.000 C 
ATOM     28  C   UNL     1       2.619   4.320  17.491  0.00  0.00    +0.000 C 
BRANCH  22  29
ATOM     29  C   UNL     1       4.696   3.772  16.179  0.00  0.00    +0.000 C 
BRANCH  29  30
ATOM     30  C   UNL     1       6.180   4.132  16.061  0.00  0.00    +0.000 C 
BRANCH  30  32
ATOM     31  C   UNL     1       6.010   3.834  13.575  0.00  0.00    +0.000 C 
ATOM     32  C   UNL     1       6.524   4.728  14.696  0.00  0.00    +0.000 C 
ENDBRANCH  30  32
ENDBRANCH  29  30
ENDBRANCH  22  29
ENDBRANCH   1  26
TORSDOF 7
ENDMDL
MODEL 9
REMARK VINA RESULT:      -7.1      1.900      3.517
REMARK  Name = 
REMARK  11 active torsions:
REMARK  status: ('A' for Active; 'I' for Inactive)
REMARK    1  A    between atoms: C_1  and  C_2
REMARK    2  A    between atoms: C_2  and  C_3
REMARK    3  A    between atoms: C_3  and  C_4
REMARK    4  A    between atoms: C_4  and  N_5
REMARK    5  A    between atoms: N_5  and  C_6
REMARK    6  A    between atoms: N_9  and  C_10
REMARK    7  A    between atoms: C_13  and  C_14
REMARK    8  A    between atoms: C_19  and  O_20
REMARK    9  A    between atoms: O_20  and  C_21
REMARK   10  A    between atoms: C_22  and  O_23
REMARK   11  A    between atoms: O_23  and  C_24
REMARK                            x       y       z     vdW  Elec       q    Type
REMARK                         _______ _______ _______ _____ _____    ______ ____
ROOT
ATOM      1  C   UNL     1       2.657   7.428  18.610  0.00  0.00    +0.000 A 
ATOM      2  C   UNL     1       2.127   7.577  19.895  0.00  0.00    +0.000 A 
ATOM      3  C   UNL     1       1.348   8.687  20.268  0.00  0.00    +0.000 A 
ATOM      4  C   UNL     1       1.031   9.671  19.335  0.00  0.00    +0.000 A 
ATOM      5  C   UNL     1       1.514   9.510  18.041  0.00  0.00    +0.000 A 
ATOM      6  C   UNL     1       2.337   8.432  17.687  0.00  0.00    +0.000 A 
ENDROOT
BRANCH   4   7
ATOM      7  C   UNL     1       0.101  10.782  19.624  0.00  0.00    +0.000 C 
ATOM      8  C   UNL     1       0.314  12.050  19.222  0.00  0.00    +0.000 C 
ATOM      9  C   UNL     1       1.620  12.618  18.728  0.00  0.00    +0.000 C 
ATOM     10  C   UNL     1       1.405  14.079  18.862  0.00  0.00    +0.000 A 
ATOM     11  C   UNL     1       2.364  15.060  18.963  0.00  0.00    +0.000 A 
ATOM     12  C   UNL     1       1.956  16.393  18.909  0.00  0.00    +0.000 A 
ATOM     13  C   UNL     1       0.600  16.710  18.629  0.00  0.00    +0.000 A 
ATOM     14  C   UNL     1      -0.377  15.707  18.656  0.00  0.00    +0.000 A 
ATOM     15  C   UNL     1       0.057  14.405  18.864  0.00  0.00    +0.000 A 
ATOM     16  C   UNL     1      -0.673  13.176  19.245  0.00  0.00    +0.000 C 
ATOM     17  O   UNL     1      -1.846  13.109  19.572  0.00  0.00    +0.000 OA
BRANCH  12  18
ATOM     18  O   UNL     1       2.814  17.452  19.106  0.00  0.00    +0.000 OA
ATOM     19  C   UNL     1       3.302  17.630  20.432  0.00  0.00    +0.000 C 
ENDBRANCH  12  18
BRANCH  13  20
ATOM     20  O   UNL     1       0.339  18.041  18.403  0.00  0.00    +0.000 OA
ATOM     21  C   UNL     1      -0.012  18.425  17.080  0.00  0.00    +0.000 C 
ENDBRANCH  13  20
ENDBRANCH   4   7
BRANCH   1  26
ATOM     22  N   UNL     1       3.429   3.407  18.617  0.00  0.00    +0.000 N 
ATOM     23  C   UNL     1       4.670   2.971  17.844  0.00  0.00    +0.000 C 
ATOM     24  C   UNL     1       2.400   4.115  17.687  0.00  0.00    +0.000 C 
ATOM     25  C   UNL     1       2.915   5.456  17.135  0.00  0.00    +0.000 C 
ATOM     26  N   UNL     1       3.405   6.338  18.195  0.00  0.00    +0.000 N 
ATOM     27  C   UNL     1       4.363   5.769  19.156  0.00  0.00    +0.000 C 
ATOM     28  C   UNL     1       3.836   4.434  19.733  0.00  0.00    +0.000 C 
BRANCH  22  29
ATOM     29  C   UNL     1       2.772   2.190  19.318  0.00  0.00    +0.000 C 
BRANCH  29  30
ATOM     30  C   UNL     1       1.246   2.293  19.392  0.00  0.00    +0.000 C 
BRANCH  30  32
ATOM     31  C   UNL     1       1.677   2.600  21.845  0.00  0.00    +0.000 C 
ATOM     32  C   UNL     1       0.773   2.971  20.678  0.00  0.00    +0.000 C 
ENDBRANCH  30  32
ENDBRANCH  29  30
ENDBRANCH  22  29
ENDBRANCH   1  26
TORSDOF 7
ENDMDL
