MODEL 1
REMARK VINA RESULT:      -8.7      0.000      0.000
REMARK  Name = 
REMARK  9 active torsions:
REMARK  status: ('A' for Active; 'I' for Inactive)
REMARK    1  A    between atoms: C_1  and  C_2
REMARK    2  A    between atoms: C_2  and  C_3
REMARK    3  A    between atoms: C_3  and  C_4
REMARK    4  A    between atoms: C_7  and  O_8
REMARK    5  A    between atoms: N_13  and  C_14
REMARK    6  A    between atoms: C_14  and  C_15
REMARK    7  A    between atoms: C_18  and  C_19
REMARK    8  A    between atoms: C_24  and  C_25
REMARK    9  A    between atoms: C_25  and  O_27
REMARK                            x       y       z     vdW  Elec       q    Type
REMARK                         _______ _______ _______ _____ _____    ______ ____
ROOT
ATOM      1  C   UNL     1       2.594   6.859  19.540  0.00  0.00    +0.000 A 
ATOM      2  C   UNL     1       1.753   7.415  20.510  0.00  0.00    +0.000 A 
ATOM      3  C   UNL     1       1.002   8.568  20.243  0.00  0.00    +0.000 A 
ATOM      4  C   UNL     1       0.998   9.156  18.970  0.00  0.00    +0.000 A 
ATOM      5  C   UNL     1       1.852   8.593  18.006  0.00  0.00    +0.000 A 
ATOM      6  C   UNL     1       2.652   7.482  18.290  0.00  0.00    +0.000 A 
ENDROOT
BRANCH   4   7
ATOM      7  C   UNL     1       0.125  10.302  18.621  0.00  0.00    +0.000 A 
ATOM      8  C   UNL     1      -1.050  10.045  17.871  0.00  0.00    +0.000 A 
ATOM      9  C   UNL     1      -1.963  11.051  17.540  0.00  0.00    +0.000 A 
ATOM     10  C   UNL     1      -1.715  12.359  17.924  0.00  0.00    +0.000 A 
ATOM     11  C   UNL     1      -0.555  12.655  18.636  0.00  0.00    +0.000 A 
ATOM     12  C   UNL     1       0.360  11.646  18.999  0.00  0.00    +0.000 A 
BRANCH  12  13
ATOM     13  C   UNL     1       1.544  12.148  19.750  0.00  0.00    +0.000 C 
ATOM     14  O   UNL     1       2.458  12.737  19.193  0.00  0.00    +0.000 OA
BRANCH  13  15
ATOM     15  O   UNL     1       1.503  11.987  21.087  0.00  0.00    +0.000 OA
ATOM     16  H   UNL     1       2.366  11.875  21.528  0.00  0.00    +0.000 HD
ENDBRANCH  13  15
ENDBRANCH  12  13
ENDBRANCH   4   7
BRANCH   1  17
ATOM     17  C   UNL     1       3.483   5.683  19.864  0.00  0.00    +0.000 C 
BRANCH  17  26
ATOM     18  C   UNL     1       3.061   4.278  17.782  0.00  0.00    +0.000 A 
ATOM     19  N   UNL     1       3.744   3.895  16.719  0.00  0.00    +0.000 NA
ATOM     20  C   UNL     1       5.048   4.238  16.969  0.00  0.00    +0.000 A 
ATOM     21  C   UNL     1       6.177   4.069  16.150  0.00  0.00    +0.000 A 
ATOM     22  C   UNL     1       7.423   4.491  16.595  0.00  0.00    +0.000 A 
ATOM     23  C   UNL     1       7.549   5.062  17.862  0.00  0.00    +0.000 A 
ATOM     24  C   UNL     1       6.436   5.246  18.699  0.00  0.00    +0.000 A 
ATOM     25  C   UNL     1       5.187   4.830  18.219  0.00  0.00    +0.000 A 
ATOM     26  N   UNL     1       3.894   4.887  18.712  0.00  0.00    +0.000 N 
BRANCH  21  27
ATOM     27  O   UNL     1       6.064   3.501  14.902  0.00  0.00    +0.000 OA
ATOM     28  H   UNL     1       6.985   3.465  14.572  0.00  0.00    +0.000 HD
ENDBRANCH  21  27
BRANCH  18  29
ATOM     29  C   UNL     1       1.595   4.031  17.947  0.00  0.00    +0.000 C 
BRANCH  29  31
ATOM     30  C   UNL     1       0.971   3.173  20.272  0.00  0.00    +0.000 C 
ATOM     31  C   UNL     1       1.233   2.825  18.813  0.00  0.00    +0.000 C 
ENDBRANCH  29  31
ENDBRANCH  18  29
ENDBRANCH  17  26
ENDBRANCH   1  17
TORSDOF 8
ENDMDL
MODEL 2
REMARK VINA RESULT:      -8.6      2.309      4.149
REMARK  Name = 
REMARK  9 active torsions:
REMARK  status: ('A' for Active; 'I' for Inactive)
REMARK    1  A    between atoms: C_1  and  C_2
REMARK    2  A    between atoms: C_2  and  C_3
REMARK    3  A    between atoms: C_3  and  C_4
REMARK    4  A    between atoms: C_7  and  O_8
REMARK    5  A    between atoms: N_13  and  C_14
REMARK    6  A    between atoms: C_14  and  C_15
REMARK    7  A    between atoms: C_18  and  C_19
REMARK    8  A    between atoms: C_24  and  C_25
REMARK    9  A    between atoms: C_25  and  O_27
REMARK                            x       y       z     vdW  Elec       q    Type
REMARK                         _______ _______ _______ _____ _____    ______ ____
ROOT
ATOM      1  C   UNL     1       3.202   7.287  18.108  0.00  0.00    +0.000 A 
ATOM      2  C   UNL     1       2.700   8.528  17.698  0.00  0.00    +0.000 A 
ATOM      3  C   UNL     1       1.774   9.229  18.482  0.00  0.00    +0.000 A 
ATOM      4  C   UNL     1       1.382   8.759  19.743  0.00  0.00    +0.000 A 
ATOM      5  C   UNL     1       1.888   7.509  20.142  0.00  0.00    +0.000 A 
ATOM      6  C   UNL     1       2.761   6.776  19.332  0.00  0.00    +0.000 A 
ENDROOT
BRANCH   4   7
ATOM      7  C   UNL     1       0.500   9.535  20.648  0.00  0.00    +0.000 A 
ATOM      8  C   UNL     1       0.598   9.301  22.042  0.00  0.00    +0.000 A 
ATOM      9  C   UNL     1      -0.152  10.020  22.977  0.00  0.00    +0.000 A 
ATOM     10  C   UNL     1      -1.052  10.981  22.545  0.00  0.00    +0.000 A 
ATOM     11  C   UNL     1      -1.199  11.217  21.180  0.00  0.00    +0.000 A 
ATOM     12  C   UNL     1      -0.429  10.517  20.229  0.00  0.00    +0.000 A 
BRANCH  12  13
ATOM     13  C   UNL     1      -0.725  10.894  18.818  0.00  0.00    +0.000 C 
ATOM     14  O   UNL     1      -1.512  10.259  18.134  0.00  0.00    +0.000 OA
BRANCH  13  15
ATOM     15  O   UNL     1      -0.138  12.024  18.377  0.00  0.00    +0.000 OA
ATOM     16  H   UNL     1       0.419  12.494  19.026  0.00  0.00    +0.000 HD
ENDBRANCH  13  15
ENDBRANCH  12  13
ENDBRANCH   4   7
BRANCH   1  17
ATOM     17  C   UNL     1       4.114   6.484  17.214  0.00  0.00    +0.000 C 
BRANCH  17  26
ATOM     18  C   UNL     1       5.808   5.190  18.608  0.00  0.00    +0.000 A 
ATOM     19  N   UNL     1       5.859   4.029  19.235  0.00  0.00    +0.000 NA
ATOM     20  C   UNL     1       4.745   3.338  18.834  0.00  0.00    +0.000 A 
ATOM     21  C   UNL     1       4.314   2.058  19.221  0.00  0.00    +0.000 A 
ATOM     22  C   UNL     1       3.142   1.534  18.693  0.00  0.00    +0.000 A 
ATOM     23  C   UNL     1       2.409   2.275  17.764  0.00  0.00    +0.000 A 
ATOM     24  C   UNL     1       2.815   3.558  17.362  0.00  0.00    +0.000 A 
ATOM     25  C   UNL     1       3.991   4.073  17.926  0.00  0.00    +0.000 A 
ATOM     26  N   UNL     1       4.665   5.278  17.822  0.00  0.00    +0.000 N 
BRANCH  21  27
ATOM     27  O   UNL     1       5.033   1.318  20.132  0.00  0.00    +0.000 OA
ATOM     28  H   UNL     1       5.965   1.444  19.857  0.00  0.00    +0.000 HD
ENDBRANCH  21  27
BRANCH  18  29
ATOM     29  C   UNL     1       6.878   6.229  18.718  0.00  0.00    +0.000 C 
BRANCH  29  31
ATOM     30  C   UNL     1       7.762   8.301  17.511  0.00  0.00    +0.000 C 
ATOM     31  C   UNL     1       7.319   6.850  17.392  0.00  0.00    +0.000 C 
ENDBRANCH  29  31
ENDBRANCH  18  29
ENDBRANCH  17  26
ENDBRANCH   1  17
TORSDOF 8
ENDMDL
MODEL 3
REMARK VINA RESULT:      -8.5      3.189      8.549
REMARK  Name = 
REMARK  9 active torsions:
REMARK  status: ('A' for Active; 'I' for Inactive)
REMARK    1  A    between atoms: C_1  and  C_2
REMARK    2  A    between atoms: C_2  and  C_3
REMARK    3  A    between atoms: C_3  and  C_4
REMARK    4  A    between atoms: C_7  and  O_8
REMARK    5  A    between atoms: N_13  and  C_14
REMARK    6  A    between atoms: C_14  and  C_15
REMARK    7  A    between atoms: C_18  and  C_19
REMARK    8  A    between atoms: C_24  and  C_25
REMARK    9  A    between atoms: C_25  and  O_27
REMARK                            x       y       z     vdW  Elec       q    Type
REMARK                         _______ _______ _______ _____ _____    ______ ____
ROOT
ATOM      1  C   UNL     1       1.481   9.201  19.113  0.00  0.00    +0.000 A 
ATOM      2  C   UNL     1       1.893   8.668  17.887  0.00  0.00    +0.000 A 
ATOM      3  C   UNL     1       2.329   7.340  17.784  0.00  0.00    +0.000 A 
ATOM      4  C   UNL     1       2.286   6.471  18.884  0.00  0.00    +0.000 A 
ATOM      5  C   UNL     1       1.877   7.019  20.113  0.00  0.00    +0.000 A 
ATOM      6  C   UNL     1       1.505   8.362  20.231  0.00  0.00    +0.000 A 
ENDROOT
BRANCH   4   7
ATOM      7  C   UNL     1       2.625   5.031  18.781  0.00  0.00    +0.000 A 
ATOM      8  C   UNL     1       1.562   4.095  18.741  0.00  0.00    +0.000 A 
ATOM      9  C   UNL     1       1.779   2.722  18.590  0.00  0.00    +0.000 A 
ATOM     10  C   UNL     1       3.074   2.234  18.505  0.00  0.00    +0.000 A 
ATOM     11  C   UNL     1       4.145   3.122  18.573  0.00  0.00    +0.000 A 
ATOM     12  C   UNL     1       3.939   4.511  18.697  0.00  0.00    +0.000 A 
BRANCH  12  13
ATOM     13  C   UNL     1       5.198   5.305  18.762  0.00  0.00    +0.000 C 
ATOM     14  O   UNL     1       5.911   5.302  19.753  0.00  0.00    +0.000 OA
BRANCH  13  15
ATOM     15  O   UNL     1       5.542   5.952  17.631  0.00  0.00    +0.000 OA
ATOM     16  H   UNL     1       5.136   6.830  17.505  0.00  0.00    +0.000 HD
ENDBRANCH  13  15
ENDBRANCH  12  13
ENDBRANCH   4   7
BRANCH   1  17
ATOM     17  C   UNL     1       1.116  10.659  19.243  0.00  0.00    +0.000 C 
BRANCH  17  26
ATOM     18  C   UNL     1      -0.918  11.634  20.426  0.00  0.00    +0.000 A 
ATOM     19  N   UNL     1      -2.163  11.942  20.112  0.00  0.00    +0.000 NA
ATOM     20  C   UNL     1      -2.380  11.405  18.870  0.00  0.00    +0.000 A 
ATOM     21  C   UNL     1      -3.536  11.463  18.073  0.00  0.00    +0.000 A 
ATOM     22  C   UNL     1      -3.549  10.847  16.828  0.00  0.00    +0.000 A 
ATOM     23  C   UNL     1      -2.420  10.157  16.385  0.00  0.00    +0.000 A 
ATOM     24  C   UNL     1      -1.250  10.086  17.160  0.00  0.00    +0.000 A 
ATOM     25  C   UNL     1      -1.255  10.733  18.403  0.00  0.00    +0.000 A 
ATOM     26  N   UNL     1      -0.310  10.925  19.397  0.00  0.00    +0.000 N 
BRANCH  21  27
ATOM     27  O   UNL     1      -4.655  12.136  18.504  0.00  0.00    +0.000 OA
ATOM     28  H   UNL     1      -4.304  12.978  18.860  0.00  0.00    +0.000 HD
ENDBRANCH  21  27
BRANCH  18  29
ATOM     29  C   UNL     1      -0.294  11.979  21.741  0.00  0.00    +0.000 C 
BRANCH  29  31
ATOM     30  C   UNL     1      -0.409   9.809  23.086  0.00  0.00    +0.000 C 
ATOM     31  C   UNL     1      -0.882  11.250  22.949  0.00  0.00    +0.000 C 
ENDBRANCH  29  31
ENDBRANCH  18  29
ENDBRANCH  17  26
ENDBRANCH   1  17
TORSDOF 8
ENDMDL
MODEL 4
REMARK VINA RESULT:      -8.5      3.111      8.477
REMARK  Name = 
REMARK  9 active torsions:
REMARK  status: ('A' for Active; 'I' for Inactive)
REMARK    1  A    between atoms: C_1  and  C_2
REMARK    2  A    between atoms: C_2  and  C_3
REMARK    3  A    between atoms: C_3  and  C_4
REMARK    4  A    between atoms: C_7  and  O_8
REMARK    5  A    between atoms: N_13  and  C_14
REMARK    6  A    between atoms: C_14  and  C_15
REMARK    7  A    between atoms: C_18  and  C_19
REMARK    8  A    between atoms: C_24  and  C_25
REMARK    9  A    between atoms: C_25  and  O_27
REMARK                            x       y       z     vdW  Elec       q    Type
REMARK                         _______ _______ _______ _____ _____    ______ ____
ROOT
ATOM      1  C   UNL     1       1.180   9.154  19.710  0.00  0.00    +0.000 A 
ATOM      2  C   UNL     1       1.632   8.014  20.383  0.00  0.00    +0.000 A 
ATOM      3  C   UNL     1       2.361   7.020  19.715  0.00  0.00    +0.000 A 
ATOM      4  C   UNL     1       2.737   7.170  18.373  0.00  0.00    +0.000 A 
ATOM      5  C   UNL     1       2.271   8.316  17.705  0.00  0.00    +0.000 A 
ATOM      6  C   UNL     1       1.489   9.277  18.353  0.00  0.00    +0.000 A 
ENDROOT
BRANCH   4   7
ATOM      7  C   UNL     1       3.608   6.196  17.672  0.00  0.00    +0.000 A 
ATOM      8  C   UNL     1       4.832   6.661  17.130  0.00  0.00    +0.000 A 
ATOM      9  C   UNL     1       5.744   5.808  16.500  0.00  0.00    +0.000 A 
ATOM     10  C   UNL     1       5.447   4.461  16.364  0.00  0.00    +0.000 A 
ATOM     11  C   UNL     1       4.239   3.974  16.857  0.00  0.00    +0.000 A 
ATOM     12  C   UNL     1       3.323   4.818  17.518  0.00  0.00    +0.000 A 
BRANCH  12  13
ATOM     13  C   UNL     1       2.084   4.126  17.970  0.00  0.00    +0.000 C 
ATOM     14  O   UNL     1       1.075   4.097  17.283  0.00  0.00    +0.000 OA
BRANCH  13  15
ATOM     15  O   UNL     1       2.175   3.465  19.141  0.00  0.00    +0.000 OA
ATOM     16  H   UNL     1       3.025   3.550  19.612  0.00  0.00    +0.000 HD
ENDBRANCH  13  15
ENDBRANCH  12  13
ENDBRANCH   4   7
BRANCH   1  17
ATOM     17  C   UNL     1       0.305  10.169  20.403  0.00  0.00    +0.000 C 
BRANCH  17  26
ATOM     18  C   UNL     1      -1.134  11.578  18.843  0.00  0.00    +0.000 A 
ATOM     19  N   UNL     1      -1.236  12.851  18.508  0.00  0.00    +0.000 NA
ATOM     20  C   UNL     1      -0.138  13.469  19.049  0.00  0.00    +0.000 A 
ATOM     21  C   UNL     1       0.222  14.827  19.002  0.00  0.00    +0.000 A 
ATOM     22  C   UNL     1       1.388  15.254  19.624  0.00  0.00    +0.000 A 
ATOM     23  C   UNL     1       2.206  14.328  20.273  0.00  0.00    +0.000 A 
ATOM     24  C   UNL     1       1.867  12.966  20.338  0.00  0.00    +0.000 A 
ATOM     25  C   UNL     1       0.675  12.564  19.721  0.00  0.00    +0.000 A 
ATOM     26  N   UNL     1       0.000  11.359  19.615  0.00  0.00    +0.000 N 
BRANCH  21  27
ATOM     27  O   UNL     1      -0.575  15.745  18.359  0.00  0.00    +0.000 OA
ATOM     28  H   UNL     1      -0.780  16.408  19.051  0.00  0.00    +0.000 HD
ENDBRANCH  21  27
BRANCH  18  29
ATOM     29  C   UNL     1      -2.105  10.532  18.395  0.00  0.00    +0.000 C 
BRANCH  29  31
ATOM     30  C   UNL     1      -3.000   9.901  16.086  0.00  0.00    +0.000 C 
ATOM     31  C   UNL     1      -1.806   9.910  17.031  0.00  0.00    +0.000 C 
ENDBRANCH  29  31
ENDBRANCH  18  29
ENDBRANCH  17  26
ENDBRANCH   1  17
TORSDOF 8
ENDMDL
MODEL 5
REMARK VINA RESULT:      -8.5      1.551      2.263
REMARK  Name = 
REMARK  9 active torsions:
REMARK  status: ('A' for Active; 'I' for Inactive)
REMARK    1  A    between atoms: C_1  and  C_2
REMARK    2  A    between atoms: C_2  and  C_3
REMARK    3  A    between atoms: C_3  and  C_4
REMARK    4  A    between atoms: C_7  and  O_8
REMARK    5  A    between atoms: N_13  and  C_14
REMARK    6  A    between atoms: C_14  and  C_15
REMARK    7  A    between atoms: C_18  and  C_19
REMARK    8  A    between atoms: C_24  and  C_25
REMARK    9  A    between atoms: C_25  and  O_27
REMARK                            x       y       z     vdW  Elec       q    Type
REMARK                         _______ _______ _______ _____ _____    ______ ____
ROOT
ATOM      1  C   UNL     1       2.410   6.988  19.711  0.00  0.00    +0.000 A 
ATOM      2  C   UNL     1       2.550   7.565  18.444  0.00  0.00    +0.000 A 
ATOM      3  C   UNL     1       1.937   8.786  18.133  0.00  0.00    +0.000 A 
ATOM      4  C   UNL     1       1.234   9.517  19.101  0.00  0.00    +0.000 A 
ATOM      5  C   UNL     1       1.095   8.925  20.368  0.00  0.00    +0.000 A 
ATOM      6  C   UNL     1       1.650   7.676  20.662  0.00  0.00    +0.000 A 
ENDROOT
BRANCH   4   7
ATOM      7  C   UNL     1       0.678  10.866  18.838  0.00  0.00    +0.000 A 
ATOM      8  C   UNL     1       1.461  11.994  19.189  0.00  0.00    +0.000 A 
ATOM      9  C   UNL     1       1.045  13.304  18.932  0.00  0.00    +0.000 A 
ATOM     10  C   UNL     1      -0.187  13.532  18.338  0.00  0.00    +0.000 A 
ATOM     11  C   UNL     1      -0.997  12.449  18.008  0.00  0.00    +0.000 A 
ATOM     12  C   UNL     1      -0.579  11.122  18.238  0.00  0.00    +0.000 A 
BRANCH  12  13
ATOM     13  C   UNL     1      -1.577  10.095  17.828  0.00  0.00    +0.000 C 
ATOM     14  O   UNL     1      -2.429   9.682  18.600  0.00  0.00    +0.000 OA
BRANCH  13  15
ATOM     15  O   UNL     1      -1.534   9.717  16.536  0.00  0.00    +0.000 OA
ATOM     16  H   UNL     1      -2.080  10.242  15.922  0.00  0.00    +0.000 HD
ENDBRANCH  13  15
ENDBRANCH  12  13
ENDBRANCH   4   7
BRANCH   1  17
ATOM     17  C   UNL     1       2.980   5.624  20.011  0.00  0.00    +0.000 C 
BRANCH  17  26
ATOM     18  C   UNL     1       2.939   4.367  17.796  0.00  0.00    +0.000 A 
ATOM     19  N   UNL     1       3.781   4.114  16.812  0.00  0.00    +0.000 NA
ATOM     20  C   UNL     1       5.012   4.516  17.261  0.00  0.00    +0.000 A 
ATOM     21  C   UNL     1       6.249   4.484  16.594  0.00  0.00    +0.000 A 
ATOM     22  C   UNL     1       7.391   4.946  17.234  0.00  0.00    +0.000 A 
ATOM     23  C   UNL     1       7.308   5.421  18.543  0.00  0.00    +0.000 A 
ATOM     24  C   UNL     1       6.084   5.467  19.232  0.00  0.00    +0.000 A 
ATOM     25  C   UNL     1       4.942   5.014  18.557  0.00  0.00    +0.000 A 
ATOM     26  N   UNL     1       3.595   4.950  18.872  0.00  0.00    +0.000 N 
BRANCH  21  27
ATOM     27  O   UNL     1       6.342   4.013  15.305  0.00  0.00    +0.000 OA
ATOM     28  H   UNL     1       7.269   4.198  15.050  0.00  0.00    +0.000 HD
ENDBRANCH  21  27
BRANCH  18  29
ATOM     29  C   UNL     1       1.485   4.016  17.742  0.00  0.00    +0.000 C 
BRANCH  29  31
ATOM     30  C   UNL     1       0.702   2.998  19.951  0.00  0.00    +0.000 C 
ATOM     31  C   UNL     1       1.094   2.748  18.501  0.00  0.00    +0.000 C 
ENDBRANCH  29  31
ENDBRANCH  18  29
ENDBRANCH  17  26
ENDBRANCH   1  17
TORSDOF 8
ENDMDL
MODEL 6
REMARK VINA RESULT:      -8.4      2.057      3.970
REMARK  Name = 
REMARK  9 active torsions:
REMARK  status: ('A' for Active; 'I' for Inactive)
REMARK    1  A    between atoms: C_1  and  C_2
REMARK    2  A    between atoms: C_2  and  C_3
REMARK    3  A    between atoms: C_3  and  C_4
REMARK    4  A    between atoms: C_7  and  O_8
REMARK    5  A    between atoms: N_13  and  C_14
REMARK    6  A    between atoms: C_14  and  C_15
REMARK    7  A    between atoms: C_18  and  C_19
REMARK    8  A    between atoms: C_24  and  C_25
REMARK    9  A    between atoms: C_25  and  O_27
REMARK                            x       y       z     vdW  Elec       q    Type
REMARK                         _______ _______ _______ _____ _____    ______ ____
ROOT
ATOM      1  C   UNL     1       2.866   7.420  18.167  0.00  0.00    +0.000 A 
ATOM      2  C   UNL     1       2.244   8.608  17.766  0.00  0.00    +0.000 A 
ATOM      3  C   UNL     1       1.409   9.318  18.640  0.00  0.00    +0.000 A 
ATOM      4  C   UNL     1       1.235   8.914  19.971  0.00  0.00    +0.000 A 
ATOM      5  C   UNL     1       1.860   7.717  20.361  0.00  0.00    +0.000 A 
ATOM      6  C   UNL     1       2.640   6.972  19.471  0.00  0.00    +0.000 A 
ENDROOT
BRANCH   4   7
ATOM      7  C   UNL     1       0.457   9.708  20.953  0.00  0.00    +0.000 A 
ATOM      8  C   UNL     1      -0.058   9.044  22.094  0.00  0.00    +0.000 A 
ATOM      9  C   UNL     1      -0.757   9.717  23.101  0.00  0.00    +0.000 A 
ATOM     10  C   UNL     1      -0.991  11.078  22.985  0.00  0.00    +0.000 A 
ATOM     11  C   UNL     1      -0.527  11.758  21.862  0.00  0.00    +0.000 A 
ATOM     12  C   UNL     1       0.202  11.097  20.853  0.00  0.00    +0.000 A 
BRANCH  12  13
ATOM     13  C   UNL     1       0.611  11.981  19.726  0.00  0.00    +0.000 C 
ATOM     14  O   UNL     1      -0.159  12.270  18.822  0.00  0.00    +0.000 OA
BRANCH  13  15
ATOM     15  O   UNL     1       1.847  12.508  19.812  0.00  0.00    +0.000 OA
ATOM     16  H   UNL     1       2.022  13.055  20.600  0.00  0.00    +0.000 HD
ENDBRANCH  13  15
ENDBRANCH  12  13
ENDBRANCH   4   7
BRANCH   1  17
ATOM     17  C   UNL     1       3.677   6.601  17.193  0.00  0.00    +0.000 C 
BRANCH  17  26
ATOM     18  C   UNL     1       5.547   5.328  18.363  0.00  0.00    +0.000 A 
ATOM     19  N   UNL     1       5.677   4.192  19.024  0.00  0.00    +0.000 NA
ATOM     20  C   UNL     1       4.505   3.509  18.828  0.00  0.00    +0.000 A 
ATOM     21  C   UNL     1       4.121   2.254  19.332  0.00  0.00    +0.000 A 
ATOM     22  C   UNL     1       2.873   1.735  19.013  0.00  0.00    +0.000 A 
ATOM     23  C   UNL     1       2.017   2.453  18.177  0.00  0.00    +0.000 A 
ATOM     24  C   UNL     1       2.375   3.711  17.663  0.00  0.00    +0.000 A 
ATOM     25  C   UNL     1       3.630   4.223  18.017  0.00  0.00    +0.000 A 
ATOM     26  N   UNL     1       4.298   5.408  17.760  0.00  0.00    +0.000 N 
BRANCH  21  27
ATOM     27  O   UNL     1       4.961   1.537  20.151  0.00  0.00    +0.000 OA
ATOM     28  H   UNL     1       4.380   1.233  20.879  0.00  0.00    +0.000 HD
ENDBRANCH  21  27
BRANCH  18  29
ATOM     29  C   UNL     1       6.636   6.348  18.263  0.00  0.00    +0.000 C 
BRANCH  29  31
ATOM     30  C   UNL     1       7.190   5.241  16.028  0.00  0.00    +0.000 C 
ATOM     31  C   UNL     1       7.252   6.506  16.873  0.00  0.00    +0.000 C 
ENDBRANCH  29  31
ENDBRANCH  18  29
ENDBRANCH  17  26
ENDBRANCH   1  17
TORSDOF 8
ENDMDL
MODEL 7
REMARK VINA RESULT:      -8.3      2.314      4.086
REMARK  Name = 
REMARK  9 active torsions:
REMARK  status: ('A' for Active; 'I' for Inactive)
REMARK    1  A    between atoms: C_1  and  C_2
REMARK    2  A    between atoms: C_2  and  C_3
REMARK    3  A    between atoms: C_3  and  C_4
REMARK    4  A    between atoms: C_7  and  O_8
REMARK    5  A    between atoms: N_13  and  C_14
REMARK    6  A    between atoms: C_14  and  C_15
REMARK    7  A    between atoms: C_18  and  C_19
REMARK    8  A    between atoms: C_24  and  C_25
REMARK    9  A    between atoms: C_25  and  O_27
REMARK                            x       y       z     vdW  Elec       q    Type
REMARK                         _______ _______ _______ _____ _____    ______ ____
ROOT
ATOM      1  C   UNL     1       2.976   7.269  18.208  0.00  0.00    +0.000 A 
ATOM      2  C   UNL     1       2.609   6.737  19.449  0.00  0.00    +0.000 A 
ATOM      3  C   UNL     1       1.847   7.482  20.359  0.00  0.00    +0.000 A 
ATOM      4  C   UNL     1       1.351   8.751  20.028  0.00  0.00    +0.000 A 
ATOM      5  C   UNL     1       1.731   9.278  18.782  0.00  0.00    +0.000 A 
ATOM      6  C   UNL     1       2.546   8.563  17.899  0.00  0.00    +0.000 A 
ENDROOT
BRANCH   4   7
ATOM      7  C   UNL     1       0.443   9.513  20.920  0.00  0.00    +0.000 A 
ATOM      8  C   UNL     1       0.449   9.205  22.303  0.00  0.00    +0.000 A 
ATOM      9  C   UNL     1      -0.331   9.904  23.229  0.00  0.00    +0.000 A 
ATOM     10  C   UNL     1      -1.169  10.920  22.796  0.00  0.00    +0.000 A 
ATOM     11  C   UNL     1      -1.225  11.230  21.440  0.00  0.00    +0.000 A 
ATOM     12  C   UNL     1      -0.423  10.550  20.499  0.00  0.00    +0.000 A 
BRANCH  12  13
ATOM     13  C   UNL     1      -0.620  11.009  19.096  0.00  0.00    +0.000 C 
ATOM     14  O   UNL     1      -0.026  11.977  18.645  0.00  0.00    +0.000 OA
BRANCH  13  15
ATOM     15  O   UNL     1      -1.424  10.242  18.335  0.00  0.00    +0.000 OA
ATOM     16  H   UNL     1      -2.334  10.571  18.213  0.00  0.00    +0.000 HD
ENDBRANCH  13  15
ENDBRANCH  12  13
ENDBRANCH   4   7
BRANCH   1  17
ATOM     17  C   UNL     1       3.886   6.510  17.274  0.00  0.00    +0.000 C 
BRANCH  17  26
ATOM     18  C   UNL     1       5.654   5.258  18.613  0.00  0.00    +0.000 A 
ATOM     19  N   UNL     1       5.764   4.087  19.214  0.00  0.00    +0.000 NA
ATOM     20  C   UNL     1       4.673   3.359  18.815  0.00  0.00    +0.000 A 
ATOM     21  C   UNL     1       4.301   2.054  19.181  0.00  0.00    +0.000 A 
ATOM     22  C   UNL     1       3.143   1.494  18.660  0.00  0.00    +0.000 A 
ATOM     23  C   UNL     1       2.365   2.223  17.759  0.00  0.00    +0.000 A 
ATOM     24  C   UNL     1       2.712   3.530  17.379  0.00  0.00    +0.000 A 
ATOM     25  C   UNL     1       3.874   4.081  17.935  0.00  0.00    +0.000 A 
ATOM     26  N   UNL     1       4.497   5.315  17.847  0.00  0.00    +0.000 N 
BRANCH  21  27
ATOM     27  O   UNL     1       5.065   1.326  20.063  0.00  0.00    +0.000 OA
ATOM     28  H   UNL     1       5.219   1.942  20.809  0.00  0.00    +0.000 HD
ENDBRANCH  21  27
BRANCH  18  29
ATOM     29  C   UNL     1       6.683   6.338  18.728  0.00  0.00    +0.000 C 
BRANCH  29  31
ATOM     30  C   UNL     1       7.904   8.207  17.485  0.00  0.00    +0.000 C 
ATOM     31  C   UNL     1       7.259   6.830  17.401  0.00  0.00    +0.000 C 
ENDBRANCH  29  31
ENDBRANCH  18  29
ENDBRANCH  17  26
ENDBRANCH   1  17
TORSDOF 8
ENDMDL
MODEL 8
REMARK VINA RESULT:      -8.3      0.133      1.075
REMARK  Name = 
REMARK  9 active torsions:
REMARK  status: ('A' for Active; 'I' for Inactive)
REMARK    1  A    between atoms: C_1  and  C_2
REMARK    2  A    between atoms: C_2  and  C_3
REMARK    3  A    between atoms: C_3  and  C_4
REMARK    4  A    between atoms: C_7  and  O_8
REMARK    5  A    between atoms: N_13  and  C_14
REMARK    6  A    between atoms: C_14  and  C_15
REMARK    7  A    between atoms: C_18  and  C_19
REMARK    8  A    between atoms: C_24  and  C_25
REMARK    9  A    between atoms: C_25  and  O_27
REMARK                            x       y       z     vdW  Elec       q    Type
REMARK                         _______ _______ _______ _____ _____    ______ ____
ROOT
ATOM      1  C   UNL     1       2.649   6.941  19.515  0.00  0.00    +0.000 A 
ATOM      2  C   UNL     1       2.697   7.553  18.258  0.00  0.00    +0.000 A 
ATOM      3  C   UNL     1       1.809   8.584  17.920  0.00  0.00    +0.000 A 
ATOM      4  C   UNL     1       0.901   9.099  18.855  0.00  0.00    +0.000 A 
ATOM      5  C   UNL     1       0.857   8.472  20.113  0.00  0.00    +0.000 A 
ATOM      6  C   UNL     1       1.697   7.400  20.430  0.00  0.00    +0.000 A 
ENDROOT
BRANCH   4   7
ATOM      7  C   UNL     1       0.034  10.268  18.569  0.00  0.00    +0.000 A 
ATOM      8  C   UNL     1      -1.108  10.070  17.753  0.00  0.00    +0.000 A 
ATOM      9  C   UNL     1      -2.014  11.098  17.472  0.00  0.00    +0.000 A 
ATOM     10  C   UNL     1      -1.791  12.369  17.976  0.00  0.00    +0.000 A 
ATOM     11  C   UNL     1      -0.663  12.608  18.756  0.00  0.00    +0.000 A 
ATOM     12  C   UNL     1       0.244  11.575  19.069  0.00  0.00    +0.000 A 
BRANCH  12  13
ATOM     13  C   UNL     1       1.394  12.015  19.908  0.00  0.00    +0.000 C 
ATOM     14  O   UNL     1       1.441  11.788  21.107  0.00  0.00    +0.000 OA
BRANCH  13  15
ATOM     15  O   UNL     1       2.411  12.601  19.247  0.00  0.00    +0.000 OA
ATOM     16  H   UNL     1       3.237  12.715  19.754  0.00  0.00    +0.000 HD
ENDBRANCH  13  15
ENDBRANCH  12  13
ENDBRANCH   4   7
BRANCH   1  17
ATOM     17  C   UNL     1       3.531   5.760  19.839  0.00  0.00    +0.000 C 
BRANCH  17  26
ATOM     18  C   UNL     1       3.066   4.337  17.778  0.00  0.00    +0.000 A 
ATOM     19  N   UNL     1       3.731   3.936  16.710  0.00  0.00    +0.000 NA
ATOM     20  C   UNL     1       5.041   4.268  16.939  0.00  0.00    +0.000 A 
ATOM     21  C   UNL     1       6.157   4.079  16.106  0.00  0.00    +0.000 A 
ATOM     22  C   UNL     1       7.413   4.494  16.529  0.00  0.00    +0.000 A 
ATOM     23  C   UNL     1       7.562   5.077  17.788  0.00  0.00    +0.000 A 
ATOM     24  C   UNL     1       6.463   5.281  18.639  0.00  0.00    +0.000 A 
ATOM     25  C   UNL     1       5.203   4.873  18.180  0.00  0.00    +0.000 A 
ATOM     26  N   UNL     1       3.918   4.948  18.690  0.00  0.00    +0.000 N 
BRANCH  21  27
ATOM     27  O   UNL     1       6.021   3.500  14.866  0.00  0.00    +0.000 OA
ATOM     28  H   UNL     1       6.932   3.486  14.508  0.00  0.00    +0.000 HD
ENDBRANCH  21  27
BRANCH  18  29
ATOM     29  C   UNL     1       1.600   4.107  17.966  0.00  0.00    +0.000 C 
BRANCH  29  31
ATOM     30  C   UNL     1       0.806   3.426  20.297  0.00  0.00    +0.000 C 
ATOM     31  C   UNL     1       1.239   2.963  18.913  0.00  0.00    +0.000 C 
ENDBRANCH  29  31
ENDBRANCH  18  29
ENDBRANCH  17  26
ENDBRANCH   1  17
TORSDOF 8
ENDMDL
MODEL 9
REMARK VINA RESULT:      -8.3      3.317      8.682
REMARK  Name = 
REMARK  9 active torsions:
REMARK  status: ('A' for Active; 'I' for Inactive)
REMARK    1  A    between atoms: C_1  and  C_2
REMARK    2  A    between atoms: C_2  and  C_3
REMARK    3  A    between atoms: C_3  and  C_4
REMARK    4  A    between atoms: C_7  and  O_8
REMARK    5  A    between atoms: N_13  and  C_14
REMARK    6  A    between atoms: C_14  and  C_15
REMARK    7  A    between atoms: C_18  and  C_19
REMARK    8  A    between atoms: C_24  and  C_25
REMARK    9  A    between atoms: C_25  and  O_27
REMARK                            x       y       z     vdW  Elec       q    Type
REMARK                         _______ _______ _______ _____ _____    ______ ____
ROOT
ATOM      1  C   UNL     1       1.289   9.307  19.238  0.00  0.00    +0.000 A 
ATOM      2  C   UNL     1       1.858   8.515  18.234  0.00  0.00    +0.000 A 
ATOM      3  C   UNL     1       2.278   7.204  18.497  0.00  0.00    +0.000 A 
ATOM      4  C   UNL     1       2.065   6.607  19.748  0.00  0.00    +0.000 A 
ATOM      5  C   UNL     1       1.499   7.414  20.751  0.00  0.00    +0.000 A 
ATOM      6  C   UNL     1       1.140   8.744  20.509  0.00  0.00    +0.000 A 
ENDROOT
BRANCH   4   7
ATOM      7  C   UNL     1       2.387   5.186  20.022  0.00  0.00    +0.000 A 
ATOM      8  C   UNL     1       1.443   4.413  20.744  0.00  0.00    +0.000 A 
ATOM      9  C   UNL     1       1.632   3.052  21.004  0.00  0.00    +0.000 A 
ATOM     10  C   UNL     1       2.790   2.423  20.575  0.00  0.00    +0.000 A 
ATOM     11  C   UNL     1       3.754   3.158  19.890  0.00  0.00    +0.000 A 
ATOM     12  C   UNL     1       3.564   4.524  19.598  0.00  0.00    +0.000 A 
BRANCH  12  13
ATOM     13  C   UNL     1       4.702   5.149  18.866  0.00  0.00    +0.000 C 
ATOM     14  O   UNL     1       4.684   5.296  17.654  0.00  0.00    +0.000 OA
BRANCH  13  15
ATOM     15  O   UNL     1       5.707   5.616  19.633  0.00  0.00    +0.000 OA
ATOM     16  H   UNL     1       5.760   5.247  20.534  0.00  0.00    +0.000 HD
ENDBRANCH  13  15
ENDBRANCH  12  13
ENDBRANCH   4   7
BRANCH   1  17
ATOM     17  C   UNL     1       0.938  10.752  18.982  0.00  0.00    +0.000 C 
BRANCH  17  26
ATOM     18  C   UNL     1      -1.062  11.934  20.025  0.00  0.00    +0.000 A 
ATOM     19  N   UNL     1      -2.302  12.225  19.679  0.00  0.00    +0.000 NA
ATOM     20  C   UNL     1      -2.542  11.522  18.527  0.00  0.00    +0.000 A 
ATOM     21  C   UNL     1      -3.704  11.494  17.736  0.00  0.00    +0.000 A 
ATOM     22  C   UNL     1      -3.743  10.708  16.592  0.00  0.00    +0.000 A 
ATOM     23  C   UNL     1      -2.634   9.934  16.245  0.00  0.00    +0.000 A 
ATOM     24  C   UNL     1      -1.459   9.947  17.016  0.00  0.00    +0.000 A 
ATOM     25  C   UNL     1      -1.438  10.764  18.154  0.00  0.00    +0.000 A 
ATOM     26  N   UNL     1      -0.480  11.072  19.105  0.00  0.00    +0.000 N 
BRANCH  21  27
ATOM     27  O   UNL     1      -4.804  12.248  18.073  0.00  0.00    +0.000 OA
ATOM     28  H   UNL     1      -4.788  12.267  19.052  0.00  0.00    +0.000 HD
ENDBRANCH  21  27
BRANCH  18  29
ATOM     29  C   UNL     1      -0.418  12.447  21.274  0.00  0.00    +0.000 C 
BRANCH  29  31
ATOM     30  C   UNL     1      -1.991  11.810  23.185  0.00  0.00    +0.000 C 
ATOM     31  C   UNL     1      -0.640  11.589  22.519  0.00  0.00    +0.000 C 
ENDBRANCH  29  31
ENDBRANCH  18  29
ENDBRANCH  17  26
ENDBRANCH   1  17
TORSDOF 8
ENDMDL
