MODEL 1
REMARK VINA RESULT:      -8.8      0.000      0.000
REMARK  Name = 
REMARK  8 active torsions:
REMARK  status: ('A' for Active; 'I' for Inactive)
REMARK    1  A    between atoms: C_1  and  C_2
REMARK    2  A    between atoms: C_8  and  N_9
REMARK    3  A    between atoms: C_10  and  C_12
REMARK    4  A    between atoms: C_12  and  O_13
REMARK    5  A    between atoms: O_13  and  C_14
REMARK    6  A    between atoms: C_14  and  C_16
REMARK    7  A    between atoms: N_28  and  C_29
REMARK    8  A    between atoms: C_29  and  C_30
REMARK                            x       y       z     vdW  Elec       q    Type
REMARK                         _______ _______ _______ _____ _____    ______ ____
ROOT
ATOM      1  C   UNL     1       0.923  10.161  19.661  0.00  0.00    +0.000 A 
ATOM      2  C   UNL     1       1.605   8.945  19.397  0.00  0.00    +0.000 A 
ATOM      3  C   UNL     1       1.528   7.964  20.379  0.00  0.00    +0.000 A 
ATOM      4  N   UNL     1       0.859   8.131  21.542  0.00  0.00    +0.000 NA
ATOM      5  C   UNL     1       0.219   9.278  21.782  0.00  0.00    +0.000 A 
ATOM      6  C   UNL     1      -0.447   9.392  22.997  0.00  0.00    +0.000 A 
ATOM      7  C   UNL     1      -1.140  10.548  23.357  0.00  0.00    +0.000 A 
ATOM      8  C   UNL     1      -1.171  11.621  22.482  0.00  0.00    +0.000 A 
ATOM      9  C   UNL     1      -0.505  11.532  21.258  0.00  0.00    +0.000 A 
ATOM     10  C   UNL     1       0.202  10.359  20.879  0.00  0.00    +0.000 A 
ATOM     11  C   UNL     1       2.249   6.652  20.224  0.00  0.00    +0.000 C 
ATOM     12  C   UNL     1       2.579   6.331  18.768  0.00  0.00    +0.000 C 
ATOM     13  N   UNL     1       3.241   7.485  18.152  0.00  0.00    +0.000 NA
ATOM     14  C   UNL     1       2.311   8.629  18.095  0.00  0.00    +0.000 C 
ENDROOT
BRANCH   1  15
ATOM     15  C   UNL     1       0.950  11.269  18.664  0.00  0.00    +0.000 C 
ATOM     16  O   UNL     1       1.786  12.149  18.590  0.00  0.00    +0.000 OA
BRANCH  15  17
ATOM     17  O   UNL     1      -0.088  11.081  17.827  0.00  0.00    +0.000 OA
BRANCH  17  18
ATOM     18  C   UNL     1      -1.131  12.058  17.817  0.00  0.00    +0.000 C 
BRANCH  18  20
ATOM     19  N   UNL     1      -3.484  12.253  18.437  0.00  0.00    +0.000 N 
ATOM     20  C   UNL     1      -2.449  11.373  18.150  0.00  0.00    +0.000 C 
ATOM     21  O   UNL     1      -2.523  10.142  18.128  0.00  0.00    +0.000 OA
ATOM     22  H   UNL     1      -3.297  13.226  18.206  0.00  0.00    +0.000 HD
BRANCH  19  30
ATOM     23  C   UNL     1      -4.251  13.078  21.137  0.00  0.00    +0.000 C 
ATOM     24  C   UNL     1      -5.179  12.311  20.226  0.00  0.00    +0.000 A 
ATOM     25  C   UNL     1      -6.481  11.955  20.650  0.00  0.00    +0.000 A 
ATOM     26 CL   UNL     1      -7.107  12.375  22.210  0.00  0.00    +0.000 Cl
ATOM     27  C   UNL     1      -7.345  11.240  19.818  0.00  0.00    +0.000 A 
ATOM     28  C   UNL     1      -6.927  10.848  18.556  0.00  0.00    +0.000 A 
ATOM     29  C   UNL     1      -5.652  11.183  18.118  0.00  0.00    +0.000 A 
ATOM     30  C   UNL     1      -4.773  11.925  18.923  0.00  0.00    +0.000 A 
ENDBRANCH  19  30
ENDBRANCH  18  20
ENDBRANCH  17  18
ENDBRANCH  15  17
ENDBRANCH   1  15
BRANCH  13  31
ATOM     31  C   UNL     1       3.761   7.146  16.808  0.00  0.00    +0.000 C 
BRANCH  31  32
ATOM     32  C   UNL     1       4.964   6.220  16.857  0.00  0.00    +0.000 A 
ATOM     33  C   UNL     1       6.171   6.647  17.433  0.00  0.00    +0.000 A 
ATOM     34  C   UNL     1       7.317   5.857  17.342  0.00  0.00    +0.000 A 
ATOM     35  C   UNL     1       7.265   4.621  16.702  0.00  0.00    +0.000 A 
ATOM     36  C   UNL     1       6.059   4.160  16.176  0.00  0.00    +0.000 A 
ATOM     37  C   UNL     1       4.913   4.954  16.254  0.00  0.00    +0.000 A 
ENDBRANCH  31  32
ENDBRANCH  13  31
TORSDOF 7
ENDMDL
MODEL 2
REMARK VINA RESULT:      -7.9      3.661      9.907
REMARK  Name = 
REMARK  8 active torsions:
REMARK  status: ('A' for Active; 'I' for Inactive)
REMARK    1  A    between atoms: C_1  and  C_2
REMARK    2  A    between atoms: C_8  and  N_9
REMARK    3  A    between atoms: C_10  and  C_12
REMARK    4  A    between atoms: C_12  and  O_13
REMARK    5  A    between atoms: O_13  and  C_14
REMARK    6  A    between atoms: C_14  and  C_16
REMARK    7  A    between atoms: N_28  and  C_29
REMARK    8  A    between atoms: C_29  and  C_30
REMARK                            x       y       z     vdW  Elec       q    Type
REMARK                         _______ _______ _______ _____ _____    ______ ____
ROOT
ATOM      1  C   UNL     1      -1.627  11.551  18.930  0.00  0.00    +0.000 A 
ATOM      2  C   UNL     1      -2.190  12.163  20.079  0.00  0.00    +0.000 A 
ATOM      3  C   UNL     1      -3.557  12.416  20.042  0.00  0.00    +0.000 A 
ATOM      4  N   UNL     1      -4.335  12.122  18.976  0.00  0.00    +0.000 NA
ATOM      5  C   UNL     1      -3.797  11.545  17.898  0.00  0.00    +0.000 A 
ATOM      6  C   UNL     1      -4.647  11.271  16.833  0.00  0.00    +0.000 A 
ATOM      7  C   UNL     1      -4.192  10.680  15.655  0.00  0.00    +0.000 A 
ATOM      8  C   UNL     1      -2.851  10.353  15.533  0.00  0.00    +0.000 A 
ATOM      9  C   UNL     1      -1.977  10.624  16.587  0.00  0.00    +0.000 A 
ATOM     10  C   UNL     1      -2.429  11.223  17.794  0.00  0.00    +0.000 A 
ATOM     11  C   UNL     1      -4.251  13.101  21.188  0.00  0.00    +0.000 C 
ATOM     12  C   UNL     1      -3.474  12.989  22.497  0.00  0.00    +0.000 C 
ATOM     13  N   UNL     1      -2.083  13.397  22.276  0.00  0.00    +0.000 NA
ATOM     14  C   UNL     1      -1.423  12.455  21.352  0.00  0.00    +0.000 C 
ENDROOT
BRANCH   1  15
ATOM     15  C   UNL     1      -0.169  11.242  18.883  0.00  0.00    +0.000 C 
ATOM     16  O   UNL     1       0.725  12.029  18.637  0.00  0.00    +0.000 OA
BRANCH  15  17
ATOM     17  O   UNL     1      -0.024   9.946  19.217  0.00  0.00    +0.000 OA
BRANCH  17  18
ATOM     18  C   UNL     1       1.266   9.499  19.641  0.00  0.00    +0.000 C 
BRANCH  18  20
ATOM     19  N   UNL     1       2.353   7.414  18.982  0.00  0.00    +0.000 N 
ATOM     20  C   UNL     1       1.874   8.640  18.541  0.00  0.00    +0.000 C 
ATOM     21  O   UNL     1       1.890   9.054  17.379  0.00  0.00    +0.000 OA
ATOM     22  H   UNL     1       2.070   7.158  19.927  0.00  0.00    +0.000 HD
BRANCH  19  30
ATOM     23  C   UNL     1       1.719   4.569  19.233  0.00  0.00    +0.000 C 
ATOM     24  C   UNL     1       2.817   5.082  18.332  0.00  0.00    +0.000 A 
ATOM     25  C   UNL     1       3.597   4.191  17.559  0.00  0.00    +0.000 A 
ATOM     26 CL   UNL     1       3.350   2.476  17.571  0.00  0.00    +0.000 Cl
ATOM     27  C   UNL     1       4.618   4.654  16.727  0.00  0.00    +0.000 A 
ATOM     28  C   UNL     1       4.899   6.009  16.662  0.00  0.00    +0.000 A 
ATOM     29  C   UNL     1       4.148   6.905  17.414  0.00  0.00    +0.000 A 
ATOM     30  C   UNL     1       3.098   6.469  18.237  0.00  0.00    +0.000 A 
ENDBRANCH  19  30
ENDBRANCH  18  20
ENDBRANCH  17  18
ENDBRANCH  15  17
ENDBRANCH   1  15
BRANCH  13  31
ATOM     31  C   UNL     1      -1.348  13.502  23.556  0.00  0.00    +0.000 C 
BRANCH  31  32
ATOM     32  C   UNL     1      -1.262  14.927  24.074  0.00  0.00    +0.000 A 
ATOM     33  C   UNL     1      -0.459  15.876  23.421  0.00  0.00    +0.000 A 
ATOM     34  C   UNL     1      -0.260  17.139  23.980  0.00  0.00    +0.000 A 
ATOM     35  C   UNL     1      -0.881  17.478  25.179  0.00  0.00    +0.000 A 
ATOM     36  C   UNL     1      -1.727  16.565  25.808  0.00  0.00    +0.000 A 
ATOM     37  C   UNL     1      -1.918  15.296  25.258  0.00  0.00    +0.000 A 
ENDBRANCH  31  32
ENDBRANCH  13  31
TORSDOF 7
ENDMDL
MODEL 3
REMARK VINA RESULT:      -7.8      3.623     10.120
REMARK  Name = 
REMARK  8 active torsions:
REMARK  status: ('A' for Active; 'I' for Inactive)
REMARK    1  A    between atoms: C_1  and  C_2
REMARK    2  A    between atoms: C_8  and  N_9
REMARK    3  A    between atoms: C_10  and  C_12
REMARK    4  A    between atoms: C_12  and  O_13
REMARK    5  A    between atoms: O_13  and  C_14
REMARK    6  A    between atoms: C_14  and  C_16
REMARK    7  A    between atoms: N_28  and  C_29
REMARK    8  A    between atoms: C_29  and  C_30
REMARK                            x       y       z     vdW  Elec       q    Type
REMARK                         _______ _______ _______ _____ _____    ______ ____
ROOT
ATOM      1  C   UNL     1      -2.065  11.825  19.301  0.00  0.00    +0.000 A 
ATOM      2  C   UNL     1      -2.859  12.345  20.355  0.00  0.00    +0.000 A 
ATOM      3  C   UNL     1      -4.220  12.470  20.103  0.00  0.00    +0.000 A 
ATOM      4  N   UNL     1      -4.789  12.139  18.923  0.00  0.00    +0.000 NA
ATOM      5  C   UNL     1      -4.035  11.650  17.935  0.00  0.00    +0.000 A 
ATOM      6  C   UNL     1      -4.675  11.331  16.743  0.00  0.00    +0.000 A 
ATOM      7  C   UNL     1      -3.985  10.822  15.644  0.00  0.00    +0.000 A 
ATOM      8  C   UNL     1      -2.617  10.626  15.733  0.00  0.00    +0.000 A 
ATOM      9  C   UNL     1      -1.950  10.944  16.917  0.00  0.00    +0.000 A 
ATOM     10  C   UNL     1      -2.643  11.459  18.046  0.00  0.00    +0.000 A 
ATOM     11  C   UNL     1      -5.150  13.051  21.135  0.00  0.00    +0.000 C 
ATOM     12  C   UNL     1      -4.582  12.971  22.550  0.00  0.00    +0.000 C 
ATOM     13  N   UNL     1      -3.220  13.514  22.561  0.00  0.00    +0.000 NA
ATOM     14  C   UNL     1      -2.334  12.667  21.739  0.00  0.00    +0.000 C 
ENDROOT
BRANCH   1  15
ATOM     15  C   UNL     1      -0.595  11.654  19.482  0.00  0.00    +0.000 C 
ATOM     16  O   UNL     1       0.247  12.526  19.382  0.00  0.00    +0.000 OA
BRANCH  15  17
ATOM     17  O   UNL     1      -0.381  10.372  19.831  0.00  0.00    +0.000 OA
BRANCH  17  18
ATOM     18  C   UNL     1       0.957   9.969  20.132  0.00  0.00    +0.000 C 
BRANCH  18  20
ATOM     19  N   UNL     1       2.032   7.833  19.639  0.00  0.00    +0.000 N 
ATOM     20  C   UNL     1       1.408   8.948  19.096  0.00  0.00    +0.000 C 
ATOM     21  O   UNL     1       1.188   9.151  17.900  0.00  0.00    +0.000 OA
ATOM     22  H   UNL     1       1.942   7.739  20.649  0.00  0.00    +0.000 HD
BRANCH  19  30
ATOM     23  C   UNL     1       1.633   5.059  20.479  0.00  0.00    +0.000 C 
ATOM     24  C   UNL     1       2.515   5.438  19.313  0.00  0.00    +0.000 A 
ATOM     25  C   UNL     1       3.194   4.447  18.567  0.00  0.00    +0.000 A 
ATOM     26 CL   UNL     1       3.061   2.755  18.913  0.00  0.00    +0.000 Cl
ATOM     27  C   UNL     1       4.017   4.786  17.490  0.00  0.00    +0.000 A 
ATOM     28  C   UNL     1       4.196   6.117  17.146  0.00  0.00    +0.000 A 
ATOM     29  C   UNL     1       3.541   7.108  17.866  0.00  0.00    +0.000 A 
ATOM     30  C   UNL     1       2.687   6.794  18.934  0.00  0.00    +0.000 A 
ENDBRANCH  19  30
ENDBRANCH  18  20
ENDBRANCH  17  18
ENDBRANCH  15  17
ENDBRANCH   1  15
BRANCH  13  31
ATOM     31  C   UNL     1      -2.709  13.645  23.943  0.00  0.00    +0.000 C 
BRANCH  31  32
ATOM     32  C   UNL     1      -2.640  15.089  24.412  0.00  0.00    +0.000 A 
ATOM     33  C   UNL     1      -1.444  15.614  24.927  0.00  0.00    +0.000 A 
ATOM     34  C   UNL     1      -1.419  16.888  25.498  0.00  0.00    +0.000 A 
ATOM     35  C   UNL     1      -2.578  17.660  25.534  0.00  0.00    +0.000 A 
ATOM     36  C   UNL     1      -3.758  17.172  24.974  0.00  0.00    +0.000 A 
ATOM     37  C   UNL     1      -3.789  15.893  24.414  0.00  0.00    +0.000 A 
ENDBRANCH  31  32
ENDBRANCH  13  31
TORSDOF 7
ENDMDL
MODEL 4
REMARK VINA RESULT:      -7.7      4.668      7.071
REMARK  Name = 
REMARK  8 active torsions:
REMARK  status: ('A' for Active; 'I' for Inactive)
REMARK    1  A    between atoms: C_1  and  C_2
REMARK    2  A    between atoms: C_8  and  N_9
REMARK    3  A    between atoms: C_10  and  C_12
REMARK    4  A    between atoms: C_12  and  O_13
REMARK    5  A    between atoms: O_13  and  C_14
REMARK    6  A    between atoms: C_14  and  C_16
REMARK    7  A    between atoms: N_28  and  C_29
REMARK    8  A    between atoms: C_29  and  C_30
REMARK                            x       y       z     vdW  Elec       q    Type
REMARK                         _______ _______ _______ _____ _____    ______ ____
ROOT
ATOM      1  C   UNL     1       0.898  10.309  19.683  0.00  0.00    +0.000 A 
ATOM      2  C   UNL     1       1.565   9.088  19.406  0.00  0.00    +0.000 A 
ATOM      3  C   UNL     1       1.452   8.087  20.364  0.00  0.00    +0.000 A 
ATOM      4  N   UNL     1       0.763   8.239  21.517  0.00  0.00    +0.000 NA
ATOM      5  C   UNL     1       0.137   9.391  21.770  0.00  0.00    +0.000 A 
ATOM      6  C   UNL     1      -0.551   9.491  22.973  0.00  0.00    +0.000 A 
ATOM      7  C   UNL     1      -1.232  10.649  23.345  0.00  0.00    +0.000 A 
ATOM      8  C   UNL     1      -1.227  11.742  22.494  0.00  0.00    +0.000 A 
ATOM      9  C   UNL     1      -0.538  11.669  21.282  0.00  0.00    +0.000 A 
ATOM     10  C   UNL     1       0.156  10.493  20.890  0.00  0.00    +0.000 A 
ATOM     11  C   UNL     1       2.155   6.766  20.193  0.00  0.00    +0.000 C 
ATOM     12  C   UNL     1       2.509   6.472  18.738  0.00  0.00    +0.000 C 
ATOM     13  N   UNL     1       3.201   7.627  18.160  0.00  0.00    +0.000 NA
ATOM     14  C   UNL     1       2.291   8.788  18.110  0.00  0.00    +0.000 C 
ENDROOT
BRANCH   1  15
ATOM     15  C   UNL     1       0.964  11.437  18.712  0.00  0.00    +0.000 C 
ATOM     16  O   UNL     1       0.107  11.740  17.903  0.00  0.00    +0.000 OA
BRANCH  15  17
ATOM     17  O   UNL     1       2.119  12.091  18.934  0.00  0.00    +0.000 OA
BRANCH  17  18
ATOM     18  C   UNL     1       2.537  13.068  17.978  0.00  0.00    +0.000 C 
BRANCH  18  20
ATOM     19  N   UNL     1       4.525  14.469  17.761  0.00  0.00    +0.000 N 
ATOM     20  C   UNL     1       3.555  13.992  18.633  0.00  0.00    +0.000 C 
ATOM     21  O   UNL     1       3.454  14.265  19.831  0.00  0.00    +0.000 OA
ATOM     22  H   UNL     1       4.333  14.307  16.774  0.00  0.00    +0.000 HD
BRANCH  19  30
ATOM     23  C   UNL     1       7.170  13.293  17.336  0.00  0.00    +0.000 C 
ATOM     24  C   UNL     1       6.977  14.681  17.901  0.00  0.00    +0.000 A 
ATOM     25  C   UNL     1       8.088  15.481  18.253  0.00  0.00    +0.000 A 
ATOM     26 CL   UNL     1       9.726  14.953  18.055  0.00  0.00    +0.000 Cl
ATOM     27  C   UNL     1       7.921  16.764  18.781  0.00  0.00    +0.000 A 
ATOM     28  C   UNL     1       6.647  17.267  18.989  0.00  0.00    +0.000 A 
ATOM     29  C   UNL     1       5.539  16.498  18.654  0.00  0.00    +0.000 A 
ATOM     30  C   UNL     1       5.678  15.219  18.095  0.00  0.00    +0.000 A 
ENDBRANCH  19  30
ENDBRANCH  18  20
ENDBRANCH  17  18
ENDBRANCH  15  17
ENDBRANCH   1  15
BRANCH  13  31
ATOM     31  C   UNL     1       3.743   7.310  16.820  0.00  0.00    +0.000 C 
BRANCH  31  32
ATOM     32  C   UNL     1       4.926   6.358  16.871  0.00  0.00    +0.000 A 
ATOM     33  C   UNL     1       6.175   6.798  17.338  0.00  0.00    +0.000 A 
ATOM     34  C   UNL     1       7.297   5.973  17.243  0.00  0.00    +0.000 A 
ATOM     35  C   UNL     1       7.178   4.692  16.709  0.00  0.00    +0.000 A 
ATOM     36  C   UNL     1       5.932   4.223  16.295  0.00  0.00    +0.000 A 
ATOM     37  C   UNL     1       4.811   5.051  16.377  0.00  0.00    +0.000 A 
ENDBRANCH  31  32
ENDBRANCH  13  31
TORSDOF 7
ENDMDL
MODEL 5
REMARK VINA RESULT:      -7.6      0.960      1.004
REMARK  Name = 
REMARK  8 active torsions:
REMARK  status: ('A' for Active; 'I' for Inactive)
REMARK    1  A    between atoms: C_1  and  C_2
REMARK    2  A    between atoms: C_8  and  N_9
REMARK    3  A    between atoms: C_10  and  C_12
REMARK    4  A    between atoms: C_12  and  O_13
REMARK    5  A    between atoms: O_13  and  C_14
REMARK    6  A    between atoms: C_14  and  C_16
REMARK    7  A    between atoms: N_28  and  C_29
REMARK    8  A    between atoms: C_29  and  C_30
REMARK                            x       y       z     vdW  Elec       q    Type
REMARK                         _______ _______ _______ _____ _____    ______ ____
ROOT
ATOM      1  C   UNL     1       0.279  10.415  19.740  0.00  0.00    +0.000 A 
ATOM      2  C   UNL     1       1.078   9.244  19.704  0.00  0.00    +0.000 A 
ATOM      3  C   UNL     1       1.122   8.487  20.869  0.00  0.00    +0.000 A 
ATOM      4  N   UNL     1       0.464   8.827  21.999  0.00  0.00    +0.000 NA
ATOM      5  C   UNL     1      -0.287   9.930  22.025  0.00  0.00    +0.000 A 
ATOM      6  C   UNL     1      -0.937  10.230  23.216  0.00  0.00    +0.000 A 
ATOM      7  C   UNL     1      -1.739  11.362  23.359  0.00  0.00    +0.000 A 
ATOM      8  C   UNL     1      -1.899  12.221  22.284  0.00  0.00    +0.000 A 
ATOM      9  C   UNL     1      -1.252  11.944  21.079  0.00  0.00    +0.000 A 
ATOM     10  C   UNL     1      -0.435  10.793  20.920  0.00  0.00    +0.000 A 
ATOM     11  C   UNL     1       1.973   7.248  20.957  0.00  0.00    +0.000 C 
ATOM     12  C   UNL     1       2.306   6.664  19.586  0.00  0.00    +0.000 C 
ATOM     13  N   UNL     1       2.831   7.722  18.719  0.00  0.00    +0.000 NA
ATOM     14  C   UNL     1       1.786   8.733  18.466  0.00  0.00    +0.000 C 
ENDROOT
BRANCH   1  15
ATOM     15  C   UNL     1       0.170  11.288  18.536  0.00  0.00    +0.000 C 
ATOM     16  O   UNL     1       0.941  12.174  18.220  0.00  0.00    +0.000 OA
BRANCH  15  17
ATOM     17  O   UNL     1      -0.904  10.875  17.837  0.00  0.00    +0.000 OA
BRANCH  17  18
ATOM     18  C   UNL     1      -1.654  11.853  17.114  0.00  0.00    +0.000 C 
BRANCH  18  20
ATOM     19  N   UNL     1      -3.639  11.969  18.532  0.00  0.00    +0.000 N 
ATOM     20  C   UNL     1      -3.139  11.569  17.300  0.00  0.00    +0.000 C 
ATOM     21  O   UNL     1      -3.781  11.046  16.387  0.00  0.00    +0.000 OA
ATOM     22  H   UNL     1      -3.017  12.566  19.074  0.00  0.00    +0.000 HD
BRANCH  19  30
ATOM     23  C   UNL     1      -4.778  13.800  20.509  0.00  0.00    +0.000 C 
ATOM     24  C   UNL     1      -5.513  12.578  20.013  0.00  0.00    +0.000 A 
ATOM     25  C   UNL     1      -6.806  12.265  20.493  0.00  0.00    +0.000 A 
ATOM     26 CL   UNL     1      -7.639  13.245  21.654  0.00  0.00    +0.000 Cl
ATOM     27  C   UNL     1      -7.492  11.134  20.045  0.00  0.00    +0.000 A 
ATOM     28  C   UNL     1      -6.900  10.281  19.127  0.00  0.00    +0.000 A 
ATOM     29  C   UNL     1      -5.629  10.567  18.643  0.00  0.00    +0.000 A 
ATOM     30  C   UNL     1      -4.929  11.710  19.054  0.00  0.00    +0.000 A 
ENDBRANCH  19  30
ENDBRANCH  18  20
ENDBRANCH  17  18
ENDBRANCH  15  17
ENDBRANCH   1  15
BRANCH  13  31
ATOM     31  C   UNL     1       3.357   7.163  17.453  0.00  0.00    +0.000 C 
BRANCH  31  32
ATOM     32  C   UNL     1       4.697   6.469  17.626  0.00  0.00    +0.000 A 
ATOM     33  C   UNL     1       5.868   7.040  17.103  0.00  0.00    +0.000 A 
ATOM     34  C   UNL     1       7.072   6.334  17.126  0.00  0.00    +0.000 A 
ATOM     35  C   UNL     1       7.125   5.064  17.697  0.00  0.00    +0.000 A 
ATOM     36  C   UNL     1       5.981   4.510  18.271  0.00  0.00    +0.000 A 
ATOM     37  C   UNL     1       4.773   5.209  18.237  0.00  0.00    +0.000 A 
ENDBRANCH  31  32
ENDBRANCH  13  31
TORSDOF 7
ENDMDL
MODEL 6
REMARK VINA RESULT:      -7.6      3.202      5.516
REMARK  Name = 
REMARK  8 active torsions:
REMARK  status: ('A' for Active; 'I' for Inactive)
REMARK    1  A    between atoms: C_1  and  C_2
REMARK    2  A    between atoms: C_8  and  N_9
REMARK    3  A    between atoms: C_10  and  C_12
REMARK    4  A    between atoms: C_12  and  O_13
REMARK    5  A    between atoms: O_13  and  C_14
REMARK    6  A    between atoms: C_14  and  C_16
REMARK    7  A    between atoms: N_28  and  C_29
REMARK    8  A    between atoms: C_29  and  C_30
REMARK                            x       y       z     vdW  Elec       q    Type
REMARK                         _______ _______ _______ _____ _____    ______ ____
ROOT
ATOM      1  C   UNL     1       3.380   5.991  18.958  0.00  0.00    +0.000 A 
ATOM      2  C   UNL     1       4.757   5.998  18.619  0.00  0.00    +0.000 A 
ATOM      3  C   UNL     1       5.473   4.839  18.901  0.00  0.00    +0.000 A 
ATOM      4  N   UNL     1       4.921   3.751  19.481  0.00  0.00    +0.000 NA
ATOM      5  C   UNL     1       3.623   3.751  19.797  0.00  0.00    +0.000 A 
ATOM      6  C   UNL     1       3.113   2.605  20.396  0.00  0.00    +0.000 A 
ATOM      7  C   UNL     1       1.776   2.499  20.776  0.00  0.00    +0.000 A 
ATOM      8  C   UNL     1       0.921   3.566  20.555  0.00  0.00    +0.000 A 
ATOM      9  C   UNL     1       1.410   4.730  19.961  0.00  0.00    +0.000 A 
ATOM     10  C   UNL     1       2.770   4.849  19.565  0.00  0.00    +0.000 A 
ATOM     11  C   UNL     1       6.949   4.752  18.622  0.00  0.00    +0.000 C 
ATOM     12  C   UNL     1       7.413   5.770  17.582  0.00  0.00    +0.000 C 
ATOM     13  N   UNL     1       6.924   7.102  17.950  0.00  0.00    +0.000 NA
ATOM     14  C   UNL     1       5.450   7.132  17.892  0.00  0.00    +0.000 C 
ENDROOT
BRANCH   1  15
ATOM     15  C   UNL     1       2.534   7.188  18.691  0.00  0.00    +0.000 C 
ATOM     16  O   UNL     1       2.279   7.658  17.599  0.00  0.00    +0.000 OA
BRANCH  15  17
ATOM     17  O   UNL     1       2.061   7.618  19.876  0.00  0.00    +0.000 OA
BRANCH  17  18
ATOM     18  C   UNL     1       1.943   9.026  20.085  0.00  0.00    +0.000 C 
BRANCH  18  20
ATOM     19  N   UNL     1       0.040  10.372  19.355  0.00  0.00    +0.000 N 
ATOM     20  C   UNL     1       0.468   9.380  20.227  0.00  0.00    +0.000 C 
ATOM     21  O   UNL     1      -0.228   8.783  21.052  0.00  0.00    +0.000 OA
ATOM     22  H   UNL     1       0.696  10.601  18.610  0.00  0.00    +0.000 HD
BRANCH  19  30
ATOM     23  C   UNL     1      -1.825   9.837  17.165  0.00  0.00    +0.000 C 
ATOM     24  C   UNL     1      -2.151  10.778  18.301  0.00  0.00    +0.000 A 
ATOM     25  C   UNL     1      -3.394  11.449  18.352  0.00  0.00    +0.000 A 
ATOM     26 CL   UNL     1      -4.624  11.239  17.150  0.00  0.00    +0.000 Cl
ATOM     27  C   UNL     1      -3.705  12.325  19.395  0.00  0.00    +0.000 A 
ATOM     28  C   UNL     1      -2.777  12.567  20.396  0.00  0.00    +0.000 A 
ATOM     29  C   UNL     1      -1.547  11.921  20.366  0.00  0.00    +0.000 A 
ATOM     30  C   UNL     1      -1.221  11.015  19.346  0.00  0.00    +0.000 A 
ENDBRANCH  19  30
ENDBRANCH  18  20
ENDBRANCH  17  18
ENDBRANCH  15  17
ENDBRANCH   1  15
BRANCH  13  31
ATOM     31  C   UNL     1       7.519   8.146  17.087  0.00  0.00    +0.000 C 
BRANCH  31  32
ATOM     32  C   UNL     1       8.131   9.289  17.878  0.00  0.00    +0.000 A 
ATOM     33  C   UNL     1       8.091  10.601  17.382  0.00  0.00    +0.000 A 
ATOM     34  C   UNL     1       8.783  11.625  18.031  0.00  0.00    +0.000 A 
ATOM     35  C   UNL     1       9.497  11.355  19.196  0.00  0.00    +0.000 A 
ATOM     36  C   UNL     1       9.498  10.067  19.731  0.00  0.00    +0.000 A 
ATOM     37  C   UNL     1       8.817   9.039  19.076  0.00  0.00    +0.000 A 
ENDBRANCH  31  32
ENDBRANCH  13  31
TORSDOF 7
ENDMDL
MODEL 7
REMARK VINA RESULT:      -7.6      3.971      9.880
REMARK  Name = 
REMARK  8 active torsions:
REMARK  status: ('A' for Active; 'I' for Inactive)
REMARK    1  A    between atoms: C_1  and  C_2
REMARK    2  A    between atoms: C_8  and  N_9
REMARK    3  A    between atoms: C_10  and  C_12
REMARK    4  A    between atoms: C_12  and  O_13
REMARK    5  A    between atoms: O_13  and  C_14
REMARK    6  A    between atoms: C_14  and  C_16
REMARK    7  A    between atoms: N_28  and  C_29
REMARK    8  A    between atoms: C_29  and  C_30
REMARK                            x       y       z     vdW  Elec       q    Type
REMARK                         _______ _______ _______ _____ _____    ______ ____
ROOT
ATOM      1  C   UNL     1      -1.165  11.772  20.752  0.00  0.00    +0.000 A 
ATOM      2  C   UNL     1      -2.116  12.549  21.462  0.00  0.00    +0.000 A 
ATOM      3  C   UNL     1      -3.337  12.764  20.832  0.00  0.00    +0.000 A 
ATOM      4  N   UNL     1      -3.631  12.285  19.603  0.00  0.00    +0.000 NA
ATOM      5  C   UNL     1      -2.731  11.553  18.941  0.00  0.00    +0.000 A 
ATOM      6  C   UNL     1      -3.088  11.092  17.680  0.00  0.00    +0.000 A 
ATOM      7  C   UNL     1      -2.224  10.328  16.897  0.00  0.00    +0.000 A 
ATOM      8  C   UNL     1      -0.966  10.014  17.384  0.00  0.00    +0.000 A 
ATOM      9  C   UNL     1      -0.581  10.470  18.645  0.00  0.00    +0.000 A 
ATOM     10  C   UNL     1      -1.454  11.247  19.454  0.00  0.00    +0.000 A 
ATOM     11  C   UNL     1      -4.403  13.611  21.475  0.00  0.00    +0.000 C 
ATOM     12  C   UNL     1      -4.227  13.729  22.987  0.00  0.00    +0.000 C 
ATOM     13  N   UNL     1      -2.849  14.125  23.289  0.00  0.00    +0.000 NA
ATOM     14  C   UNL     1      -1.916  13.059  22.874  0.00  0.00    +0.000 C 
ENDROOT
BRANCH   1  15
ATOM     15  C   UNL     1       0.170  11.489  21.350  0.00  0.00    +0.000 C 
ATOM     16  O   UNL     1       1.115  12.253  21.392  0.00  0.00    +0.000 OA
BRANCH  15  17
ATOM     17  O   UNL     1       0.117  10.254  21.884  0.00  0.00    +0.000 OA
BRANCH  17  18
ATOM     18  C   UNL     1       1.288   9.438  21.815  0.00  0.00    +0.000 C 
BRANCH  18  20
ATOM     19  N   UNL     1       1.978   7.271  20.925  0.00  0.00    +0.000 N 
ATOM     20  C   UNL     1       0.898   8.061  21.293  0.00  0.00    +0.000 C 
ATOM     21  O   UNL     1      -0.292   7.738  21.247  0.00  0.00    +0.000 OA
ATOM     22  H   UNL     1       2.887   7.620  21.224  0.00  0.00    +0.000 HD
BRANCH  19  30
ATOM     23  C   UNL     1       3.236   6.974  18.301  0.00  0.00    +0.000 C 
ATOM     24  C   UNL     1       2.535   5.835  19.001  0.00  0.00    +0.000 A 
ATOM     25  C   UNL     1       2.458   4.554  18.405  0.00  0.00    +0.000 A 
ATOM     26 CL   UNL     1       3.160   4.194  16.862  0.00  0.00    +0.000 Cl
ATOM     27  C   UNL     1       1.808   3.495  19.041  0.00  0.00    +0.000 A 
ATOM     28  C   UNL     1       1.203   3.691  20.272  0.00  0.00    +0.000 A 
ATOM     29  C   UNL     1       1.263   4.941  20.877  0.00  0.00    +0.000 A 
ATOM     30  C   UNL     1       1.934   6.015  20.274  0.00  0.00    +0.000 A 
ENDBRANCH  19  30
ENDBRANCH  18  20
ENDBRANCH  17  18
ENDBRANCH  15  17
ENDBRANCH   1  15
BRANCH  13  31
ATOM     31  C   UNL     1      -2.690  14.450  24.724  0.00  0.00    +0.000 C 
BRANCH  31  32
ATOM     32  C   UNL     1      -1.907  15.731  24.956  0.00  0.00    +0.000 A 
ATOM     33  C   UNL     1      -1.754  16.670  23.924  0.00  0.00    +0.000 A 
ATOM     34  C   UNL     1      -0.911  17.770  24.088  0.00  0.00    +0.000 A 
ATOM     35  C   UNL     1      -0.236  17.960  25.292  0.00  0.00    +0.000 A 
ATOM     36  C   UNL     1      -0.425  17.065  26.344  0.00  0.00    +0.000 A 
ATOM     37  C   UNL     1      -1.257  15.957  26.179  0.00  0.00    +0.000 A 
ENDBRANCH  31  32
ENDBRANCH  13  31
TORSDOF 7
ENDMDL
MODEL 8
REMARK VINA RESULT:      -7.6      3.458      8.505
REMARK  Name = 
REMARK  8 active torsions:
REMARK  status: ('A' for Active; 'I' for Inactive)
REMARK    1  A    between atoms: C_1  and  C_2
REMARK    2  A    between atoms: C_8  and  N_9
REMARK    3  A    between atoms: C_10  and  C_12
REMARK    4  A    between atoms: C_12  and  O_13
REMARK    5  A    between atoms: O_13  and  C_14
REMARK    6  A    between atoms: C_14  and  C_16
REMARK    7  A    between atoms: N_28  and  C_29
REMARK    8  A    between atoms: C_29  and  C_30
REMARK                            x       y       z     vdW  Elec       q    Type
REMARK                         _______ _______ _______ _____ _____    ______ ____
ROOT
ATOM      1  C   UNL     1      -3.836  13.944  21.457  0.00  0.00    +0.000 A 
ATOM      2  C   UNL     1      -4.988  13.429  20.810  0.00  0.00    +0.000 A 
ATOM      3  C   UNL     1      -6.218  13.805  21.340  0.00  0.00    +0.000 A 
ATOM      4  N   UNL     1      -6.345  14.604  22.422  0.00  0.00    +0.000 NA
ATOM      5  C   UNL     1      -5.255  15.086  23.025  0.00  0.00    +0.000 A 
ATOM      6  C   UNL     1      -5.449  15.899  24.136  0.00  0.00    +0.000 A 
ATOM      7  C   UNL     1      -4.384  16.448  24.848  0.00  0.00    +0.000 A 
ATOM      8  C   UNL     1      -3.086  16.179  24.443  0.00  0.00    +0.000 A 
ATOM      9  C   UNL     1      -2.866  15.361  23.334  0.00  0.00    +0.000 A 
ATOM     10  C   UNL     1      -3.943  14.798  22.598  0.00  0.00    +0.000 A 
ATOM     11  C   UNL     1      -7.505  13.282  20.759  0.00  0.00    +0.000 C 
ATOM     12  C   UNL     1      -7.346  12.794  19.322  0.00  0.00    +0.000 C 
ATOM     13  N   UNL     1      -6.206  11.876  19.241  0.00  0.00    +0.000 NA
ATOM     14  C   UNL     1      -4.955  12.597  19.545  0.00  0.00    +0.000 C 
ENDROOT
BRANCH   1  15
ATOM     15  C   UNL     1      -2.475  13.596  20.957  0.00  0.00    +0.000 C 
ATOM     16  O   UNL     1      -1.784  14.276  20.223  0.00  0.00    +0.000 OA
BRANCH  15  17
ATOM     17  O   UNL     1      -2.133  12.419  21.513  0.00  0.00    +0.000 OA
BRANCH  17  18
ATOM     18  C   UNL     1      -0.916  12.354  22.259  0.00  0.00    +0.000 C 
BRANCH  18  20
ATOM     19  N   UNL     1      -0.195  10.698  20.615  0.00  0.00    +0.000 N 
ATOM     20  C   UNL     1       0.184  11.808  21.359  0.00  0.00    +0.000 C 
ATOM     21  O   UNL     1       1.284  12.364  21.331  0.00  0.00    +0.000 OA
ATOM     22  H   UNL     1      -1.195  10.505  20.612  0.00  0.00    +0.000 HD
BRANCH  19  30
ATOM     23  C   UNL     1       0.845   8.190  21.705  0.00  0.00    +0.000 C 
ATOM     24  C   UNL     1       1.159   8.662  20.306  0.00  0.00    +0.000 A 
ATOM     25  C   UNL     1       1.983   7.895  19.450  0.00  0.00    +0.000 A 
ATOM     26 CL   UNL     1       2.672   6.377  19.923  0.00  0.00    +0.000 Cl
ATOM     27  C   UNL     1       2.284   8.324  18.155  0.00  0.00    +0.000 A 
ATOM     28  C   UNL     1       1.789   9.533  17.693  0.00  0.00    +0.000 A 
ATOM     29  C   UNL     1       0.979  10.305  18.516  0.00  0.00    +0.000 A 
ATOM     30  C   UNL     1       0.638   9.885  19.810  0.00  0.00    +0.000 A 
ENDBRANCH  19  30
ENDBRANCH  18  20
ENDBRANCH  17  18
ENDBRANCH  15  17
ENDBRANCH   1  15
BRANCH  13  31
ATOM     31  C   UNL     1      -6.142  11.221  17.915  0.00  0.00    +0.000 C 
BRANCH  31  32
ATOM     32  C   UNL     1      -4.720  10.916  17.476  0.00  0.00    +0.000 A 
ATOM     33  C   UNL     1      -4.216  11.442  16.276  0.00  0.00    +0.000 A 
ATOM     34  C   UNL     1      -2.968  11.041  15.796  0.00  0.00    +0.000 A 
ATOM     35  C   UNL     1      -2.199  10.135  16.522  0.00  0.00    +0.000 A 
ATOM     36  C   UNL     1      -2.664   9.649  17.743  0.00  0.00    +0.000 A 
ATOM     37  C   UNL     1      -3.917  10.038  18.219  0.00  0.00    +0.000 A 
ENDBRANCH  31  32
ENDBRANCH  13  31
TORSDOF 7
ENDMDL
MODEL 9
REMARK VINA RESULT:      -7.6      3.466      9.834
REMARK  Name = 
REMARK  8 active torsions:
REMARK  status: ('A' for Active; 'I' for Inactive)
REMARK    1  A    between atoms: C_1  and  C_2
REMARK    2  A    between atoms: C_8  and  N_9
REMARK    3  A    between atoms: C_10  and  C_12
REMARK    4  A    between atoms: C_12  and  O_13
REMARK    5  A    between atoms: O_13  and  C_14
REMARK    6  A    between atoms: C_14  and  C_16
REMARK    7  A    between atoms: N_28  and  C_29
REMARK    8  A    between atoms: C_29  and  C_30
REMARK                            x       y       z     vdW  Elec       q    Type
REMARK                         _______ _______ _______ _____ _____    ______ ____
ROOT
ATOM      1  C   UNL     1      -2.659  12.124  19.734  0.00  0.00    +0.000 A 
ATOM      2  C   UNL     1      -3.695  12.645  20.550  0.00  0.00    +0.000 A 
ATOM      3  C   UNL     1      -4.975  12.642  20.007  0.00  0.00    +0.000 A 
ATOM      4  N   UNL     1      -5.251  12.188  18.764  0.00  0.00    +0.000 NA
ATOM      5  C   UNL     1      -4.270  11.698  18.002  0.00  0.00    +0.000 A 
ATOM      6  C   UNL     1      -4.615  11.250  16.732  0.00  0.00    +0.000 A 
ATOM      7  C   UNL     1      -3.671  10.728  15.848  0.00  0.00    +0.000 A 
ATOM      8  C   UNL     1      -2.344  10.651  16.240  0.00  0.00    +0.000 A 
ATOM      9  C   UNL     1      -1.973  11.099  17.508  0.00  0.00    +0.000 A 
ATOM     10  C   UNL     1      -2.926  11.630  18.419  0.00  0.00    +0.000 A 
ATOM     11  C   UNL     1      -6.142  13.211  20.769  0.00  0.00    +0.000 C 
ATOM     12  C   UNL     1      -5.890  13.271  22.273  0.00  0.00    +0.000 C 
ATOM     13  N   UNL     1      -4.602  13.923  22.527  0.00  0.00    +0.000 NA
ATOM     14  C   UNL     1      -3.505  13.099  21.983  0.00  0.00    +0.000 C 
ENDROOT
BRANCH   1  15
ATOM     15  C   UNL     1      -1.256  12.086  20.234  0.00  0.00    +0.000 C 
ATOM     16  O   UNL     1      -0.457  13.003  20.204  0.00  0.00    +0.000 OA
BRANCH  15  17
ATOM     17  O   UNL     1      -1.055  10.869  20.776  0.00  0.00    +0.000 OA
BRANCH  17  18
ATOM     18  C   UNL     1      -0.250  10.779  21.952  0.00  0.00    +0.000 C 
BRANCH  18  20
ATOM     19  N   UNL     1       0.737   9.076  20.506  0.00  0.00    +0.000 N 
ATOM     20  C   UNL     1       0.817   9.715  21.737  0.00  0.00    +0.000 C 
ATOM     21  O   UNL     1       1.659   9.505  22.613  0.00  0.00    +0.000 OA
ATOM     22  H   UNL     1       0.113   9.518  19.833  0.00  0.00    +0.000 HD
BRANCH  19  30
ATOM     23  C   UNL     1       2.210   9.219  17.983  0.00  0.00    +0.000 C 
ATOM     24  C   UNL     1       2.213   7.989  18.859  0.00  0.00    +0.000 A 
ATOM     25  C   UNL     1       2.942   6.835  18.487  0.00  0.00    +0.000 A 
ATOM     26 CL   UNL     1       3.883   6.748  17.035  0.00  0.00    +0.000 Cl
ATOM     27  C   UNL     1       2.947   5.690  19.286  0.00  0.00    +0.000 A 
ATOM     28  C   UNL     1       2.211   5.661  20.460  0.00  0.00    +0.000 A 
ATOM     29  C   UNL     1       1.484   6.781  20.846  0.00  0.00    +0.000 A 
ATOM     30  C   UNL     1       1.485   7.954  20.076  0.00  0.00    +0.000 A 
ENDBRANCH  19  30
ENDBRANCH  18  20
ENDBRANCH  17  18
ENDBRANCH  15  17
ENDBRANCH   1  15
BRANCH  13  31
ATOM     31  C   UNL     1      -4.412  14.187  23.970  0.00  0.00    +0.000 C 
BRANCH  31  32
ATOM     32  C   UNL     1      -3.344  15.231  24.245  0.00  0.00    +0.000 A 
ATOM     33  C   UNL     1      -3.339  16.448  23.544  0.00  0.00    +0.000 A 
ATOM     34  C   UNL     1      -2.275  17.341  23.684  0.00  0.00    +0.000 A 
ATOM     35  C   UNL     1      -1.222  17.043  24.545  0.00  0.00    +0.000 A 
ATOM     36  C   UNL     1      -1.244  15.865  25.290  0.00  0.00    +0.000 A 
ATOM     37  C   UNL     1      -2.299  14.963  25.142  0.00  0.00    +0.000 A 
ENDBRANCH  31  32
ENDBRANCH  13  31
TORSDOF 7
ENDMDL
