MODEL 1
REMARK VINA RESULT:      -8.0      0.000      0.000
REMARK  Name = 
REMARK  5 active torsions:
REMARK  status: ('A' for Active; 'I' for Inactive)
REMARK    1  A    between atoms: S_2  and  C_4
REMARK    2  A    between atoms: S_2  and  N_12
REMARK    3  A    between atoms: C_4  and  C_5
REMARK    4  A    between atoms: C_5  and  N_6
REMARK    5  A    between atoms: C_17  and  O_18
REMARK                            x       y       z     vdW  Elec       q    Type
REMARK                         _______ _______ _______ _____ _____    ______ ____
ROOT
ATOM      1  N   UNL     1       5.632   5.598  16.634  0.00  0.00    +0.000 NA
ATOM      2  C   UNL     1       5.567   6.830  17.455  0.00  0.00    +0.000 C 
ATOM      3  C   UNL     1       4.197   7.423  17.243  0.00  0.00    +0.000 C 
ATOM      4  C   UNL     1       3.334   6.490  18.026  0.00  0.00    +0.000 A 
ATOM      5  N   UNL     1       2.791   7.033  19.130  0.00  0.00    +0.000 NA
ATOM      6  C   UNL     1       2.159   6.189  19.933  0.00  0.00    +0.000 A 
ATOM      7  C   UNL     1       1.892   4.858  19.658  0.00  0.00    +0.000 A 
ATOM      8  C   UNL     1       1.084   4.119  20.539  0.00  0.00    +0.000 A 
ATOM      9  C   UNL     1       0.702   2.823  20.231  0.00  0.00    +0.000 A 
ATOM     10  C   UNL     1       1.171   2.245  19.058  0.00  0.00    +0.000 A 
ATOM     11  C   UNL     1       2.066   2.941  18.216  0.00  0.00    +0.000 A 
ATOM     12  C   UNL     1       2.463   4.284  18.487  0.00  0.00    +0.000 A 
ATOM     13  C   UNL     1       3.354   5.118  17.727  0.00  0.00    +0.000 A 
ATOM     14  C   UNL     1       4.410   4.683  16.682  0.00  0.00    +0.000 C 
ENDROOT
BRANCH   1  16
ATOM     15  O   UNL     1       7.815   4.364  17.117  0.00  0.00    +0.000 OA
ATOM     16  S   UNL     1       7.160   5.142  16.083  0.00  0.00    +0.000 S 
ATOM     17  O   UNL     1       7.792   6.326  15.531  0.00  0.00    +0.000 OA
BRANCH  16  18
ATOM     18  C   UNL     1       6.769   4.034  14.728  0.00  0.00    +0.000 C 
BRANCH  18  19
ATOM     19  C   UNL     1       7.095   4.632  13.351  0.00  0.00    +0.000 C 
BRANCH  19  20
ATOM     20  N   UNL     1       6.631   3.766  12.231  0.00  0.00    +0.000 NA
ATOM     21  C   UNL     1       7.586   2.668  11.968  0.00  0.00    +0.000 C 
ATOM     22  C   UNL     1       7.162   1.836  10.749  0.00  0.00    +0.000 C 
ATOM     23  C   UNL     1       5.740   1.301  10.890  0.00  0.00    +0.000 C 
ATOM     24  C   UNL     1       4.788   2.429  11.253  0.00  0.00    +0.000 C 
ATOM     25  C   UNL     1       5.288   3.213  12.465  0.00  0.00    +0.000 C 
ENDBRANCH  19  20
ENDBRANCH  18  19
ENDBRANCH  16  18
ENDBRANCH   1  16
BRANCH   6  26
ATOM     26  O   UNL     1       1.831   6.773  21.113  0.00  0.00    +0.000 OA
ATOM     27  H   UNL     1       0.949   6.377  21.237  0.00  0.00    +0.000 HD
ENDBRANCH   6  26
TORSDOF 5
ENDMDL
MODEL 2
REMARK VINA RESULT:      -8.0      4.394      8.701
REMARK  Name = 
REMARK  5 active torsions:
REMARK  status: ('A' for Active; 'I' for Inactive)
REMARK    1  A    between atoms: S_2  and  C_4
REMARK    2  A    between atoms: S_2  and  N_12
REMARK    3  A    between atoms: C_4  and  C_5
REMARK    4  A    between atoms: C_5  and  N_6
REMARK    5  A    between atoms: C_17  and  O_18
REMARK                            x       y       z     vdW  Elec       q    Type
REMARK                         _______ _______ _______ _____ _____    ______ ____
ROOT
ATOM      1  N   UNL     1       1.497   7.223  20.325  0.00  0.00    +0.000 NA
ATOM      2  C   UNL     1       1.456   5.912  21.013  0.00  0.00    +0.000 C 
ATOM      3  C   UNL     1       1.304   4.862  19.941  0.00  0.00    +0.000 C 
ATOM      4  C   UNL     1       2.668   4.844  19.334  0.00  0.00    +0.000 A 
ATOM      5  N   UNL     1       3.363   3.717  19.564  0.00  0.00    +0.000 NA
ATOM      6  C   UNL     1       4.633   3.737  19.184  0.00  0.00    +0.000 A 
ATOM      7  C   UNL     1       5.241   4.744  18.452  0.00  0.00    +0.000 A 
ATOM      8  C   UNL     1       6.557   4.564  17.992  0.00  0.00    +0.000 A 
ATOM      9  C   UNL     1       7.150   5.501  17.160  0.00  0.00    +0.000 A 
ATOM     10  C   UNL     1       6.440   6.647  16.825  0.00  0.00    +0.000 A 
ATOM     11  C   UNL     1       5.156   6.887  17.363  0.00  0.00    +0.000 A 
ATOM     12  C   UNL     1       4.505   5.937  18.204  0.00  0.00    +0.000 A 
ATOM     13  C   UNL     1       3.208   6.034  18.818  0.00  0.00    +0.000 A 
ATOM     14  C   UNL     1       2.367   7.309  19.073  0.00  0.00    +0.000 C 
ENDROOT
BRANCH   1  16
ATOM     15  O   UNL     1       1.926   8.906  22.197  0.00  0.00    +0.000 OA
ATOM     16  S   UNL     1       0.932   8.550  21.202  0.00  0.00    +0.000 S 
ATOM     17  O   UNL     1      -0.436   8.263  21.589  0.00  0.00    +0.000 OA
BRANCH  16  18
ATOM     18  C   UNL     1       0.904   9.848  19.966  0.00  0.00    +0.000 C 
BRANCH  18  19
ATOM     19  C   UNL     1      -0.246  10.846  20.171  0.00  0.00    +0.000 C 
BRANCH  19  20
ATOM     20  N   UNL     1      -1.365  10.628  19.212  0.00  0.00    +0.000 NA
ATOM     21  C   UNL     1      -2.206  11.838  19.082  0.00  0.00    +0.000 C 
ATOM     22  C   UNL     1      -3.418  11.583  18.174  0.00  0.00    +0.000 C 
ATOM     23  C   UNL     1      -3.004  11.055  16.804  0.00  0.00    +0.000 C 
ATOM     24  C   UNL     1      -2.065   9.870  16.959  0.00  0.00    +0.000 C 
ATOM     25  C   UNL     1      -0.896  10.202  17.885  0.00  0.00    +0.000 C 
ENDBRANCH  19  20
ENDBRANCH  18  19
ENDBRANCH  16  18
ENDBRANCH   1  16
BRANCH   6  26
ATOM     26  O   UNL     1       5.309   2.653  19.640  0.00  0.00    +0.000 OA
ATOM     27  H   UNL     1       4.762   2.454  20.422  0.00  0.00    +0.000 HD
ENDBRANCH   6  26
TORSDOF 5
ENDMDL
MODEL 3
REMARK VINA RESULT:      -7.7      5.028      8.789
REMARK  Name = 
REMARK  5 active torsions:
REMARK  status: ('A' for Active; 'I' for Inactive)
REMARK    1  A    between atoms: S_2  and  C_4
REMARK    2  A    between atoms: S_2  and  N_12
REMARK    3  A    between atoms: C_4  and  C_5
REMARK    4  A    between atoms: C_5  and  N_6
REMARK    5  A    between atoms: C_17  and  O_18
REMARK                            x       y       z     vdW  Elec       q    Type
REMARK                         _______ _______ _______ _____ _____    ______ ____
ROOT
ATOM      1  N   UNL     1       1.499   8.761  19.489  0.00  0.00    +0.000 NA
ATOM      2  C   UNL     1       1.685   8.538  18.036  0.00  0.00    +0.000 C 
ATOM      3  C   UNL     1       3.052   7.927  17.859  0.00  0.00    +0.000 C 
ATOM      4  C   UNL     1       2.833   6.536  18.356  0.00  0.00    +0.000 A 
ATOM      5  N   UNL     1       2.896   5.591  17.402  0.00  0.00    +0.000 NA
ATOM      6  C   UNL     1       2.542   4.371  17.779  0.00  0.00    +0.000 A 
ATOM      7  C   UNL     1       2.266   3.974  19.077  0.00  0.00    +0.000 A 
ATOM      8  C   UNL     1       2.046   2.614  19.352  0.00  0.00    +0.000 A 
ATOM      9  C   UNL     1       1.884   2.171  20.656  0.00  0.00    +0.000 A 
ATOM     10  C   UNL     1       1.893   3.102  21.687  0.00  0.00    +0.000 A 
ATOM     11  C   UNL     1       2.011   4.483  21.414  0.00  0.00    +0.000 A 
ATOM     12  C   UNL     1       2.202   4.974  20.089  0.00  0.00    +0.000 A 
ATOM     13  C   UNL     1       2.343   6.338  19.658  0.00  0.00    +0.000 A 
ATOM     14  C   UNL     1       1.930   7.625  20.413  0.00  0.00    +0.000 C 
ENDROOT
BRANCH   1  16
ATOM     15  O   UNL     1       1.288  11.210  20.185  0.00  0.00    +0.000 OA
ATOM     16  S   UNL     1       0.480  10.033  19.928  0.00  0.00    +0.000 S 
ATOM     17  O   UNL     1      -0.435   9.527  20.933  0.00  0.00    +0.000 OA
BRANCH  16  18
ATOM     18  C   UNL     1      -0.448  10.323  18.422  0.00  0.00    +0.000 C 
BRANCH  18  19
ATOM     19  C   UNL     1      -0.876  11.789  18.254  0.00  0.00    +0.000 C 
BRANCH  19  20
ATOM     20  N   UNL     1      -2.315  11.923  17.892  0.00  0.00    +0.000 NA
ATOM     21  C   UNL     1      -2.702  10.946  16.853  0.00  0.00    +0.000 C 
ATOM     22  C   UNL     1      -4.156  11.150  16.405  0.00  0.00    +0.000 C 
ATOM     23  C   UNL     1      -5.127  11.110  17.581  0.00  0.00    +0.000 C 
ATOM     24  C   UNL     1      -4.662  12.052  18.680  0.00  0.00    +0.000 C 
ATOM     25  C   UNL     1      -3.204  11.791  19.057  0.00  0.00    +0.000 C 
ENDBRANCH  19  20
ENDBRANCH  18  19
ENDBRANCH  16  18
ENDBRANCH   1  16
BRANCH   6  26
ATOM     26  O   UNL     1       2.431   3.532  16.718  0.00  0.00    +0.000 OA
ATOM     27  H   UNL     1       2.295   4.195  16.017  0.00  0.00    +0.000 HD
ENDBRANCH   6  26
TORSDOF 5
ENDMDL
MODEL 4
REMARK VINA RESULT:      -7.6      4.317      8.639
REMARK  Name = 
REMARK  5 active torsions:
REMARK  status: ('A' for Active; 'I' for Inactive)
REMARK    1  A    between atoms: S_2  and  C_4
REMARK    2  A    between atoms: S_2  and  N_12
REMARK    3  A    between atoms: C_4  and  C_5
REMARK    4  A    between atoms: C_5  and  N_6
REMARK    5  A    between atoms: C_17  and  O_18
REMARK                            x       y       z     vdW  Elec       q    Type
REMARK                         _______ _______ _______ _____ _____    ______ ____
ROOT
ATOM      1  N   UNL     1       1.487   7.300  20.253  0.00  0.00    +0.000 NA
ATOM      2  C   UNL     1       1.486   6.030  21.016  0.00  0.00    +0.000 C 
ATOM      3  C   UNL     1       1.299   4.919  20.015  0.00  0.00    +0.000 C 
ATOM      4  C   UNL     1       2.636   4.876  19.352  0.00  0.00    +0.000 A 
ATOM      5  N   UNL     1       3.350   3.768  19.617  0.00  0.00    +0.000 NA
ATOM      6  C   UNL     1       4.602   3.774  19.182  0.00  0.00    +0.000 A 
ATOM      7  C   UNL     1       5.170   4.740  18.369  0.00  0.00    +0.000 A 
ATOM      8  C   UNL     1       6.467   4.543  17.864  0.00  0.00    +0.000 A 
ATOM      9  C   UNL     1       7.016   5.434  16.955  0.00  0.00    +0.000 A 
ATOM     10  C   UNL     1       6.283   6.554  16.585  0.00  0.00    +0.000 A 
ATOM     11  C   UNL     1       5.021   6.816  17.163  0.00  0.00    +0.000 A 
ATOM     12  C   UNL     1       4.414   5.912  18.084  0.00  0.00    +0.000 A 
ATOM     13  C   UNL     1       3.143   6.037  18.746  0.00  0.00    +0.000 A 
ATOM     14  C   UNL     1       2.302   7.319  18.963  0.00  0.00    +0.000 C 
ENDROOT
BRANCH   1  16
ATOM     15  O   UNL     1       1.906   8.996  22.117  0.00  0.00    +0.000 OA
ATOM     16  S   UNL     1       0.948   8.671  21.077  0.00  0.00    +0.000 S 
ATOM     17  O   UNL     1      -0.452   8.464  21.395  0.00  0.00    +0.000 OA
BRANCH  16  18
ATOM     18  C   UNL     1       1.053   9.945  19.818  0.00  0.00    +0.000 C 
BRANCH  18  19
ATOM     19  C   UNL     1       0.049  11.087  20.036  0.00  0.00    +0.000 C 
BRANCH  19  20
ATOM     20  N   UNL     1      -0.944  11.189  18.930  0.00  0.00    +0.000 NA
ATOM     21  C   UNL     1      -0.988   9.947  18.130  0.00  0.00    +0.000 C 
ATOM     22  C   UNL     1      -1.934  10.087  16.928  0.00  0.00    +0.000 C 
ATOM     23  C   UNL     1      -3.336  10.515  17.353  0.00  0.00    +0.000 C 
ATOM     24  C   UNL     1      -3.264  11.738  18.251  0.00  0.00    +0.000 C 
ATOM     25  C   UNL     1      -2.294  11.521  19.412  0.00  0.00    +0.000 C 
ENDBRANCH  19  20
ENDBRANCH  18  19
ENDBRANCH  16  18
ENDBRANCH   1  16
BRANCH   6  26
ATOM     26  O   UNL     1       5.306   2.722  19.671  0.00  0.00    +0.000 OA
ATOM     27  H   UNL     1       4.838   2.610  20.519  0.00  0.00    +0.000 HD
ENDBRANCH   6  26
TORSDOF 5
ENDMDL
MODEL 5
REMARK VINA RESULT:      -7.6      3.940      5.892
REMARK  Name = 
REMARK  5 active torsions:
REMARK  status: ('A' for Active; 'I' for Inactive)
REMARK    1  A    between atoms: S_2  and  C_4
REMARK    2  A    between atoms: S_2  and  N_12
REMARK    3  A    between atoms: C_4  and  C_5
REMARK    4  A    between atoms: C_5  and  N_6
REMARK    5  A    between atoms: C_17  and  O_18
REMARK                            x       y       z     vdW  Elec       q    Type
REMARK                         _______ _______ _______ _____ _____    ______ ____
ROOT
ATOM      1  N   UNL     1       2.234   4.590  18.968  0.00  0.00    +0.000 NA
ATOM      2  C   UNL     1       1.453   4.489  20.223  0.00  0.00    +0.000 C 
ATOM      3  C   UNL     1       2.159   5.341  21.246  0.00  0.00    +0.000 C 
ATOM      4  C   UNL     1       1.818   6.720  20.785  0.00  0.00    +0.000 A 
ATOM      5  N   UNL     1       0.993   7.391  21.608  0.00  0.00    +0.000 NA
ATOM      6  C   UNL     1       0.540   8.548  21.148  0.00  0.00    +0.000 A 
ATOM      7  C   UNL     1       0.955   9.173  19.984  0.00  0.00    +0.000 A 
ATOM      8  C   UNL     1       0.494  10.468  19.694  0.00  0.00    +0.000 A 
ATOM      9  C   UNL     1       0.982  11.165  18.599  0.00  0.00    +0.000 A 
ATOM     10  C   UNL     1       1.900  10.544  17.762  0.00  0.00    +0.000 A 
ATOM     11  C   UNL     1       2.294   9.205  17.986  0.00  0.00    +0.000 A 
ATOM     12  C   UNL     1       1.831   8.465  19.113  0.00  0.00    +0.000 A 
ATOM     13  C   UNL     1       2.144   7.109  19.476  0.00  0.00    +0.000 A 
ATOM     14  C   UNL     1       2.708   5.986  18.572  0.00  0.00    +0.000 C 
ENDROOT
BRANCH   1  16
ATOM     15  O   UNL     1       1.830   3.731  16.596  0.00  0.00    +0.000 OA
ATOM     16  S   UNL     1       2.160   3.262  17.929  0.00  0.00    +0.000 S 
ATOM     17  O   UNL     1       1.354   2.247  18.579  0.00  0.00    +0.000 OA
BRANCH  16  18
ATOM     18  C   UNL     1       3.861   2.695  17.905  0.00  0.00    +0.000 C 
BRANCH  18  19
ATOM     19  C   UNL     1       4.710   3.297  19.035  0.00  0.00    +0.000 C 
BRANCH  19  20
ATOM     20  N   UNL     1       5.887   4.052  18.521  0.00  0.00    +0.000 NA
ATOM     21  C   UNL     1       5.721   4.402  17.095  0.00  0.00    +0.000 C 
ATOM     22  C   UNL     1       6.975   5.089  16.536  0.00  0.00    +0.000 C 
ATOM     23  C   UNL     1       7.370   6.312  17.357  0.00  0.00    +0.000 C 
ATOM     24  C   UNL     1       7.444   5.955  18.832  0.00  0.00    +0.000 C 
ATOM     25  C   UNL     1       6.165   5.266  19.304  0.00  0.00    +0.000 C 
ENDBRANCH  19  20
ENDBRANCH  18  19
ENDBRANCH  16  18
ENDBRANCH   1  16
BRANCH   6  26
ATOM     26  O   UNL     1      -0.441   9.051  21.940  0.00  0.00    +0.000 OA
ATOM     27  H   UNL     1      -0.402   8.396  22.661  0.00  0.00    +0.000 HD
ENDBRANCH   6  26
TORSDOF 5
ENDMDL
MODEL 6
REMARK VINA RESULT:      -7.5      5.102      8.882
REMARK  Name = 
REMARK  5 active torsions:
REMARK  status: ('A' for Active; 'I' for Inactive)
REMARK    1  A    between atoms: S_2  and  C_4
REMARK    2  A    between atoms: S_2  and  N_12
REMARK    3  A    between atoms: C_4  and  C_5
REMARK    4  A    between atoms: C_5  and  N_6
REMARK    5  A    between atoms: C_17  and  O_18
REMARK                            x       y       z     vdW  Elec       q    Type
REMARK                         _______ _______ _______ _____ _____    ______ ____
ROOT
ATOM      1  N   UNL     1       1.558   8.673  19.491  0.00  0.00    +0.000 NA
ATOM      2  C   UNL     1       1.744   8.447  18.038  0.00  0.00    +0.000 C 
ATOM      3  C   UNL     1       3.105   7.823  17.865  0.00  0.00    +0.000 C 
ATOM      4  C   UNL     1       2.870   6.434  18.361  0.00  0.00    +0.000 A 
ATOM      5  N   UNL     1       2.926   5.488  17.407  0.00  0.00    +0.000 NA
ATOM      6  C   UNL     1       2.558   4.271  17.783  0.00  0.00    +0.000 A 
ATOM      7  C   UNL     1       2.273   3.878  19.080  0.00  0.00    +0.000 A 
ATOM      8  C   UNL     1       2.038   2.520  19.354  0.00  0.00    +0.000 A 
ATOM      9  C   UNL     1       1.868   2.079  20.657  0.00  0.00    +0.000 A 
ATOM     10  C   UNL     1       1.885   3.009  21.688  0.00  0.00    +0.000 A 
ATOM     11  C   UNL     1       2.018   4.389  21.416  0.00  0.00    +0.000 A 
ATOM     12  C   UNL     1       2.218   4.878  20.092  0.00  0.00    +0.000 A 
ATOM     13  C   UNL     1       2.375   6.241  19.661  0.00  0.00    +0.000 A 
ATOM     14  C   UNL     1       1.974   7.532  20.416  0.00  0.00    +0.000 C 
ENDROOT
BRANCH   1  16
ATOM     15  O   UNL     1       1.375  11.105  20.248  0.00  0.00    +0.000 OA
ATOM     16  S   UNL     1       0.551   9.955  19.928  0.00  0.00    +0.000 S 
ATOM     17  O   UNL     1      -0.413   9.443  20.883  0.00  0.00    +0.000 OA
BRANCH  16  18
ATOM     18  C   UNL     1      -0.313  10.309  18.396  0.00  0.00    +0.000 C 
BRANCH  18  19
ATOM     19  C   UNL     1      -1.213  11.550  18.488  0.00  0.00    +0.000 C 
BRANCH  19  20
ATOM     20  N   UNL     1      -2.635  11.245  18.168  0.00  0.00    +0.000 NA
ATOM     21  C   UNL     1      -3.558  12.088  18.959  0.00  0.00    +0.000 C 
ATOM     22  C   UNL     1      -5.023  11.704  18.707  0.00  0.00    +0.000 C 
ATOM     23  C   UNL     1      -5.378  11.749  17.224  0.00  0.00    +0.000 C 
ATOM     24  C   UNL     1      -4.364  10.955  16.416  0.00  0.00    +0.000 C 
ATOM     25  C   UNL     1      -2.935  11.389  16.735  0.00  0.00    +0.000 C 
ENDBRANCH  19  20
ENDBRANCH  18  19
ENDBRANCH  16  18
ENDBRANCH   1  16
BRANCH   6  26
ATOM     26  O   UNL     1       2.440   3.435  16.721  0.00  0.00    +0.000 OA
ATOM     27  H   UNL     1       1.737   3.905  16.237  0.00  0.00    +0.000 HD
ENDBRANCH   6  26
TORSDOF 5
ENDMDL
MODEL 7
REMARK VINA RESULT:      -7.5      0.524      1.095
REMARK  Name = 
REMARK  5 active torsions:
REMARK  status: ('A' for Active; 'I' for Inactive)
REMARK    1  A    between atoms: S_2  and  C_4
REMARK    2  A    between atoms: S_2  and  N_12
REMARK    3  A    between atoms: C_4  and  C_5
REMARK    4  A    between atoms: C_5  and  N_6
REMARK    5  A    between atoms: C_17  and  O_18
REMARK                            x       y       z     vdW  Elec       q    Type
REMARK                         _______ _______ _______ _____ _____    ______ ____
ROOT
ATOM      1  N   UNL     1       5.636   5.545  16.764  0.00  0.00    +0.000 NA
ATOM      2  C   UNL     1       5.562   6.795  17.556  0.00  0.00    +0.000 C 
ATOM      3  C   UNL     1       4.205   7.397  17.295  0.00  0.00    +0.000 C 
ATOM      4  C   UNL     1       3.312   6.489  18.076  0.00  0.00    +0.000 A 
ATOM      5  N   UNL     1       2.746   7.061  19.153  0.00  0.00    +0.000 NA
ATOM      6  C   UNL     1       2.085   6.241  19.957  0.00  0.00    +0.000 A 
ATOM      7  C   UNL     1       1.812   4.907  19.704  0.00  0.00    +0.000 A 
ATOM      8  C   UNL     1       0.974   4.195  20.580  0.00  0.00    +0.000 A 
ATOM      9  C   UNL     1       0.588   2.896  20.290  0.00  0.00    +0.000 A 
ATOM     10  C   UNL     1       1.081   2.288  19.143  0.00  0.00    +0.000 A 
ATOM     11  C   UNL     1       2.005   2.957  18.309  0.00  0.00    +0.000 A 
ATOM     12  C   UNL     1       2.408   4.301  18.562  0.00  0.00    +0.000 A 
ATOM     13  C   UNL     1       3.326   5.110  17.807  0.00  0.00    +0.000 A 
ATOM     14  C   UNL     1       4.405   4.643  16.800  0.00  0.00    +0.000 C 
ENDROOT
BRANCH   1  16
ATOM     15  O   UNL     1       7.872   4.482  17.395  0.00  0.00    +0.000 OA
ATOM     16  S   UNL     1       7.174   5.063  16.263  0.00  0.00    +0.000 S 
ATOM     17  O   UNL     1       7.754   6.166  15.520  0.00  0.00    +0.000 OA
BRANCH  16  18
ATOM     18  C   UNL     1       6.808   3.741  15.108  0.00  0.00    +0.000 C 
BRANCH  18  19
ATOM     19  C   UNL     1       6.655   4.235  13.661  0.00  0.00    +0.000 C 
BRANCH  19  20
ATOM     20  N   UNL     1       5.843   3.305  12.827  0.00  0.00    +0.000 NA
ATOM     21  C   UNL     1       4.791   4.030  12.083  0.00  0.00    +0.000 C 
ATOM     22  C   UNL     1       3.887   3.062  11.304  0.00  0.00    +0.000 C 
ATOM     23  C   UNL     1       4.689   2.157  10.374  0.00  0.00    +0.000 C 
ATOM     24  C   UNL     1       5.825   1.493  11.136  0.00  0.00    +0.000 C 
ATOM     25  C   UNL     1       6.665   2.521  11.892  0.00  0.00    +0.000 C 
ENDBRANCH  19  20
ENDBRANCH  18  19
ENDBRANCH  16  18
ENDBRANCH   1  16
BRANCH   6  26
ATOM     26  O   UNL     1       1.732   6.853  21.115  0.00  0.00    +0.000 OA
ATOM     27  H   UNL     1       0.769   6.898  20.974  0.00  0.00    +0.000 HD
ENDBRANCH   6  26
TORSDOF 5
ENDMDL
MODEL 8
REMARK VINA RESULT:      -7.5      4.869      9.697
REMARK  Name = 
REMARK  5 active torsions:
REMARK  status: ('A' for Active; 'I' for Inactive)
REMARK    1  A    between atoms: S_2  and  C_4
REMARK    2  A    between atoms: S_2  and  N_12
REMARK    3  A    between atoms: C_4  and  C_5
REMARK    4  A    between atoms: C_5  and  N_6
REMARK    5  A    between atoms: C_17  and  O_18
REMARK                            x       y       z     vdW  Elec       q    Type
REMARK                         _______ _______ _______ _____ _____    ______ ____
ROOT
ATOM      1  N   UNL     1       1.743   8.767  18.913  0.00  0.00    +0.000 NA
ATOM      2  C   UNL     1       2.243   8.459  17.553  0.00  0.00    +0.000 C 
ATOM      3  C   UNL     1       3.614   7.853  17.719  0.00  0.00    +0.000 C 
ATOM      4  C   UNL     1       3.286   6.492  18.239  0.00  0.00    +0.000 A 
ATOM      5  N   UNL     1       3.555   5.492  17.381  0.00  0.00    +0.000 NA
ATOM      6  C   UNL     1       3.123   4.293  17.744  0.00  0.00    +0.000 A 
ATOM      7  C   UNL     1       2.566   3.972  18.971  0.00  0.00    +0.000 A 
ATOM      8  C   UNL     1       2.286   2.628  19.272  0.00  0.00    +0.000 A 
ATOM      9  C   UNL     1       1.840   2.263  20.533  0.00  0.00    +0.000 A 
ATOM     10  C   UNL     1       1.625   3.254  21.482  0.00  0.00    +0.000 A 
ATOM     11  C   UNL     1       1.804   4.617  21.159  0.00  0.00    +0.000 A 
ATOM     12  C   UNL     1       2.284   5.030  19.881  0.00  0.00    +0.000 A 
ATOM     13  C   UNL     1       2.521   6.368  19.410  0.00  0.00    +0.000 A 
ATOM     14  C   UNL     1       1.956   7.693  19.977  0.00  0.00    +0.000 C 
ENDROOT
BRANCH   1  16
ATOM     15  O   UNL     1      -0.349   9.915  18.003  0.00  0.00    +0.000 OA
ATOM     16  S   UNL     1       0.656  10.052  19.040  0.00  0.00    +0.000 S 
ATOM     17  O   UNL     1       1.435  11.269  19.163  0.00  0.00    +0.000 OA
BRANCH  16  18
ATOM     18  C   UNL     1      -0.137   9.734  20.617  0.00  0.00    +0.000 C 
BRANCH  18  19
ATOM     19  C   UNL     1       0.222  10.774  21.689  0.00  0.00    +0.000 C 
BRANCH  19  20
ATOM     20  N   UNL     1      -0.902  11.710  21.971  0.00  0.00    +0.000 NA
ATOM     21  C   UNL     1      -1.666  11.290  23.165  0.00  0.00    +0.000 C 
ATOM     22  C   UNL     1      -2.886  12.194  23.396  0.00  0.00    +0.000 C 
ATOM     23  C   UNL     1      -2.497  13.666  23.486  0.00  0.00    +0.000 C 
ATOM     24  C   UNL     1      -1.633  14.056  22.298  0.00  0.00    +0.000 C 
ATOM     25  C   UNL     1      -0.452  13.101  22.131  0.00  0.00    +0.000 C 
ENDBRANCH  19  20
ENDBRANCH  18  19
ENDBRANCH  16  18
ENDBRANCH   1  16
BRANCH   6  26
ATOM     26  O   UNL     1       3.245   3.392  16.737  0.00  0.00    +0.000 OA
ATOM     27  H   UNL     1       2.814   2.630  17.165  0.00  0.00    +0.000 HD
ENDBRANCH   6  26
TORSDOF 5
ENDMDL
MODEL 9
REMARK VINA RESULT:      -7.4      4.726      9.438
REMARK  Name = 
REMARK  5 active torsions:
REMARK  status: ('A' for Active; 'I' for Inactive)
REMARK    1  A    between atoms: S_2  and  C_4
REMARK    2  A    between atoms: S_2  and  N_12
REMARK    3  A    between atoms: C_4  and  C_5
REMARK    4  A    between atoms: C_5  and  N_6
REMARK    5  A    between atoms: C_17  and  O_18
REMARK                            x       y       z     vdW  Elec       q    Type
REMARK                         _______ _______ _______ _____ _____    ______ ____
ROOT
ATOM      1  N   UNL     1       1.819   8.761  18.792  0.00  0.00    +0.000 NA
ATOM      2  C   UNL     1       2.377   8.433  17.459  0.00  0.00    +0.000 C 
ATOM      3  C   UNL     1       3.725   7.802  17.695  0.00  0.00    +0.000 C 
ATOM      4  C   UNL     1       3.346   6.451  18.207  0.00  0.00    +0.000 A 
ATOM      5  N   UNL     1       3.635   5.440  17.369  0.00  0.00    +0.000 NA
ATOM      6  C   UNL     1       3.161   4.252  17.719  0.00  0.00    +0.000 A 
ATOM      7  C   UNL     1       2.540   3.951  18.920  0.00  0.00    +0.000 A 
ATOM      8  C   UNL     1       2.219   2.616  19.215  0.00  0.00    +0.000 A 
ATOM      9  C   UNL     1       1.706   2.269  20.456  0.00  0.00    +0.000 A 
ATOM     10  C   UNL     1       1.466   3.270  21.388  0.00  0.00    +0.000 A 
ATOM     11  C   UNL     1       1.688   4.628  21.065  0.00  0.00    +0.000 A 
ATOM     12  C   UNL     1       2.237   5.021  19.809  0.00  0.00    +0.000 A 
ATOM     13  C   UNL     1       2.523   6.350  19.341  0.00  0.00    +0.000 A 
ATOM     14  C   UNL     1       1.959   7.691  19.871  0.00  0.00    +0.000 C 
ENDROOT
BRANCH   1  16
ATOM     15  O   UNL     1      -0.308   9.854  17.892  0.00  0.00    +0.000 OA
ATOM     16  S   UNL     1       0.753  10.069  18.859  0.00  0.00    +0.000 S 
ATOM     17  O   UNL     1       1.550  11.280  18.830  0.00  0.00    +0.000 OA
BRANCH  16  18
ATOM     18  C   UNL     1       0.043   9.905  20.498  0.00  0.00    +0.000 C 
BRANCH  18  19
ATOM     19  C   UNL     1       0.449  11.046  21.443  0.00  0.00    +0.000 C 
BRANCH  19  20
ATOM     20  N   UNL     1      -0.710  11.894  21.840  0.00  0.00    +0.000 NA
ATOM     21  C   UNL     1      -1.586  12.184  20.685  0.00  0.00    +0.000 C 
ATOM     22  C   UNL     1      -2.723  13.142  21.070  0.00  0.00    +0.000 C 
ATOM     23  C   UNL     1      -3.533  12.620  22.253  0.00  0.00    +0.000 C 
ATOM     24  C   UNL     1      -2.608  12.238  23.397  0.00  0.00    +0.000 C 
ATOM     25  C   UNL     1      -1.501  11.296  22.928  0.00  0.00    +0.000 C 
ENDBRANCH  19  20
ENDBRANCH  18  19
ENDBRANCH  16  18
ENDBRANCH   1  16
BRANCH   6  26
ATOM     26  O   UNL     1       3.313   3.342  16.725  0.00  0.00    +0.000 OA
ATOM     27  H   UNL     1       2.555   3.598  16.169  0.00  0.00    +0.000 HD
ENDBRANCH   6  26
TORSDOF 5
ENDMDL
