MODEL 1
REMARK VINA RESULT:      -7.8      0.000      0.000
REMARK  Name = 
REMARK  4 active torsions:
REMARK  status: ('A' for Active; 'I' for Inactive)
REMARK    1  A    between atoms: C_2  and  C_3
REMARK    2  A    between atoms: C_4  and  C_5
REMARK    3  A    between atoms: C_5  and  C_7
REMARK    4  A    between atoms: N_17  and  C_18
REMARK                            x       y       z     vdW  Elec       q    Type
REMARK                         _______ _______ _______ _____ _____    ______ ____
ROOT
ATOM      1  C   UNL     1       6.374   4.448  15.713  0.00  0.00    +0.000 C 
ATOM      2  C   UNL     1       7.021   4.883  16.807  0.00  0.00    +0.000 C 
ENDROOT
BRANCH   1   4
ATOM      3  O   UNL     1       7.834   5.418  14.106  0.00  0.00    +0.000 OA
ATOM      4  C   UNL     1       6.990   4.576  14.361  0.00  0.00    +0.000 C 
ATOM      5  N   UNL     1       6.452   3.688  13.457  0.00  0.00    +0.000 N 
ATOM      6  H   UNL     1       5.671   3.127  13.767  0.00  0.00    +0.000 HD
BRANCH   5   7
ATOM      7  C   UNL     1       6.699   3.719  12.011  0.00  0.00    +0.000 C 
ATOM      8  C   UNL     1       7.155   2.382  11.417  0.00  0.00    +0.000 C 
ATOM      9  C   UNL     1       6.089   1.307  11.602  0.00  0.00    +0.000 C 
ATOM     10  C   UNL     1       4.786   1.717  10.921  0.00  0.00    +0.000 C 
ATOM     11  C   UNL     1       4.309   3.099  11.365  0.00  0.00    +0.000 C 
ATOM     12  C   UNL     1       5.411   4.162  11.283  0.00  0.00    +0.000 C 
ENDBRANCH   5   7
ENDBRANCH   1   4
BRANCH   2  13
ATOM     13  C   UNL     1       6.297   4.897  18.117  0.00  0.00    +0.000 C 
ATOM     14  O   UNL     1       6.902   4.629  19.151  0.00  0.00    +0.000 OA
BRANCH  13  15
ATOM     15  C   UNL     1       4.835   5.238  18.125  0.00  0.00    +0.000 A 
ATOM     16  C   UNL     1       4.499   6.593  17.952  0.00  0.00    +0.000 A 
ATOM     17  C   UNL     1       3.170   7.010  17.965  0.00  0.00    +0.000 A 
ATOM     18  C   UNL     1       2.158   6.079  18.148  0.00  0.00    +0.000 A 
ATOM     19  C   UNL     1       2.454   4.719  18.331  0.00  0.00    +0.000 A 
ATOM     20  C   UNL     1       3.803   4.287  18.362  0.00  0.00    +0.000 A 
ATOM     21  C   UNL     1       4.095   2.807  18.573  0.00  0.00    +0.000 C 
ATOM     22  C   UNL     1       2.919   2.003  19.139  0.00  0.00    +0.000 C 
ATOM     23  C   UNL     1       1.647   2.312  18.368  0.00  0.00    +0.000 C 
ATOM     24  C   UNL     1       1.289   3.780  18.555  0.00  0.00    +0.000 C 
ENDBRANCH  13  15
ENDBRANCH   2  13
TORSDOF 4
ENDMDL
MODEL 2
REMARK VINA RESULT:      -7.7      4.693      7.026
REMARK  Name = 
REMARK  4 active torsions:
REMARK  status: ('A' for Active; 'I' for Inactive)
REMARK    1  A    between atoms: C_2  and  C_3
REMARK    2  A    between atoms: C_4  and  C_5
REMARK    3  A    between atoms: C_5  and  C_7
REMARK    4  A    between atoms: N_17  and  C_18
REMARK                            x       y       z     vdW  Elec       q    Type
REMARK                         _______ _______ _______ _____ _____    ______ ____
ROOT
ATOM      1  C   UNL     1       7.513   8.237  17.375  0.00  0.00    +0.000 C 
ATOM      2  C   UNL     1       7.017   7.002  17.550  0.00  0.00    +0.000 C 
ENDROOT
BRANCH   1   4
ATOM      3  O   UNL     1       8.962   8.166  19.259  0.00  0.00    +0.000 OA
ATOM      4  C   UNL     1       8.466   8.824  18.360  0.00  0.00    +0.000 C 
ATOM      5  N   UNL     1       8.656  10.173  18.163  0.00  0.00    +0.000 N 
ATOM      6  H   UNL     1       8.090  10.622  17.457  0.00  0.00    +0.000 HD
BRANCH   5   7
ATOM      7  C   UNL     1       9.363  11.060  19.093  0.00  0.00    +0.000 C 
ATOM      8  C   UNL     1      10.871  11.166  18.848  0.00  0.00    +0.000 C 
ATOM      9  C   UNL     1      11.164  11.746  17.468  0.00  0.00    +0.000 C 
ATOM     10  C   UNL     1      10.554  13.138  17.328  0.00  0.00    +0.000 C 
ATOM     11  C   UNL     1       9.064  13.157  17.670  0.00  0.00    +0.000 C 
ATOM     12  C   UNL     1       8.754  12.477  19.008  0.00  0.00    +0.000 C 
ENDBRANCH   5   7
ENDBRANCH   1   4
BRANCH   2  13
ATOM     13  C   UNL     1       5.934   6.522  16.636  0.00  0.00    +0.000 C 
ATOM     14  O   UNL     1       6.198   6.242  15.469  0.00  0.00    +0.000 OA
BRANCH  13  15
ATOM     15  C   UNL     1       4.540   6.398  17.178  0.00  0.00    +0.000 A 
ATOM     16  C   UNL     1       3.874   7.596  17.496  0.00  0.00    +0.000 A 
ATOM     17  C   UNL     1       2.586   7.582  18.024  0.00  0.00    +0.000 A 
ATOM     18  C   UNL     1       1.941   6.372  18.239  0.00  0.00    +0.000 A 
ATOM     19  C   UNL     1       2.576   5.156  17.941  0.00  0.00    +0.000 A 
ATOM     20  C   UNL     1       3.902   5.154  17.444  0.00  0.00    +0.000 A 
ATOM     21  C   UNL     1       4.570   3.818  17.141  0.00  0.00    +0.000 C 
ATOM     22  C   UNL     1       3.890   2.607  17.791  0.00  0.00    +0.000 C 
ATOM     23  C   UNL     1       2.390   2.654  17.555  0.00  0.00    +0.000 C 
ATOM     24  C   UNL     1       1.811   3.885  18.239  0.00  0.00    +0.000 C 
ENDBRANCH  13  15
ENDBRANCH   2  13
TORSDOF 4
ENDMDL
MODEL 3
REMARK VINA RESULT:      -7.7      1.134      2.397
REMARK  Name = 
REMARK  4 active torsions:
REMARK  status: ('A' for Active; 'I' for Inactive)
REMARK    1  A    between atoms: C_2  and  C_3
REMARK    2  A    between atoms: C_4  and  C_5
REMARK    3  A    between atoms: C_5  and  C_7
REMARK    4  A    between atoms: N_17  and  C_18
REMARK                            x       y       z     vdW  Elec       q    Type
REMARK                         _______ _______ _______ _____ _____    ______ ____
ROOT
ATOM      1  C   UNL     1       6.782   4.143  15.886  0.00  0.00    +0.000 C 
ATOM      2  C   UNL     1       5.979   4.832  16.713  0.00  0.00    +0.000 C 
ENDROOT
BRANCH   1   4
ATOM      3  O   UNL     1       7.578   5.555  14.146  0.00  0.00    +0.000 OA
ATOM      4  C   UNL     1       6.951   4.559  14.464  0.00  0.00    +0.000 C 
ATOM      5  N   UNL     1       6.276   3.732  13.595  0.00  0.00    +0.000 N 
ATOM      6  H   UNL     1       5.693   3.013  13.998  0.00  0.00    +0.000 HD
BRANCH   5   7
ATOM      7  C   UNL     1       6.079   4.006  12.167  0.00  0.00    +0.000 C 
ATOM      8  C   UNL     1       7.320   3.775  11.299  0.00  0.00    +0.000 C 
ATOM      9  C   UNL     1       7.764   2.317  11.352  0.00  0.00    +0.000 C 
ATOM     10  C   UNL     1       6.652   1.397  10.857  0.00  0.00    +0.000 C 
ATOM     11  C   UNL     1       5.331   1.636  11.588  0.00  0.00    +0.000 C 
ATOM     12  C   UNL     1       4.936   3.117  11.631  0.00  0.00    +0.000 C 
ENDBRANCH   5   7
ENDBRANCH   1   4
BRANCH   2  13
ATOM     13  C   UNL     1       5.702   4.282  18.076  0.00  0.00    +0.000 C 
ATOM     14  O   UNL     1       6.578   4.311  18.937  0.00  0.00    +0.000 OA
BRANCH  13  15
ATOM     15  C   UNL     1       4.346   3.700  18.353  0.00  0.00    +0.000 A 
ATOM     16  C   UNL     1       4.083   2.422  17.828  0.00  0.00    +0.000 A 
ATOM     17  C   UNL     1       2.848   1.809  18.015  0.00  0.00    +0.000 A 
ATOM     18  C   UNL     1       1.856   2.462  18.733  0.00  0.00    +0.000 A 
ATOM     19  C   UNL     1       2.077   3.742  19.267  0.00  0.00    +0.000 A 
ATOM     20  C   UNL     1       3.315   4.395  19.048  0.00  0.00    +0.000 A 
ATOM     21  C   UNL     1       3.523   5.787  19.629  0.00  0.00    +0.000 C 
ATOM     22  C   UNL     1       2.230   6.503  20.038  0.00  0.00    +0.000 C 
ATOM     23  C   UNL     1       1.352   5.578  20.861  0.00  0.00    +0.000 C 
ATOM     24  C   UNL     1       0.928   4.392  20.006  0.00  0.00    +0.000 C 
ENDBRANCH  13  15
ENDBRANCH   2  13
TORSDOF 4
ENDMDL
MODEL 4
REMARK VINA RESULT:      -7.6      5.418      7.980
REMARK  Name = 
REMARK  4 active torsions:
REMARK  status: ('A' for Active; 'I' for Inactive)
REMARK    1  A    between atoms: C_2  and  C_3
REMARK    2  A    between atoms: C_4  and  C_5
REMARK    3  A    between atoms: C_5  and  C_7
REMARK    4  A    between atoms: N_17  and  C_18
REMARK                            x       y       z     vdW  Elec       q    Type
REMARK                         _______ _______ _______ _____ _____    ______ ____
ROOT
ATOM      1  C   UNL     1       8.281   8.870  18.438  0.00  0.00    +0.000 C 
ATOM      2  C   UNL     1       7.730   7.982  17.595  0.00  0.00    +0.000 C 
ENDROOT
BRANCH   1   4
ATOM      3  O   UNL     1       7.831  10.929  17.338  0.00  0.00    +0.000 OA
ATOM      4  C   UNL     1       8.612  10.251  17.983  0.00  0.00    +0.000 C 
ATOM      5  N   UNL     1       9.894  10.619  18.323  0.00  0.00    +0.000 N 
ATOM      6  H   UNL     1      10.480   9.916  18.751  0.00  0.00    +0.000 HD
BRANCH   5   7
ATOM      7  C   UNL     1      10.574  11.822  17.831  0.00  0.00    +0.000 C 
ATOM      8  C   UNL     1       9.871  13.137  18.184  0.00  0.00    +0.000 C 
ATOM      9  C   UNL     1       9.794  13.331  19.695  0.00  0.00    +0.000 C 
ATOM     10  C   UNL     1      11.191  13.352  20.307  0.00  0.00    +0.000 C 
ATOM     11  C   UNL     1      12.017  12.128  19.913  0.00  0.00    +0.000 C 
ATOM     12  C   UNL     1      12.008  11.867  18.403  0.00  0.00    +0.000 C 
ENDBRANCH   5   7
ENDBRANCH   1   4
BRANCH   2  13
ATOM     13  C   UNL     1       7.577   6.561  18.041  0.00  0.00    +0.000 C 
ATOM     14  O   UNL     1       8.164   6.170  19.046  0.00  0.00    +0.000 OA
BRANCH  13  15
ATOM     15  C   UNL     1       6.701   5.647  17.234  0.00  0.00    +0.000 A 
ATOM     16  C   UNL     1       7.164   5.292  15.954  0.00  0.00    +0.000 A 
ATOM     17  C   UNL     1       6.412   4.465  15.124  0.00  0.00    +0.000 A 
ATOM     18  C   UNL     1       5.189   3.976  15.561  0.00  0.00    +0.000 A 
ATOM     19  C   UNL     1       4.691   4.314  16.829  0.00  0.00    +0.000 A 
ATOM     20  C   UNL     1       5.425   5.189  17.667  0.00  0.00    +0.000 A 
ATOM     21  C   UNL     1       4.855   5.547  19.034  0.00  0.00    +0.000 C 
ATOM     22  C   UNL     1       3.358   5.253  19.192  0.00  0.00    +0.000 C 
ATOM     23  C   UNL     1       3.040   3.852  18.700  0.00  0.00    +0.000 C 
ATOM     24  C   UNL     1       3.334   3.763  17.209  0.00  0.00    +0.000 C 
ENDBRANCH  13  15
ENDBRANCH   2  13
TORSDOF 4
ENDMDL
MODEL 5
REMARK VINA RESULT:      -7.5      4.888      7.885
REMARK  Name = 
REMARK  4 active torsions:
REMARK  status: ('A' for Active; 'I' for Inactive)
REMARK    1  A    between atoms: C_2  and  C_3
REMARK    2  A    between atoms: C_4  and  C_5
REMARK    3  A    between atoms: C_5  and  C_7
REMARK    4  A    between atoms: N_17  and  C_18
REMARK                            x       y       z     vdW  Elec       q    Type
REMARK                         _______ _______ _______ _____ _____    ______ ____
ROOT
ATOM      1  C   UNL     1       2.898   7.334  18.210  0.00  0.00    +0.000 C 
ATOM      2  C   UNL     1       2.100   8.130  18.939  0.00  0.00    +0.000 C 
ENDROOT
BRANCH   1   4
ATOM      3  O   UNL     1       4.722   5.871  18.640  0.00  0.00    +0.000 OA
ATOM      4  C   UNL     1       3.547   6.138  18.820  0.00  0.00    +0.000 C 
ATOM      5  N   UNL     1       2.657   5.371  19.538  0.00  0.00    +0.000 N 
ATOM      6  H   UNL     1       1.684   5.639  19.506  0.00  0.00    +0.000 HD
BRANCH   5   7
ATOM      7  C   UNL     1       2.948   4.034  20.069  0.00  0.00    +0.000 C 
ATOM      8  C   UNL     1       1.820   3.426  20.908  0.00  0.00    +0.000 C 
ATOM      9  C   UNL     1       0.554   3.242  20.077  0.00  0.00    +0.000 C 
ATOM     10  C   UNL     1       0.820   2.322  18.888  0.00  0.00    +0.000 C 
ATOM     11  C   UNL     1       2.011   2.785  18.050  0.00  0.00    +0.000 C 
ATOM     12  C   UNL     1       3.255   3.076  18.898  0.00  0.00    +0.000 C 
ENDBRANCH   5   7
ENDBRANCH   1   4
BRANCH   2  13
ATOM     13  C   UNL     1       1.612   9.411  18.337  0.00  0.00    +0.000 C 
ATOM     14  O   UNL     1       2.047   9.779  17.249  0.00  0.00    +0.000 OA
BRANCH  13  15
ATOM     15  C   UNL     1       0.596  10.217  19.093  0.00  0.00    +0.000 A 
ATOM     16  C   UNL     1       0.987  10.715  20.349  0.00  0.00    +0.000 A 
ATOM     17  C   UNL     1       0.107  11.456  21.133  0.00  0.00    +0.000 A 
ATOM     18  C   UNL     1      -1.176  11.715  20.672  0.00  0.00    +0.000 A 
ATOM     19  C   UNL     1      -1.606  11.229  19.426  0.00  0.00    +0.000 A 
ATOM     20  C   UNL     1      -0.735  10.438  18.638  0.00  0.00    +0.000 A 
ATOM     21  C   UNL     1      -1.232   9.914  17.296  0.00  0.00    +0.000 C 
ATOM     22  C   UNL     1      -2.755   9.953  17.126  0.00  0.00    +0.000 C 
ATOM     23  C   UNL     1      -3.299  11.310  17.537  0.00  0.00    +0.000 C 
ATOM     24  C   UNL     1      -3.031  11.532  19.020  0.00  0.00    +0.000 C 
ENDBRANCH  13  15
ENDBRANCH   2  13
TORSDOF 4
ENDMDL
MODEL 6
REMARK VINA RESULT:      -7.5      4.539      7.694
REMARK  Name = 
REMARK  4 active torsions:
REMARK  status: ('A' for Active; 'I' for Inactive)
REMARK    1  A    between atoms: C_2  and  C_3
REMARK    2  A    between atoms: C_4  and  C_5
REMARK    3  A    between atoms: C_5  and  C_7
REMARK    4  A    between atoms: N_17  and  C_18
REMARK                            x       y       z     vdW  Elec       q    Type
REMARK                         _______ _______ _______ _____ _____    ______ ____
ROOT
ATOM      1  C   UNL     1       3.301   7.035  17.875  0.00  0.00    +0.000 C 
ATOM      2  C   UNL     1       2.050   7.419  18.178  0.00  0.00    +0.000 C 
ENDROOT
BRANCH   1   4
ATOM      3  O   UNL     1       4.602   5.176  17.166  0.00  0.00    +0.000 OA
ATOM      4  C   UNL     1       3.666   5.590  17.827  0.00  0.00    +0.000 C 
ATOM      5  N   UNL     1       2.796   4.808  18.553  0.00  0.00    +0.000 N 
ATOM      6  H   UNL     1       1.989   5.264  18.955  0.00  0.00    +0.000 HD
BRANCH   5   7
ATOM      7  C   UNL     1       2.769   3.341  18.522  0.00  0.00    +0.000 C 
ATOM      8  C   UNL     1       3.535   2.668  19.665  0.00  0.00    +0.000 C 
ATOM      9  C   UNL     1       2.935   3.034  21.019  0.00  0.00    +0.000 C 
ATOM     10  C   UNL     1       1.474   2.600  21.096  0.00  0.00    +0.000 C 
ATOM     11  C   UNL     1       0.648   3.130  19.925  0.00  0.00    +0.000 C 
ATOM     12  C   UNL     1       1.303   2.858  18.566  0.00  0.00    +0.000 C 
ENDBRANCH   5   7
ENDBRANCH   1   4
BRANCH   2  13
ATOM     13  C   UNL     1       1.771   8.874  18.386  0.00  0.00    +0.000 C 
ATOM     14  O   UNL     1       2.076   9.685  17.515  0.00  0.00    +0.000 OA
BRANCH  13  15
ATOM     15  C   UNL     1       1.123   9.303  19.670  0.00  0.00    +0.000 A 
ATOM     16  C   UNL     1       1.513   8.622  20.837  0.00  0.00    +0.000 A 
ATOM     17  C   UNL     1       0.952   8.935  22.072  0.00  0.00    +0.000 A 
ATOM     18  C   UNL     1      -0.004   9.937  22.161  0.00  0.00    +0.000 A 
ATOM     19  C   UNL     1      -0.425  10.635  21.018  0.00  0.00    +0.000 A 
ATOM     20  C   UNL     1       0.107  10.297  19.749  0.00  0.00    +0.000 A 
ATOM     21  C   UNL     1      -0.377  11.063  18.523  0.00  0.00    +0.000 C 
ATOM     22  C   UNL     1      -1.684  11.836  18.734  0.00  0.00    +0.000 C 
ATOM     23  C   UNL     1      -1.621  12.639  20.022  0.00  0.00    +0.000 C 
ATOM     24  C   UNL     1      -1.495  11.688  21.204  0.00  0.00    +0.000 C 
ENDBRANCH  13  15
ENDBRANCH   2  13
TORSDOF 4
ENDMDL
MODEL 7
REMARK VINA RESULT:      -7.4      5.131      7.379
REMARK  Name = 
REMARK  4 active torsions:
REMARK  status: ('A' for Active; 'I' for Inactive)
REMARK    1  A    between atoms: C_2  and  C_3
REMARK    2  A    between atoms: C_4  and  C_5
REMARK    3  A    between atoms: C_5  and  C_7
REMARK    4  A    between atoms: N_17  and  C_18
REMARK                            x       y       z     vdW  Elec       q    Type
REMARK                         _______ _______ _______ _____ _____    ______ ____
ROOT
ATOM      1  C   UNL     1       7.961   8.753  17.639  0.00  0.00    +0.000 C 
ATOM      2  C   UNL     1       7.689   7.482  17.976  0.00  0.00    +0.000 C 
ENDROOT
BRANCH   1   4
ATOM      3  O   UNL     1       9.092   9.272  19.666  0.00  0.00    +0.000 OA
ATOM      4  C   UNL     1       8.714   9.644  18.568  0.00  0.00    +0.000 C 
ATOM      5  N   UNL     1       8.864  10.916  18.064  0.00  0.00    +0.000 N 
ATOM      6  H   UNL     1       8.396  11.127  17.194  0.00  0.00    +0.000 HD
BRANCH   5   7
ATOM      7  C   UNL     1       9.367  12.063  18.829  0.00  0.00    +0.000 C 
ATOM      8  C   UNL     1      10.719  11.827  19.511  0.00  0.00    +0.000 C 
ATOM      9  C   UNL     1      11.810  11.544  18.483  0.00  0.00    +0.000 C 
ATOM     10  C   UNL     1      11.955  12.714  17.515  0.00  0.00    +0.000 C 
ATOM     11  C   UNL     1      10.626  13.102  16.868  0.00  0.00    +0.000 C 
ATOM     12  C   UNL     1       9.499  13.282  17.892  0.00  0.00    +0.000 C 
ENDBRANCH   5   7
ENDBRANCH   1   4
BRANCH   2  13
ATOM     13  C   UNL     1       6.784   6.679  17.095  0.00  0.00    +0.000 C 
ATOM     14  O   UNL     1       7.240   6.112  16.105  0.00  0.00    +0.000 OA
BRANCH  13  15
ATOM     15  C   UNL     1       5.328   6.592  17.452  0.00  0.00    +0.000 A 
ATOM     16  C   UNL     1       4.542   7.729  17.193  0.00  0.00    +0.000 A 
ATOM     17  C   UNL     1       3.186   7.751  17.507  0.00  0.00    +0.000 A 
ATOM     18  C   UNL     1       2.594   6.635  18.082  0.00  0.00    +0.000 A 
ATOM     19  C   UNL     1       3.347   5.484  18.362  0.00  0.00    +0.000 A 
ATOM     20  C   UNL     1       4.736   5.463  18.086  0.00  0.00    +0.000 A 
ATOM     21  C   UNL     1       5.531   4.205  18.411  0.00  0.00    +0.000 C 
ATOM     22  C   UNL     1       4.828   3.244  19.379  0.00  0.00    +0.000 C 
ATOM     23  C   UNL     1       3.391   3.014  18.945  0.00  0.00    +0.000 C 
ATOM     24  C   UNL     1       2.626   4.328  19.020  0.00  0.00    +0.000 C 
ENDBRANCH  13  15
ENDBRANCH   2  13
TORSDOF 4
ENDMDL
MODEL 8
REMARK VINA RESULT:      -7.3      4.970      7.512
REMARK  Name = 
REMARK  4 active torsions:
REMARK  status: ('A' for Active; 'I' for Inactive)
REMARK    1  A    between atoms: C_2  and  C_3
REMARK    2  A    between atoms: C_4  and  C_5
REMARK    3  A    between atoms: C_5  and  C_7
REMARK    4  A    between atoms: N_17  and  C_18
REMARK                            x       y       z     vdW  Elec       q    Type
REMARK                         _______ _______ _______ _____ _____    ______ ____
ROOT
ATOM      1  C   UNL     1       2.364   7.694  18.090  0.00  0.00    +0.000 C 
ATOM      2  C   UNL     1       1.676   8.554  18.859  0.00  0.00    +0.000 C 
ENDROOT
BRANCH   1   4
ATOM      3  O   UNL     1       2.371   5.932  19.687  0.00  0.00    +0.000 OA
ATOM      4  C   UNL     1       2.751   6.350  18.606  0.00  0.00    +0.000 C 
ATOM      5  N   UNL     1       3.614   5.694  17.758  0.00  0.00    +0.000 N 
ATOM      6  H   UNL     1       3.947   6.203  16.952  0.00  0.00    +0.000 HD
BRANCH   5   7
ATOM      7  C   UNL     1       4.331   4.457  18.090  0.00  0.00    +0.000 C 
ATOM      8  C   UNL     1       4.743   3.617  16.877  0.00  0.00    +0.000 C 
ATOM      9  C   UNL     1       5.703   4.387  15.976  0.00  0.00    +0.000 C 
ATOM     10  C   UNL     1       6.963   4.779  16.742  0.00  0.00    +0.000 C 
ATOM     11  C   UNL     1       6.648   5.524  18.038  0.00  0.00    +0.000 C 
ATOM     12  C   UNL     1       5.601   4.806  18.896  0.00  0.00    +0.000 C 
ENDBRANCH   5   7
ENDBRANCH   1   4
BRANCH   2  13
ATOM     13  C   UNL     1       1.463   9.951  18.368  0.00  0.00    +0.000 C 
ATOM     14  O   UNL     1       2.165  10.394  17.462  0.00  0.00    +0.000 OA
BRANCH  13  15
ATOM     15  C   UNL     1       0.385  10.779  19.006  0.00  0.00    +0.000 A 
ATOM     16  C   UNL     1       0.744  11.517  20.149  0.00  0.00    +0.000 A 
ATOM     17  C   UNL     1      -0.191  12.298  20.821  0.00  0.00    +0.000 A 
ATOM     18  C   UNL     1      -1.499  12.358  20.361  0.00  0.00    +0.000 A 
ATOM     19  C   UNL     1      -1.897  11.630  19.228  0.00  0.00    +0.000 A 
ATOM     20  C   UNL     1      -0.966  10.798  18.559  0.00  0.00    +0.000 A 
ATOM     21  C   UNL     1      -1.429  10.011  17.339  0.00  0.00    +0.000 C 
ATOM     22  C   UNL     1      -2.951   9.883  17.208  0.00  0.00    +0.000 C 
ATOM     23  C   UNL     1      -3.614  11.235  17.401  0.00  0.00    +0.000 C 
ATOM     24  C   UNL     1      -3.350  11.729  18.817  0.00  0.00    +0.000 C 
ENDBRANCH  13  15
ENDBRANCH   2  13
TORSDOF 4
ENDMDL
MODEL 9
REMARK VINA RESULT:      -7.2      5.054      7.658
REMARK  Name = 
REMARK  4 active torsions:
REMARK  status: ('A' for Active; 'I' for Inactive)
REMARK    1  A    between atoms: C_2  and  C_3
REMARK    2  A    between atoms: C_4  and  C_5
REMARK    3  A    between atoms: C_5  and  C_7
REMARK    4  A    between atoms: N_17  and  C_18
REMARK                            x       y       z     vdW  Elec       q    Type
REMARK                         _______ _______ _______ _____ _____    ______ ____
ROOT
ATOM      1  C   UNL     1       8.396   8.087  18.233  0.00  0.00    +0.000 C 
ATOM      2  C   UNL     1       7.301   7.328  18.400  0.00  0.00    +0.000 C 
ENDROOT
BRANCH   1   4
ATOM      3  O   UNL     1       7.488  10.051  17.247  0.00  0.00    +0.000 OA
ATOM      4  C   UNL     1       8.280   9.560  18.033  0.00  0.00    +0.000 C 
ATOM      5  N   UNL     1       9.198  10.262  18.781  0.00  0.00    +0.000 N 
ATOM      6  H   UNL     1       9.880   9.727  19.299  0.00  0.00    +0.000 HD
BRANCH   5   7
ATOM      7  C   UNL     1       9.469  11.697  18.635  0.00  0.00    +0.000 C 
ATOM      8  C   UNL     1       9.650  12.445  19.960  0.00  0.00    +0.000 C 
ATOM      9  C   UNL     1      10.847  11.905  20.737  0.00  0.00    +0.000 C 
ATOM     10  C   UNL     1      12.129  12.050  19.922  0.00  0.00    +0.000 C 
ATOM     11  C   UNL     1      12.005  11.433  18.529  0.00  0.00    +0.000 C 
ATOM     12  C   UNL     1      10.744  11.891  17.787  0.00  0.00    +0.000 C 
ENDBRANCH   5   7
ENDBRANCH   1   4
BRANCH   2  13
ATOM     13  C   UNL     1       7.451   5.839  18.422  0.00  0.00    +0.000 C 
ATOM     14  O   UNL     1       8.280   5.319  19.164  0.00  0.00    +0.000 OA
BRANCH  13  15
ATOM     15  C   UNL     1       6.574   5.016  17.523  0.00  0.00    +0.000 A 
ATOM     16  C   UNL     1       7.106   4.658  16.271  0.00  0.00    +0.000 A 
ATOM     17  C   UNL     1       6.360   3.914  15.361  0.00  0.00    +0.000 A 
ATOM     18  C   UNL     1       5.073   3.512  15.689  0.00  0.00    +0.000 A 
ATOM     19  C   UNL     1       4.505   3.856  16.926  0.00  0.00    +0.000 A 
ATOM     20  C   UNL     1       5.236   4.649  17.844  0.00  0.00    +0.000 A 
ATOM     21  C   UNL     1       4.590   5.017  19.174  0.00  0.00    +0.000 C 
ATOM     22  C   UNL     1       3.068   4.838  19.210  0.00  0.00    +0.000 C 
ATOM     23  C   UNL     1       2.682   3.479  18.652  0.00  0.00    +0.000 C 
ATOM     24  C   UNL     1       3.084   3.404  17.185  0.00  0.00    +0.000 C 
ENDBRANCH  13  15
ENDBRANCH   2  13
TORSDOF 4
ENDMDL
