MODEL 1
REMARK VINA RESULT:      -9.2      0.000      0.000
REMARK  Name = 
REMARK  11 active torsions:
REMARK  status: ('A' for Active; 'I' for Inactive)
REMARK    1  A    between atoms: C_1  and  C_2
REMARK    2  A    between atoms: C_2  and  C_3
REMARK    3  A    between atoms: C_2  and  N_4
REMARK    4  A    between atoms: C_2  and  C_5
REMARK    5  A    between atoms: N_7  and  C_8
REMARK    6  A    between atoms: C_8  and  C_9
REMARK    7  A    between atoms: C_8  and  C_19
REMARK    8  A    between atoms: C_9  and  C_10
REMARK    9  A    between atoms: N_23  and  C_24
REMARK   10  A    between atoms: C_24  and  C_25
REMARK   11  A    between atoms: C_25  and  C_26
REMARK                            x       y       z     vdW  Elec       q    Type
REMARK                         _______ _______ _______ _____ _____    ______ ____
ROOT
ATOM      1  C   UNL     1       2.227   6.700  18.556  0.00  0.00    +0.000 C 
ENDROOT
BRANCH   1   2
ATOM      2  C   UNL     1       1.778   7.579  19.694  0.00  0.00    +0.000 A 
ATOM      3  N   UNL     1       1.737   7.231  20.967  0.00  0.00    +0.000 NA
ATOM      4  N   UNL     1       1.113   8.227  21.671  0.00  0.00    +0.000 NA
ATOM      5  C   UNL     1       0.784   9.165  20.819  0.00  0.00    +0.000 A 
ATOM      6  N   UNL     1       1.259   8.852  19.579  0.00  0.00    +0.000 N 
BRANCH   6   7
ATOM      7  C   UNL     1       1.156   9.669  18.386  0.00  0.00    +0.000 C 
BRANCH   7   8
ATOM      8  C   UNL     1       1.077  11.180  18.638  0.00  0.00    +0.000 C 
BRANCH   8   9
ATOM      9  C   UNL     1      -0.336  11.651  18.784  0.00  0.00    +0.000 A 
ATOM     10  C   UNL     1      -0.775  12.695  19.573  0.00  0.00    +0.000 A 
ATOM     11  N   UNL     1      -2.133  12.808  19.419  0.00  0.00    +0.000 N 
ATOM     12  C   UNL     1      -2.593  11.856  18.548  0.00  0.00    +0.000 A 
ATOM     13  C   UNL     1      -3.894  11.593  18.099  0.00  0.00    +0.000 A 
ATOM     14  C   UNL     1      -4.074  10.538  17.198  0.00  0.00    +0.000 A 
ATOM     15  C   UNL     1      -2.991   9.779  16.763  0.00  0.00    +0.000 A 
ATOM     16  C   UNL     1      -1.697  10.054  17.219  0.00  0.00    +0.000 A 
ATOM     17  C   UNL     1      -1.490  11.110  18.129  0.00  0.00    +0.000 A 
ATOM     18  H   UNL     1      -2.716  13.493  19.883  0.00  0.00    +0.000 HD
ENDBRANCH   8   9
ENDBRANCH   7   8
ENDBRANCH   6   7
ENDBRANCH   1   2
BRANCH   1  21
ATOM     19  C   UNL     1       1.639   4.296  18.400  0.00  0.00    +0.000 C 
ATOM     20  O   UNL     1       1.139   4.465  17.281  0.00  0.00    +0.000 OA
ATOM     21  N   UNL     1       2.263   5.323  19.070  0.00  0.00    +0.000 N 
ATOM     22  H   UNL     1       2.452   5.176  20.057  0.00  0.00    +0.000 HD
BRANCH  19  24
ATOM     23  C   UNL     1       1.255   3.085  20.590  0.00  0.00    +0.000 C 
ATOM     24  C   UNL     1       1.600   2.911  19.110  0.00  0.00    +0.000 C 
ATOM     25  C   UNL     1       2.970   2.225  18.971  0.00  0.00    +0.000 C 
BRANCH  24  26
ATOM     26  N   UNL     1       0.563   2.053  18.484  0.00  0.00    +0.000 NA
ATOM     27  H   UNL     1       0.150   2.565  17.702  0.00  0.00    +0.000 HD
ATOM     28  H   UNL     1      -0.204   1.924  19.146  0.00  0.00    +0.000 HD
ENDBRANCH  24  26
ENDBRANCH  19  24
ENDBRANCH   1  21
BRANCH   1  29
ATOM     29  C   UNL     1       3.581   7.195  17.978  0.00  0.00    +0.000 C 
BRANCH  29  30
ATOM     30  C   UNL     1       4.648   6.136  17.978  0.00  0.00    +0.000 A 
ATOM     31  C   UNL     1       5.164   5.475  19.077  0.00  0.00    +0.000 A 
ATOM     32  N   UNL     1       6.229   4.722  18.658  0.00  0.00    +0.000 N 
ATOM     33  C   UNL     1       6.348   4.785  17.290  0.00  0.00    +0.000 A 
ATOM     34  C   UNL     1       7.272   4.176  16.433  0.00  0.00    +0.000 A 
ATOM     35  C   UNL     1       7.104   4.371  15.057  0.00  0.00    +0.000 A 
ATOM     36  C   UNL     1       6.057   5.144  14.565  0.00  0.00    +0.000 A 
ATOM     37  C   UNL     1       5.171   5.783  15.439  0.00  0.00    +0.000 A 
ATOM     38  C   UNL     1       5.322   5.611  16.829  0.00  0.00    +0.000 A 
ATOM     39  H   UNL     1       6.835   4.183  19.260  0.00  0.00    +0.000 HD
ENDBRANCH  29  30
ENDBRANCH   1  29
TORSDOF 9
ENDMDL
MODEL 2
REMARK VINA RESULT:      -9.1      0.895      1.506
REMARK  Name = 
REMARK  11 active torsions:
REMARK  status: ('A' for Active; 'I' for Inactive)
REMARK    1  A    between atoms: C_1  and  C_2
REMARK    2  A    between atoms: C_2  and  C_3
REMARK    3  A    between atoms: C_2  and  N_4
REMARK    4  A    between atoms: C_2  and  C_5
REMARK    5  A    between atoms: N_7  and  C_8
REMARK    6  A    between atoms: C_8  and  C_9
REMARK    7  A    between atoms: C_8  and  C_19
REMARK    8  A    between atoms: C_9  and  C_10
REMARK    9  A    between atoms: N_23  and  C_24
REMARK   10  A    between atoms: C_24  and  C_25
REMARK   11  A    between atoms: C_25  and  C_26
REMARK                            x       y       z     vdW  Elec       q    Type
REMARK                         _______ _______ _______ _____ _____    ______ ____
ROOT
ATOM      1  C   UNL     1       2.385   6.687  18.664  0.00  0.00    +0.000 C 
ENDROOT
BRANCH   1   2
ATOM      2  C   UNL     1       1.848   7.570  19.761  0.00  0.00    +0.000 A 
ATOM      3  N   UNL     1       1.832   7.275  21.048  0.00  0.00    +0.000 NA
ATOM      4  N   UNL     1       1.113   8.239  21.706  0.00  0.00    +0.000 NA
ATOM      5  C   UNL     1       0.703   9.103  20.812  0.00  0.00    +0.000 A 
ATOM      6  N   UNL     1       1.213   8.782  19.588  0.00  0.00    +0.000 N 
BRANCH   6   7
ATOM      7  C   UNL     1       1.041   9.531  18.360  0.00  0.00    +0.000 C 
BRANCH   7   8
ATOM      8  C   UNL     1       0.256  10.842  18.503  0.00  0.00    +0.000 C 
BRANCH   8   9
ATOM      9  C   UNL     1      -1.177  10.682  18.101  0.00  0.00    +0.000 A 
ATOM     10  C   UNL     1      -1.663   9.862  17.103  0.00  0.00    +0.000 A 
ATOM     11  N   UNL     1      -3.027   9.998  17.060  0.00  0.00    +0.000 N 
ATOM     12  C   UNL     1      -3.444  10.895  18.007  0.00  0.00    +0.000 A 
ATOM     13  C   UNL     1      -4.733  11.346  18.321  0.00  0.00    +0.000 A 
ATOM     14  C   UNL     1      -4.865  12.283  19.351  0.00  0.00    +0.000 A 
ATOM     15  C   UNL     1      -3.748  12.748  20.039  0.00  0.00    +0.000 A 
ATOM     16  C   UNL     1      -2.467  12.288  19.716  0.00  0.00    +0.000 A 
ATOM     17  C   UNL     1      -2.308  11.345  18.681  0.00  0.00    +0.000 A 
ATOM     18  H   UNL     1      -3.640   9.511  16.419  0.00  0.00    +0.000 HD
ENDBRANCH   8   9
ENDBRANCH   7   8
ENDBRANCH   6   7
ENDBRANCH   1   2
BRANCH   1  21
ATOM     19  C   UNL     1       1.675   4.318  18.485  0.00  0.00    +0.000 C 
ATOM     20  O   UNL     1       1.198   4.521  17.362  0.00  0.00    +0.000 OA
ATOM     21  N   UNL     1       2.343   5.306  19.169  0.00  0.00    +0.000 N 
ATOM     22  H   UNL     1       2.513   5.144  20.157  0.00  0.00    +0.000 HD
BRANCH  19  24
ATOM     23  C   UNL     1       1.137   3.112  20.645  0.00  0.00    +0.000 C 
ATOM     24  C   UNL     1       1.555   2.932  19.185  0.00  0.00    +0.000 C 
ATOM     25  C   UNL     1       2.909   2.205  19.116  0.00  0.00    +0.000 C 
BRANCH  24  26
ATOM     26  N   UNL     1       0.528   2.109  18.500  0.00  0.00    +0.000 NA
ATOM     27  H   UNL     1      -0.349   2.191  19.020  0.00  0.00    +0.000 HD
ATOM     28  H   UNL     1       0.785   1.124  18.578  0.00  0.00    +0.000 HD
ENDBRANCH  24  26
ENDBRANCH  19  24
ENDBRANCH   1  21
BRANCH   1  29
ATOM     29  C   UNL     1       3.799   7.156  18.222  0.00  0.00    +0.000 C 
BRANCH  29  30
ATOM     30  C   UNL     1       4.769   6.023  18.043  0.00  0.00    +0.000 A 
ATOM     31  C   UNL     1       5.313   5.228  19.034  0.00  0.00    +0.000 A 
ATOM     32  N   UNL     1       6.275   4.437  18.464  0.00  0.00    +0.000 N 
ATOM     33  C   UNL     1       6.291   4.613  17.101  0.00  0.00    +0.000 A 
ATOM     34  C   UNL     1       7.091   4.015  16.120  0.00  0.00    +0.000 A 
ATOM     35  C   UNL     1       6.832   4.344  14.785  0.00  0.00    +0.000 A 
ATOM     36  C   UNL     1       5.818   5.237  14.450  0.00  0.00    +0.000 A 
ATOM     37  C   UNL     1       5.059   5.860  15.447  0.00  0.00    +0.000 A 
ATOM     38  C   UNL     1       5.305   5.553  16.800  0.00  0.00    +0.000 A 
ATOM     39  H   UNL     1       6.880   3.801  18.965  0.00  0.00    +0.000 HD
ENDBRANCH  29  30
ENDBRANCH   1  29
TORSDOF 9
ENDMDL
MODEL 3
REMARK VINA RESULT:      -9.0      2.717      8.614
REMARK  Name = 
REMARK  11 active torsions:
REMARK  status: ('A' for Active; 'I' for Inactive)
REMARK    1  A    between atoms: C_1  and  C_2
REMARK    2  A    between atoms: C_2  and  C_3
REMARK    3  A    between atoms: C_2  and  N_4
REMARK    4  A    between atoms: C_2  and  C_5
REMARK    5  A    between atoms: N_7  and  C_8
REMARK    6  A    between atoms: C_8  and  C_9
REMARK    7  A    between atoms: C_8  and  C_19
REMARK    8  A    between atoms: C_9  and  C_10
REMARK    9  A    between atoms: N_23  and  C_24
REMARK   10  A    between atoms: C_24  and  C_25
REMARK   11  A    between atoms: C_25  and  C_26
REMARK                            x       y       z     vdW  Elec       q    Type
REMARK                         _______ _______ _______ _____ _____    ______ ____
ROOT
ATOM      1  C   UNL     1       3.590   5.407  18.980  0.00  0.00    +0.000 C 
ENDROOT
BRANCH   1   2
ATOM      2  C   UNL     1       3.104   3.991  18.805  0.00  0.00    +0.000 A 
ATOM      3  N   UNL     1       2.147   3.413  19.508  0.00  0.00    +0.000 NA
ATOM      4  N   UNL     1       2.111   2.083  19.182  0.00  0.00    +0.000 NA
ATOM      5  C   UNL     1       3.045   1.870  18.289  0.00  0.00    +0.000 A 
ATOM      6  N   UNL     1       3.638   3.051  17.949  0.00  0.00    +0.000 N 
BRANCH   6   7
ATOM      7  C   UNL     1       4.668   3.239  16.948  0.00  0.00    +0.000 C 
BRANCH   7   8
ATOM      8  C   UNL     1       4.374   4.329  15.909  0.00  0.00    +0.000 C 
BRANCH   8   9
ATOM      9  C   UNL     1       5.548   4.583  15.016  0.00  0.00    +0.000 A 
ATOM     10  C   UNL     1       6.618   5.413  15.284  0.00  0.00    +0.000 A 
ATOM     11  N   UNL     1       7.480   5.360  14.219  0.00  0.00    +0.000 N 
ATOM     12  C   UNL     1       6.994   4.516  13.256  0.00  0.00    +0.000 A 
ATOM     13  C   UNL     1       7.527   4.162  12.009  0.00  0.00    +0.000 A 
ATOM     14  C   UNL     1       6.800   3.265  11.219  0.00  0.00    +0.000 A 
ATOM     15  C   UNL     1       5.588   2.745  11.661  0.00  0.00    +0.000 A 
ATOM     16  C   UNL     1       5.068   3.107  12.909  0.00  0.00    +0.000 A 
ATOM     17  C   UNL     1       5.780   4.010  13.723  0.00  0.00    +0.000 A 
ATOM     18  H   UNL     1       8.350   5.873  14.148  0.00  0.00    +0.000 HD
ENDBRANCH   8   9
ENDBRANCH   7   8
ENDBRANCH   6   7
ENDBRANCH   1   2
BRANCH   1  21
ATOM     19  C   UNL     1       5.945   6.106  18.644  0.00  0.00    +0.000 C 
ATOM     20  O   UNL     1       5.596   6.988  17.851  0.00  0.00    +0.000 OA
ATOM     21  N   UNL     1       5.022   5.329  19.305  0.00  0.00    +0.000 N 
ATOM     22  H   UNL     1       5.373   4.494  19.764  0.00  0.00    +0.000 HD
BRANCH  19  24
ATOM     23  C   UNL     1       8.288   7.067  18.621  0.00  0.00    +0.000 C 
ATOM     24  C   UNL     1       7.447   5.831  18.950  0.00  0.00    +0.000 C 
ATOM     25  C   UNL     1       7.930   4.634  18.114  0.00  0.00    +0.000 C 
BRANCH  24  26
ATOM     26  N   UNL     1       7.619   5.517  20.390  0.00  0.00    +0.000 NA
ATOM     27  H   UNL     1       6.841   4.921  20.685  0.00  0.00    +0.000 HD
ATOM     28  H   UNL     1       7.509   6.375  20.933  0.00  0.00    +0.000 HD
ENDBRANCH  24  26
ENDBRANCH  19  24
ENDBRANCH   1  21
BRANCH   1  29
ATOM     29  C   UNL     1       2.740   6.153  20.044  0.00  0.00    +0.000 C 
BRANCH  29  30
ATOM     30  C   UNL     1       2.152   7.440  19.538  0.00  0.00    +0.000 A 
ATOM     31  C   UNL     1       2.234   7.943  18.253  0.00  0.00    +0.000 A 
ATOM     32  N   UNL     1       1.717   9.212  18.260  0.00  0.00    +0.000 N 
ATOM     33  C   UNL     1       1.191   9.505  19.495  0.00  0.00    +0.000 A 
ATOM     34  C   UNL     1       0.559  10.665  19.957  0.00  0.00    +0.000 A 
ATOM     35  C   UNL     1       0.058  10.652  21.264  0.00  0.00    +0.000 A 
ATOM     36  C   UNL     1       0.190   9.526  22.072  0.00  0.00    +0.000 A 
ATOM     37  C   UNL     1       0.866   8.392  21.608  0.00  0.00    +0.000 A 
ATOM     38  C   UNL     1       1.388   8.382  20.299  0.00  0.00    +0.000 A 
ATOM     39  H   UNL     1       1.706   9.842  17.470  0.00  0.00    +0.000 HD
ENDBRANCH  29  30
ENDBRANCH   1  29
TORSDOF 9
ENDMDL
MODEL 4
REMARK VINA RESULT:      -8.8      1.375      2.185
REMARK  Name = 
REMARK  11 active torsions:
REMARK  status: ('A' for Active; 'I' for Inactive)
REMARK    1  A    between atoms: C_1  and  C_2
REMARK    2  A    between atoms: C_2  and  C_3
REMARK    3  A    between atoms: C_2  and  N_4
REMARK    4  A    between atoms: C_2  and  C_5
REMARK    5  A    between atoms: N_7  and  C_8
REMARK    6  A    between atoms: C_8  and  C_9
REMARK    7  A    between atoms: C_8  and  C_19
REMARK    8  A    between atoms: C_9  and  C_10
REMARK    9  A    between atoms: N_23  and  C_24
REMARK   10  A    between atoms: C_24  and  C_25
REMARK   11  A    between atoms: C_25  and  C_26
REMARK                            x       y       z     vdW  Elec       q    Type
REMARK                         _______ _______ _______ _____ _____    ______ ____
ROOT
ATOM      1  C   UNL     1       2.574   6.898  18.087  0.00  0.00    +0.000 C 
ENDROOT
BRANCH   1   2
ATOM      2  C   UNL     1       2.024   7.580  19.312  0.00  0.00    +0.000 A 
ATOM      3  N   UNL     1       2.082   7.113  20.546  0.00  0.00    +0.000 NA
ATOM      4  N   UNL     1       1.325   7.922  21.353  0.00  0.00    +0.000 NA
ATOM      5  C   UNL     1       0.819   8.867  20.601  0.00  0.00    +0.000 A 
ATOM      6  N   UNL     1       1.298   8.753  19.329  0.00  0.00    +0.000 N 
BRANCH   6   7
ATOM      7  C   UNL     1       1.023   9.648  18.223  0.00  0.00    +0.000 C 
BRANCH   7   8
ATOM      8  C   UNL     1       0.173  10.875  18.576  0.00  0.00    +0.000 C 
BRANCH   8   9
ATOM      9  C   UNL     1      -1.252  10.712  18.147  0.00  0.00    +0.000 A 
ATOM     10  C   UNL     1      -1.715   9.892  17.137  0.00  0.00    +0.000 A 
ATOM     11  N   UNL     1      -3.079  10.024  17.069  0.00  0.00    +0.000 N 
ATOM     12  C   UNL     1      -3.517  10.917  18.011  0.00  0.00    +0.000 A 
ATOM     13  C   UNL     1      -4.814  11.362  18.301  0.00  0.00    +0.000 A 
ATOM     14  C   UNL     1      -4.969  12.296  19.331  0.00  0.00    +0.000 A 
ATOM     15  C   UNL     1      -3.867  12.763  20.042  0.00  0.00    +0.000 A 
ATOM     16  C   UNL     1      -2.577  12.309  19.741  0.00  0.00    +0.000 A 
ATOM     17  C   UNL     1      -2.395  11.369  18.707  0.00  0.00    +0.000 A 
ATOM     18  H   UNL     1      -3.678   9.536  16.416  0.00  0.00    +0.000 HD
ENDBRANCH   8   9
ENDBRANCH   7   8
ENDBRANCH   6   7
ENDBRANCH   1   2
BRANCH   1  21
ATOM     19  C   UNL     1       2.187   4.449  18.140  0.00  0.00    +0.000 C 
ATOM     20  O   UNL     1       1.230   4.559  17.365  0.00  0.00    +0.000 OA
ATOM     21  N   UNL     1       2.953   5.536  18.492  0.00  0.00    +0.000 N 
ATOM     22  H   UNL     1       3.574   5.419  19.287  0.00  0.00    +0.000 HD
BRANCH  19  24
ATOM     23  C   UNL     1       1.794   2.817  20.035  0.00  0.00    +0.000 C 
ATOM     24  C   UNL     1       2.588   3.075  18.753  0.00  0.00    +0.000 C 
ATOM     25  C   UNL     1       4.095   3.072  19.064  0.00  0.00    +0.000 C 
BRANCH  24  26
ATOM     26  N   UNL     1       2.290   1.987  17.790  0.00  0.00    +0.000 NA
ATOM     27  H   UNL     1       3.152   1.752  17.292  0.00  0.00    +0.000 HD
ATOM     28  H   UNL     1       1.663   2.346  17.068  0.00  0.00    +0.000 HD
ENDBRANCH  24  26
ENDBRANCH  19  24
ENDBRANCH   1  21
BRANCH   1  29
ATOM     29  C   UNL     1       3.739   7.722  17.474  0.00  0.00    +0.000 C 
BRANCH  29  30
ATOM     30  C   UNL     1       4.757   6.874  16.766  0.00  0.00    +0.000 A 
ATOM     31  C   UNL     1       4.825   6.612  15.410  0.00  0.00    +0.000 A 
ATOM     32  N   UNL     1       5.792   5.663  15.209  0.00  0.00    +0.000 N 
ATOM     33  C   UNL     1       6.440   5.384  16.390  0.00  0.00    +0.000 A 
ATOM     34  C   UNL     1       7.489   4.498  16.659  0.00  0.00    +0.000 A 
ATOM     35  C   UNL     1       7.997   4.474  17.962  0.00  0.00    +0.000 A 
ATOM     36  C   UNL     1       7.473   5.301  18.952  0.00  0.00    +0.000 A 
ATOM     37  C   UNL     1       6.393   6.147  18.675  0.00  0.00    +0.000 A 
ATOM     38  C   UNL     1       5.856   6.184  17.372  0.00  0.00    +0.000 A 
ATOM     39  H   UNL     1       6.015   5.236  14.321  0.00  0.00    +0.000 HD
ENDBRANCH  29  30
ENDBRANCH   1  29
TORSDOF 9
ENDMDL
MODEL 5
REMARK VINA RESULT:      -8.8      1.451      2.582
REMARK  Name = 
REMARK  11 active torsions:
REMARK  status: ('A' for Active; 'I' for Inactive)
REMARK    1  A    between atoms: C_1  and  C_2
REMARK    2  A    between atoms: C_2  and  C_3
REMARK    3  A    between atoms: C_2  and  N_4
REMARK    4  A    between atoms: C_2  and  C_5
REMARK    5  A    between atoms: N_7  and  C_8
REMARK    6  A    between atoms: C_8  and  C_9
REMARK    7  A    between atoms: C_8  and  C_19
REMARK    8  A    between atoms: C_9  and  C_10
REMARK    9  A    between atoms: N_23  and  C_24
REMARK   10  A    between atoms: C_24  and  C_25
REMARK   11  A    between atoms: C_25  and  C_26
REMARK                            x       y       z     vdW  Elec       q    Type
REMARK                         _______ _______ _______ _____ _____    ______ ____
ROOT
ATOM      1  C   UNL     1       2.208   6.740  18.504  0.00  0.00    +0.000 C 
ENDROOT
BRANCH   1   2
ATOM      2  C   UNL     1       1.779   7.635  19.638  0.00  0.00    +0.000 A 
ATOM      3  N   UNL     1       1.733   7.294  20.913  0.00  0.00    +0.000 NA
ATOM      4  N   UNL     1       1.131   8.306  21.613  0.00  0.00    +0.000 NA
ATOM      5  C   UNL     1       0.820   9.247  20.756  0.00  0.00    +0.000 A 
ATOM      6  N   UNL     1       1.286   8.917  19.517  0.00  0.00    +0.000 N 
BRANCH   6   7
ATOM      7  C   UNL     1       1.197   9.729  18.321  0.00  0.00    +0.000 C 
BRANCH   7   8
ATOM      8  C   UNL     1       1.860  11.109  18.421  0.00  0.00    +0.000 C 
BRANCH   8   9
ATOM      9  C   UNL     1       0.852  12.208  18.539  0.00  0.00    +0.000 A 
ATOM     10  C   UNL     1      -0.517  12.058  18.634  0.00  0.00    +0.000 A 
ATOM     11  N   UNL     1      -1.080  13.305  18.735  0.00  0.00    +0.000 N 
ATOM     12  C   UNL     1      -0.108  14.269  18.703  0.00  0.00    +0.000 A 
ATOM     13  C   UNL     1      -0.214  15.665  18.770  0.00  0.00    +0.000 A 
ATOM     14  C   UNL     1       0.966  16.414  18.710  0.00  0.00    +0.000 A 
ATOM     15  C   UNL     1       2.203  15.787  18.588  0.00  0.00    +0.000 A 
ATOM     16  C   UNL     1       2.294  14.392  18.523  0.00  0.00    +0.000 A 
ATOM     17  C   UNL     1       1.119  13.616  18.580  0.00  0.00    +0.000 A 
ATOM     18  H   UNL     1      -2.072  13.491  18.817  0.00  0.00    +0.000 HD
ENDBRANCH   8   9
ENDBRANCH   7   8
ENDBRANCH   6   7
ENDBRANCH   1   2
BRANCH   1  21
ATOM     19  C   UNL     1       1.624   4.333  18.379  0.00  0.00    +0.000 C 
ATOM     20  O   UNL     1       1.120   4.488  17.260  0.00  0.00    +0.000 OA
ATOM     21  N   UNL     1       2.248   5.369  19.034  0.00  0.00    +0.000 N 
ATOM     22  H   UNL     1       2.442   5.235  20.022  0.00  0.00    +0.000 HD
BRANCH  19  24
ATOM     23  C   UNL     1       1.230   3.146  20.580  0.00  0.00    +0.000 C 
ATOM     24  C   UNL     1       1.591   2.956  19.106  0.00  0.00    +0.000 C 
ATOM     25  C   UNL     1       2.968   2.282  18.989  0.00  0.00    +0.000 C 
BRANCH  24  26
ATOM     26  N   UNL     1       0.568   2.082  18.481  0.00  0.00    +0.000 NA
ATOM     27  H   UNL     1       0.097   1.557  19.222  0.00  0.00    +0.000 HD
ATOM     28  H   UNL     1       1.039   1.371  17.918  0.00  0.00    +0.000 HD
ENDBRANCH  24  26
ENDBRANCH  19  24
ENDBRANCH   1  21
BRANCH   1  29
ATOM     29  C   UNL     1       3.554   7.224  17.899  0.00  0.00    +0.000 C 
BRANCH  29  30
ATOM     30  C   UNL     1       4.629   6.175  17.930  0.00  0.00    +0.000 A 
ATOM     31  C   UNL     1       5.143   5.543  19.047  0.00  0.00    +0.000 A 
ATOM     32  N   UNL     1       6.217   4.790  18.653  0.00  0.00    +0.000 N 
ATOM     33  C   UNL     1       6.345   4.823  17.284  0.00  0.00    +0.000 A 
ATOM     34  C   UNL     1       7.281   4.204  16.448  0.00  0.00    +0.000 A 
ATOM     35  C   UNL     1       7.122   4.367  15.067  0.00  0.00    +0.000 A 
ATOM     36  C   UNL     1       6.072   5.120  14.550  0.00  0.00    +0.000 A 
ATOM     37  C   UNL     1       5.174   5.770  15.403  0.00  0.00    +0.000 A 
ATOM     38  C   UNL     1       5.317   5.631  16.798  0.00  0.00    +0.000 A 
ATOM     39  H   UNL     1       6.823   4.270  19.271  0.00  0.00    +0.000 HD
ENDBRANCH  29  30
ENDBRANCH   1  29
TORSDOF 9
ENDMDL
MODEL 6
REMARK VINA RESULT:      -8.7      1.154      1.746
REMARK  Name = 
REMARK  11 active torsions:
REMARK  status: ('A' for Active; 'I' for Inactive)
REMARK    1  A    between atoms: C_1  and  C_2
REMARK    2  A    between atoms: C_2  and  C_3
REMARK    3  A    between atoms: C_2  and  N_4
REMARK    4  A    between atoms: C_2  and  C_5
REMARK    5  A    between atoms: N_7  and  C_8
REMARK    6  A    between atoms: C_8  and  C_9
REMARK    7  A    between atoms: C_8  and  C_19
REMARK    8  A    between atoms: C_9  and  C_10
REMARK    9  A    between atoms: N_23  and  C_24
REMARK   10  A    between atoms: C_24  and  C_25
REMARK   11  A    between atoms: C_25  and  C_26
REMARK                            x       y       z     vdW  Elec       q    Type
REMARK                         _______ _______ _______ _____ _____    ______ ____
ROOT
ATOM      1  C   UNL     1       2.541   6.887  18.208  0.00  0.00    +0.000 C 
ENDROOT
BRANCH   1   2
ATOM      2  C   UNL     1       1.983   7.565  19.432  0.00  0.00    +0.000 A 
ATOM      3  N   UNL     1       1.919   7.040  20.642  0.00  0.00    +0.000 NA
ATOM      4  N   UNL     1       1.195   7.882  21.445  0.00  0.00    +0.000 NA
ATOM      5  C   UNL     1       0.829   8.905  20.714  0.00  0.00    +0.000 A 
ATOM      6  N   UNL     1       1.374   8.802  19.467  0.00  0.00    +0.000 N 
BRANCH   6   7
ATOM      7  C   UNL     1       1.255   9.768  18.394  0.00  0.00    +0.000 C 
BRANCH   7   8
ATOM      8  C   UNL     1      -0.102   9.784  17.680  0.00  0.00    +0.000 C 
BRANCH   8   9
ATOM      9  C   UNL     1      -1.031  10.801  18.266  0.00  0.00    +0.000 A 
ATOM     10  C   UNL     1      -0.671  11.936  18.964  0.00  0.00    +0.000 A 
ATOM     11  N   UNL     1      -1.815  12.603  19.320  0.00  0.00    +0.000 N 
ATOM     12  C   UNL     1      -2.918  11.926  18.873  0.00  0.00    +0.000 A 
ATOM     13  C   UNL     1      -4.280  12.226  19.007  0.00  0.00    +0.000 A 
ATOM     14  C   UNL     1      -5.204  11.338  18.444  0.00  0.00    +0.000 A 
ATOM     15  C   UNL     1      -4.777  10.196  17.773  0.00  0.00    +0.000 A 
ATOM     16  C   UNL     1      -3.413   9.909  17.646  0.00  0.00    +0.000 A 
ATOM     17  C   UNL     1      -2.463  10.787  18.206  0.00  0.00    +0.000 A 
ATOM     18  H   UNL     1      -1.844  13.470  19.841  0.00  0.00    +0.000 HD
ENDBRANCH   8   9
ENDBRANCH   7   8
ENDBRANCH   6   7
ENDBRANCH   1   2
BRANCH   1  21
ATOM     19  C   UNL     1       2.223   4.428  18.210  0.00  0.00    +0.000 C 
ATOM     20  O   UNL     1       1.304   4.521  17.388  0.00  0.00    +0.000 OA
ATOM     21  N   UNL     1       2.938   5.531  18.615  0.00  0.00    +0.000 N 
ATOM     22  H   UNL     1       3.520   5.421  19.440  0.00  0.00    +0.000 HD
BRANCH  19  24
ATOM     23  C   UNL     1       1.982   2.881  20.201  0.00  0.00    +0.000 C 
ATOM     24  C   UNL     1       2.632   3.057  18.827  0.00  0.00    +0.000 C 
ATOM     25  C   UNL     1       4.163   2.991  18.961  0.00  0.00    +0.000 C 
BRANCH  24  26
ATOM     26  N   UNL     1       2.175   1.953  17.947  0.00  0.00    +0.000 NA
ATOM     27  H   UNL     1       2.778   1.143  18.108  0.00  0.00    +0.000 HD
ATOM     28  H   UNL     1       2.343   2.213  16.974  0.00  0.00    +0.000 HD
ENDBRANCH  24  26
ENDBRANCH  19  24
ENDBRANCH   1  21
BRANCH   1  29
ATOM     29  C   UNL     1       3.694   7.725  17.591  0.00  0.00    +0.000 C 
BRANCH  29  30
ATOM     30  C   UNL     1       4.699   6.893  16.846  0.00  0.00    +0.000 A 
ATOM     31  C   UNL     1       4.739   6.657  15.485  0.00  0.00    +0.000 A 
ATOM     32  N   UNL     1       5.703   5.715  15.245  0.00  0.00    +0.000 N 
ATOM     33  C   UNL     1       6.376   5.415  16.406  0.00  0.00    +0.000 A 
ATOM     34  C   UNL     1       7.432   4.526  16.636  0.00  0.00    +0.000 A 
ATOM     35  C   UNL     1       7.968   4.478  17.928  0.00  0.00    +0.000 A 
ATOM     36  C   UNL     1       7.463   5.285  18.944  0.00  0.00    +0.000 A 
ATOM     37  C   UNL     1       6.376   6.133  18.706  0.00  0.00    +0.000 A 
ATOM     38  C   UNL     1       5.812   6.194  17.416  0.00  0.00    +0.000 A 
ATOM     39  H   UNL     1       5.908   5.305  14.344  0.00  0.00    +0.000 HD
ENDBRANCH  29  30
ENDBRANCH   1  29
TORSDOF 9
ENDMDL
MODEL 7
REMARK VINA RESULT:      -8.6      3.107      8.426
REMARK  Name = 
REMARK  11 active torsions:
REMARK  status: ('A' for Active; 'I' for Inactive)
REMARK    1  A    between atoms: C_1  and  C_2
REMARK    2  A    between atoms: C_2  and  C_3
REMARK    3  A    between atoms: C_2  and  N_4
REMARK    4  A    between atoms: C_2  and  C_5
REMARK    5  A    between atoms: N_7  and  C_8
REMARK    6  A    between atoms: C_8  and  C_9
REMARK    7  A    between atoms: C_8  and  C_19
REMARK    8  A    between atoms: C_9  and  C_10
REMARK    9  A    between atoms: N_23  and  C_24
REMARK   10  A    between atoms: C_24  and  C_25
REMARK   11  A    between atoms: C_25  and  C_26
REMARK                            x       y       z     vdW  Elec       q    Type
REMARK                         _______ _______ _______ _____ _____    ______ ____
ROOT
ATOM      1  C   UNL     1      -0.071  12.029  20.557  0.00  0.00    +0.000 C 
ENDROOT
BRANCH   1   2
ATOM      2  C   UNL     1      -0.097  11.020  21.676  0.00  0.00    +0.000 A 
ATOM      3  N   UNL     1      -0.583  11.225  22.887  0.00  0.00    +0.000 NA
ATOM      4  N   UNL     1      -0.271  10.144  23.670  0.00  0.00    +0.000 NA
ATOM      5  C   UNL     1       0.398   9.300  22.926  0.00  0.00    +0.000 A 
ATOM      6  N   UNL     1       0.457   9.758  21.643  0.00  0.00    +0.000 N 
BRANCH   6   7
ATOM      7  C   UNL     1       1.055   9.076  20.512  0.00  0.00    +0.000 C 
BRANCH   7   8
ATOM      8  C   UNL     1       1.876   7.829  20.865  0.00  0.00    +0.000 C 
BRANCH   8   9
ATOM      9  C   UNL     1       2.118   6.961  19.670  0.00  0.00    +0.000 A 
ATOM     10  C   UNL     1       2.688   7.351  18.474  0.00  0.00    +0.000 A 
ATOM     11  N   UNL     1       2.739   6.259  17.646  0.00  0.00    +0.000 N 
ATOM     12  C   UNL     1       2.210   5.162  18.274  0.00  0.00    +0.000 A 
ATOM     13  C   UNL     1       2.050   3.847  17.817  0.00  0.00    +0.000 A 
ATOM     14  C   UNL     1       1.465   2.920  18.686  0.00  0.00    +0.000 A 
ATOM     15  C   UNL     1       1.058   3.297  19.962  0.00  0.00    +0.000 A 
ATOM     16  C   UNL     1       1.224   4.614  20.405  0.00  0.00    +0.000 A 
ATOM     17  C   UNL     1       1.809   5.567  19.548  0.00  0.00    +0.000 A 
ATOM     18  H   UNL     1       3.110   6.260  16.705  0.00  0.00    +0.000 HD
ENDBRANCH   8   9
ENDBRANCH   7   8
ENDBRANCH   6   7
ENDBRANCH   1   2
BRANCH   1  21
ATOM     19  C   UNL     1      -1.706  11.651  18.733  0.00  0.00    +0.000 C 
ATOM     20  O   UNL     1      -2.380  12.620  19.102  0.00  0.00    +0.000 OA
ATOM     21  N   UNL     1      -0.516  11.330  19.342  0.00  0.00    +0.000 N 
ATOM     22  H   UNL     1      -0.131  10.413  19.140  0.00  0.00    +0.000 HD
BRANCH  19  24
ATOM     23  C   UNL     1      -3.535  10.142  17.844  0.00  0.00    +0.000 C 
ATOM     24  C   UNL     1      -2.160  10.745  17.550  0.00  0.00    +0.000 C 
ATOM     25  C   UNL     1      -1.132   9.620  17.342  0.00  0.00    +0.000 C 
BRANCH  24  26
ATOM     26  N   UNL     1      -2.256  11.550  16.307  0.00  0.00    +0.000 NA
ATOM     27  H   UNL     1      -2.865  11.056  15.650  0.00  0.00    +0.000 HD
ATOM     28  H   UNL     1      -1.342  11.567  15.852  0.00  0.00    +0.000 HD
ENDBRANCH  24  26
ENDBRANCH  19  24
ENDBRANCH   1  21
BRANCH   1  29
ATOM     29  C   UNL     1       1.335  12.678  20.434  0.00  0.00    +0.000 C 
BRANCH  29  30
ATOM     30  C   UNL     1       1.288  14.118  20.009  0.00  0.00    +0.000 A 
ATOM     31  C   UNL     1       0.381  15.077  20.419  0.00  0.00    +0.000 A 
ATOM     32  N   UNL     1       0.586  16.204  19.667  0.00  0.00    +0.000 N 
ATOM     33  C   UNL     1       1.684  16.042  18.855  0.00  0.00    +0.000 A 
ATOM     34  C   UNL     1       2.266  16.921  17.935  0.00  0.00    +0.000 A 
ATOM     35  C   UNL     1       3.436  16.503  17.291  0.00  0.00    +0.000 A 
ATOM     36  C   UNL     1       3.994  15.256  17.558  0.00  0.00    +0.000 A 
ATOM     37  C   UNL     1       3.372  14.372  18.447  0.00  0.00    +0.000 A 
ATOM     38  C   UNL     1       2.188  14.765  19.102  0.00  0.00    +0.000 A 
ATOM     39  H   UNL     1       0.024  17.043  19.708  0.00  0.00    +0.000 HD
ENDBRANCH  29  30
ENDBRANCH   1  29
TORSDOF 9
ENDMDL
MODEL 8
REMARK VINA RESULT:      -8.6      3.866      7.829
REMARK  Name = 
REMARK  11 active torsions:
REMARK  status: ('A' for Active; 'I' for Inactive)
REMARK    1  A    between atoms: C_1  and  C_2
REMARK    2  A    between atoms: C_2  and  C_3
REMARK    3  A    between atoms: C_2  and  N_4
REMARK    4  A    between atoms: C_2  and  C_5
REMARK    5  A    between atoms: N_7  and  C_8
REMARK    6  A    between atoms: C_8  and  C_9
REMARK    7  A    between atoms: C_8  and  C_19
REMARK    8  A    between atoms: C_9  and  C_10
REMARK    9  A    between atoms: N_23  and  C_24
REMARK   10  A    between atoms: C_24  and  C_25
REMARK   11  A    between atoms: C_25  and  C_26
REMARK                            x       y       z     vdW  Elec       q    Type
REMARK                         _______ _______ _______ _____ _____    ______ ____
ROOT
ATOM      1  C   UNL     1       4.467   5.990  18.022  0.00  0.00    +0.000 C 
ENDROOT
BRANCH   1   2
ATOM      2  C   UNL     1       5.342   5.702  16.829  0.00  0.00    +0.000 A 
ATOM      3  N   UNL     1       5.009   4.958  15.791  0.00  0.00    +0.000 NA
ATOM      4  N   UNL     1       6.117   4.787  15.003  0.00  0.00    +0.000 NA
ATOM      5  C   UNL     1       7.107   5.429  15.573  0.00  0.00    +0.000 A 
ATOM      6  N   UNL     1       6.655   6.096  16.673  0.00  0.00    +0.000 N 
BRANCH   6   7
ATOM      7  C   UNL     1       7.432   6.969  17.529  0.00  0.00    +0.000 C 
BRANCH   7   8
ATOM      8  C   UNL     1       7.304   8.466  17.219  0.00  0.00    +0.000 C 
BRANCH   8   9
ATOM      9  C   UNL     1       8.177   9.298  18.105  0.00  0.00    +0.000 A 
ATOM     10  C   UNL     1       8.973   8.841  19.136  0.00  0.00    +0.000 A 
ATOM     11  N   UNL     1       9.618   9.917  19.691  0.00  0.00    +0.000 N 
ATOM     12  C   UNL     1       9.256  11.071  19.047  0.00  0.00    +0.000 A 
ATOM     13  C   UNL     1       9.654  12.395  19.273  0.00  0.00    +0.000 A 
ATOM     14  C   UNL     1       9.112  13.389  18.451  0.00  0.00    +0.000 A 
ATOM     15  C   UNL     1       8.208  13.066  17.443  0.00  0.00    +0.000 A 
ATOM     16  C   UNL     1       7.820  11.739  17.229  0.00  0.00    +0.000 A 
ATOM     17  C   UNL     1       8.351  10.720  18.045  0.00  0.00    +0.000 A 
ATOM     18  H   UNL     1      10.265   9.870  20.467  0.00  0.00    +0.000 HD
ENDBRANCH   8   9
ENDBRANCH   7   8
ENDBRANCH   6   7
ENDBRANCH   1   2
BRANCH   1  21
ATOM     19  C   UNL     1       4.686   3.828  19.217  0.00  0.00    +0.000 C 
ATOM     20  O   UNL     1       5.803   4.148  19.643  0.00  0.00    +0.000 OA
ATOM     21  N   UNL     1       3.925   4.699  18.474  0.00  0.00    +0.000 N 
ATOM     22  H   UNL     1       3.131   4.305  17.979  0.00  0.00    +0.000 HD
BRANCH  19  24
ATOM     23  C   UNL     1       3.483   1.833  18.225  0.00  0.00    +0.000 C 
ATOM     24  C   UNL     1       4.074   2.426  19.506  0.00  0.00    +0.000 C 
ATOM     25  C   UNL     1       2.976   2.556  20.575  0.00  0.00    +0.000 C 
BRANCH  24  26
ATOM     26  N   UNL     1       5.129   1.509  20.005  0.00  0.00    +0.000 NA
ATOM     27  H   UNL     1       4.892   1.235  20.961  0.00  0.00    +0.000 HD
ATOM     28  H   UNL     1       6.005   2.026  20.092  0.00  0.00    +0.000 HD
ENDBRANCH  24  26
ENDBRANCH  19  24
ENDBRANCH   1  21
BRANCH   1  29
ATOM     29  C   UNL     1       3.382   7.042  17.667  0.00  0.00    +0.000 C 
BRANCH  29  30
ATOM     30  C   UNL     1       2.593   7.504  18.860  0.00  0.00    +0.000 A 
ATOM     31  C   UNL     1       2.463   6.857  20.074  0.00  0.00    +0.000 A 
ATOM     32  N   UNL     1       1.526   7.526  20.815  0.00  0.00    +0.000 N 
ATOM     33  C   UNL     1       1.124   8.666  20.158  0.00  0.00    +0.000 A 
ATOM     34  C   UNL     1       0.201   9.649  20.533  0.00  0.00    +0.000 A 
ATOM     35  C   UNL     1       0.043  10.747  19.680  0.00  0.00    +0.000 A 
ATOM     36  C   UNL     1       0.777  10.851  18.502  0.00  0.00    +0.000 A 
ATOM     37  C   UNL     1       1.660   9.835  18.121  0.00  0.00    +0.000 A 
ATOM     38  C   UNL     1       1.832   8.714  18.957  0.00  0.00    +0.000 A 
ATOM     39  H   UNL     1       1.184   7.239  21.721  0.00  0.00    +0.000 HD
ENDBRANCH  29  30
ENDBRANCH   1  29
TORSDOF 9
ENDMDL
MODEL 9
REMARK VINA RESULT:      -8.6      2.649      8.939
REMARK  Name = 
REMARK  11 active torsions:
REMARK  status: ('A' for Active; 'I' for Inactive)
REMARK    1  A    between atoms: C_1  and  C_2
REMARK    2  A    between atoms: C_2  and  C_3
REMARK    3  A    between atoms: C_2  and  N_4
REMARK    4  A    between atoms: C_2  and  C_5
REMARK    5  A    between atoms: N_7  and  C_8
REMARK    6  A    between atoms: C_8  and  C_9
REMARK    7  A    between atoms: C_8  and  C_19
REMARK    8  A    between atoms: C_9  and  C_10
REMARK    9  A    between atoms: N_23  and  C_24
REMARK   10  A    between atoms: C_24  and  C_25
REMARK   11  A    between atoms: C_25  and  C_26
REMARK                            x       y       z     vdW  Elec       q    Type
REMARK                         _______ _______ _______ _____ _____    ______ ____
ROOT
ATOM      1  C   UNL     1      -0.695  11.717  20.788  0.00  0.00    +0.000 C 
ENDROOT
BRANCH   1   2
ATOM      2  C   UNL     1      -0.267  10.721  21.834  0.00  0.00    +0.000 A 
ATOM      3  N   UNL     1      -0.523  10.803  23.127  0.00  0.00    +0.000 NA
ATOM      4  N   UNL     1       0.174   9.816  23.773  0.00  0.00    +0.000 NA
ATOM      5  C   UNL     1       0.842   9.148  22.866  0.00  0.00    +0.000 A 
ATOM      6  N   UNL     1       0.531   9.616  21.623  0.00  0.00    +0.000 N 
BRANCH   6   7
ATOM      7  C   UNL     1       1.015   9.093  20.361  0.00  0.00    +0.000 C 
BRANCH   7   8
ATOM      8  C   UNL     1       1.644   7.696  20.434  0.00  0.00    +0.000 C 
BRANCH   8   9
ATOM      9  C   UNL     1       2.437   7.374  19.207  0.00  0.00    +0.000 A 
ATOM     10  C   UNL     1       2.586   8.175  18.092  0.00  0.00    +0.000 A 
ATOM     11  N   UNL     1       3.395   7.522  17.198  0.00  0.00    +0.000 N 
ATOM     12  C   UNL     1       3.776   6.306  17.703  0.00  0.00    +0.000 A 
ATOM     13  C   UNL     1       4.586   5.308  17.145  0.00  0.00    +0.000 A 
ATOM     14  C   UNL     1       4.807   4.149  17.897  0.00  0.00    +0.000 A 
ATOM     15  C   UNL     1       4.237   3.998  19.157  0.00  0.00    +0.000 A 
ATOM     16  C   UNL     1       3.430   5.003  19.702  0.00  0.00    +0.000 A 
ATOM     17  C   UNL     1       3.192   6.180  18.964  0.00  0.00    +0.000 A 
ATOM     18  H   UNL     1       3.671   7.881  16.294  0.00  0.00    +0.000 HD
ENDBRANCH   8   9
ENDBRANCH   7   8
ENDBRANCH   6   7
ENDBRANCH   1   2
BRANCH   1  21
ATOM     19  C   UNL     1       1.273  12.916  19.873  0.00  0.00    +0.000 C 
ATOM     20  O   UNL     1       1.302  12.167  18.889  0.00  0.00    +0.000 OA
ATOM     21  N   UNL     1       0.281  12.816  20.821  0.00  0.00    +0.000 N 
ATOM     22  H   UNL     1       0.437  13.303  21.698  0.00  0.00    +0.000 HD
BRANCH  19  24
ATOM     23  C   UNL     1       1.675  15.379  20.304  0.00  0.00    +0.000 C 
ATOM     24  C   UNL     1       2.348  14.021  20.091  0.00  0.00    +0.000 C 
ATOM     25  C   UNL     1       3.273  14.086  18.863  0.00  0.00    +0.000 C 
BRANCH  24  26
ATOM     26  N   UNL     1       3.160  13.705  21.292  0.00  0.00    +0.000 NA
ATOM     27  H   UNL     1       2.572  13.832  22.120  0.00  0.00    +0.000 HD
ATOM     28  H   UNL     1       3.897  14.405  21.387  0.00  0.00    +0.000 HD
ENDBRANCH  24  26
ENDBRANCH  19  24
ENDBRANCH   1  21
BRANCH   1  29
ATOM     29  C   UNL     1      -2.163  12.167  21.025  0.00  0.00    +0.000 C 
BRANCH  29  30
ATOM     30  C   UNL     1      -3.000  12.140  19.777  0.00  0.00    +0.000 A 
ATOM     31  C   UNL     1      -4.151  12.865  19.532  0.00  0.00    +0.000 A 
ATOM     32  N   UNL     1      -4.691  12.418  18.355  0.00  0.00    +0.000 N 
ATOM     33  C   UNL     1      -3.855  11.500  17.765  0.00  0.00    +0.000 A 
ATOM     34  C   UNL     1      -3.990  10.794  16.564  0.00  0.00    +0.000 A 
ATOM     35  C   UNL     1      -2.931   9.963  16.180  0.00  0.00    +0.000 A 
ATOM     36  C   UNL     1      -1.790   9.844  16.969  0.00  0.00    +0.000 A 
ATOM     37  C   UNL     1      -1.694  10.522  18.189  0.00  0.00    +0.000 A 
ATOM     38  C   UNL     1      -2.750  11.358  18.604  0.00  0.00    +0.000 A 
ATOM     39  H   UNL     1      -5.569  12.726  17.961  0.00  0.00    +0.000 HD
ENDBRANCH  29  30
ENDBRANCH   1  29
TORSDOF 9
ENDMDL
