MODEL 1
REMARK VINA RESULT:      -7.2      0.000      0.000
REMARK  Name = 
REMARK  15 active torsions:
REMARK  status: ('A' for Active; 'I' for Inactive)
REMARK    1  A    between atoms: C_1  and  O_2
REMARK    2  A    between atoms: O_2  and  C_3
REMARK    3  A    between atoms: C_6  and  C_7
REMARK    4  A    between atoms: C_7  and  N_8
REMARK    5  A    between atoms: N_8  and  C_16
REMARK    6  A    between atoms: C_9  and  C_11
REMARK    7  A    between atoms: C_11  and  C_12
REMARK    8  A    between atoms: C_12  and  C_13
REMARK    9  A    between atoms: C_12  and  C_14
REMARK   10  A    between atoms: C_12  and  C_15
REMARK   11  A    between atoms: C_16  and  C_17
REMARK   12  A    between atoms: C_16  and  C_18
REMARK   13  A    between atoms: C_20  and  O_21
REMARK   14  A    between atoms: O_21  and  S_22
REMARK   15  A    between atoms: S_22  and  C_23
REMARK                            x       y       z     vdW  Elec       q    Type
REMARK                         _______ _______ _______ _____ _____    ______ ____
ROOT
ATOM      1  C   UNL     1       0.909   9.557  18.832  0.00  0.00    +0.000 A 
ATOM      2  C   UNL     1       1.783   8.988  17.902  0.00  0.00    +0.000 A 
ATOM      3  C   UNL     1       2.530   7.848  18.228  0.00  0.00    +0.000 A 
ATOM      4  C   UNL     1       2.410   7.232  19.485  0.00  0.00    +0.000 A 
ATOM      5  C   UNL     1       1.545   7.816  20.424  0.00  0.00    +0.000 A 
ATOM      6  C   UNL     1       0.821   8.975  20.101  0.00  0.00    +0.000 A 
ENDROOT
BRANCH   1   8
ATOM      7  C   UNL     1      -1.171  10.373  17.997  0.00  0.00    +0.000 C 
ATOM      8  O   UNL     1       0.092  10.630  18.595  0.00  0.00    +0.000 OA
ENDBRANCH   1   8
BRANCH   4   9
ATOM      9  C   UNL     1       3.238   6.018  19.830  0.00  0.00    +0.000 C 
BRANCH   9  10
ATOM     10  N   UNL     1       3.430   4.845  18.939  0.00  0.00    +0.000 N 
ATOM     11  C   UNL     1       4.564   4.370  18.280  0.00  0.00    +0.000 C 
ATOM     12  O   UNL     1       4.485   3.378  17.545  0.00  0.00    +0.000 OA
BRANCH  10  13
ATOM     13  C   UNL     1       2.239   3.945  18.802  0.00  0.00    +0.000 C 
ATOM     14  C   UNL     1       1.459   3.862  20.121  0.00  0.00    +0.000 C 
ATOM     15  C   UNL     1       1.285   4.279  17.650  0.00  0.00    +0.000 C 
ENDBRANCH  10  13
BRANCH  11  16
ATOM     16  C   UNL     1       5.933   5.010  18.409  0.00  0.00    +0.000 C 
BRANCH  16  17
ATOM     17  C   UNL     1       6.433   5.753  17.141  0.00  0.00    +0.000 C 
ATOM     18  C   UNL     1       7.427   6.875  17.490  0.00  0.00    +0.000 C 
ATOM     19  C   UNL     1       7.162   4.722  16.254  0.00  0.00    +0.000 C 
ATOM     20  C   UNL     1       5.268   6.350  16.336  0.00  0.00    +0.000 C 
ENDBRANCH  16  17
ENDBRANCH  11  16
ENDBRANCH   9  10
ENDBRANCH   4   9
BRANCH   6  21
ATOM     21  O   UNL     1      -0.062   9.441  21.041  0.00  0.00    +0.000 OA
BRANCH  21  22
ATOM     22  S   UNL     1       0.433  10.481  22.206  0.00  0.00    +0.000 S 
ATOM     23  C   UNL     1      -1.180  10.966  22.774  0.00  0.00    +0.000 C 
ATOM     24  O   UNL     1       1.052   9.698  23.261  0.00  0.00    +0.000 OA
ATOM     25  O   UNL     1       1.106  11.642  21.652  0.00  0.00    +0.000 OA
ENDBRANCH  21  22
ENDBRANCH   6  21
TORSDOF 8
ENDMDL
MODEL 2
REMARK VINA RESULT:      -7.1      0.920      3.375
REMARK  Name = 
REMARK  15 active torsions:
REMARK  status: ('A' for Active; 'I' for Inactive)
REMARK    1  A    between atoms: C_1  and  O_2
REMARK    2  A    between atoms: O_2  and  C_3
REMARK    3  A    between atoms: C_6  and  C_7
REMARK    4  A    between atoms: C_7  and  N_8
REMARK    5  A    between atoms: N_8  and  C_16
REMARK    6  A    between atoms: C_9  and  C_11
REMARK    7  A    between atoms: C_11  and  C_12
REMARK    8  A    between atoms: C_12  and  C_13
REMARK    9  A    between atoms: C_12  and  C_14
REMARK   10  A    between atoms: C_12  and  C_15
REMARK   11  A    between atoms: C_16  and  C_17
REMARK   12  A    between atoms: C_16  and  C_18
REMARK   13  A    between atoms: C_20  and  O_21
REMARK   14  A    between atoms: O_21  and  S_22
REMARK   15  A    between atoms: S_22  and  C_23
REMARK                            x       y       z     vdW  Elec       q    Type
REMARK                         _______ _______ _______ _____ _____    ______ ____
ROOT
ATOM      1  C   UNL     1       0.814   9.638  18.728  0.00  0.00    +0.000 A 
ATOM      2  C   UNL     1       1.682   9.213  17.719  0.00  0.00    +0.000 A 
ATOM      3  C   UNL     1       2.557   8.140  17.935  0.00  0.00    +0.000 A 
ATOM      4  C   UNL     1       2.578   7.449  19.158  0.00  0.00    +0.000 A 
ATOM      5  C   UNL     1       1.719   7.891  20.176  0.00  0.00    +0.000 A 
ATOM      6  C   UNL     1       0.864   8.984  19.964  0.00  0.00    +0.000 A 
ENDROOT
BRANCH   1   8
ATOM      7  C   UNL     1      -1.343  10.305  17.960  0.00  0.00    +0.000 C 
ATOM      8  O   UNL     1      -0.118  10.633  18.601  0.00  0.00    +0.000 OA
ENDBRANCH   1   8
BRANCH   4   9
ATOM      9  C   UNL     1       3.542   6.311  19.384  0.00  0.00    +0.000 C 
BRANCH   9  10
ATOM     10  N   UNL     1       3.977   5.352  18.336  0.00  0.00    +0.000 N 
ATOM     11  C   UNL     1       3.277   4.352  17.661  0.00  0.00    +0.000 C 
ATOM     12  O   UNL     1       3.859   3.633  16.839  0.00  0.00    +0.000 OA
BRANCH  10  13
ATOM     13  C   UNL     1       5.372   5.554  17.824  0.00  0.00    +0.000 C 
ATOM     14  C   UNL     1       5.453   6.795  16.926  0.00  0.00    +0.000 C 
ATOM     15  C   UNL     1       6.468   5.608  18.893  0.00  0.00    +0.000 C 
ENDBRANCH  10  13
BRANCH  11  16
ATOM     16  C   UNL     1       1.802   4.076  17.877  0.00  0.00    +0.000 C 
BRANCH  16  17
ATOM     17  C   UNL     1       1.469   3.230  19.136  0.00  0.00    +0.000 C 
ATOM     18  C   UNL     1       0.497   2.081  18.811  0.00  0.00    +0.000 C 
ATOM     19  C   UNL     1       2.788   2.615  19.647  0.00  0.00    +0.000 C 
ATOM     20  C   UNL     1       0.867   4.092  20.256  0.00  0.00    +0.000 C 
ENDBRANCH  16  17
ENDBRANCH  11  16
ENDBRANCH   9  10
ENDBRANCH   4   9
BRANCH   6  21
ATOM     21  O   UNL     1      -0.001   9.306  20.978  0.00  0.00    +0.000 OA
BRANCH  21  22
ATOM     22  S   UNL     1       0.407  10.433  22.094  0.00  0.00    +0.000 S 
ATOM     23  C   UNL     1      -1.193  11.197  22.238  0.00  0.00    +0.000 C 
ATOM     24  O   UNL     1       0.675   9.740  23.342  0.00  0.00    +0.000 OA
ATOM     25  O   UNL     1       1.348  11.407  21.570  0.00  0.00    +0.000 OA
ENDBRANCH  21  22
ENDBRANCH   6  21
TORSDOF 8
ENDMDL
MODEL 3
REMARK VINA RESULT:      -7.0      0.636      1.138
REMARK  Name = 
REMARK  15 active torsions:
REMARK  status: ('A' for Active; 'I' for Inactive)
REMARK    1  A    between atoms: C_1  and  O_2
REMARK    2  A    between atoms: O_2  and  C_3
REMARK    3  A    between atoms: C_6  and  C_7
REMARK    4  A    between atoms: C_7  and  N_8
REMARK    5  A    between atoms: N_8  and  C_16
REMARK    6  A    between atoms: C_9  and  C_11
REMARK    7  A    between atoms: C_11  and  C_12
REMARK    8  A    between atoms: C_12  and  C_13
REMARK    9  A    between atoms: C_12  and  C_14
REMARK   10  A    between atoms: C_12  and  C_15
REMARK   11  A    between atoms: C_16  and  C_17
REMARK   12  A    between atoms: C_16  and  C_18
REMARK   13  A    between atoms: C_20  and  O_21
REMARK   14  A    between atoms: O_21  and  S_22
REMARK   15  A    between atoms: S_22  and  C_23
REMARK                            x       y       z     vdW  Elec       q    Type
REMARK                         _______ _______ _______ _____ _____    ______ ____
ROOT
ATOM      1  C   UNL     1       0.911   9.548  18.692  0.00  0.00    +0.000 A 
ATOM      2  C   UNL     1       1.886   9.085  17.805  0.00  0.00    +0.000 A 
ATOM      3  C   UNL     1       2.667   7.966  18.122  0.00  0.00    +0.000 A 
ATOM      4  C   UNL     1       2.485   7.266  19.326  0.00  0.00    +0.000 A 
ATOM      5  C   UNL     1       1.518   7.744  20.224  0.00  0.00    +0.000 A 
ATOM      6  C   UNL     1       0.757   8.882  19.913  0.00  0.00    +0.000 A 
ENDROOT
BRANCH   1   8
ATOM      7  C   UNL     1      -1.177  10.294  17.812  0.00  0.00    +0.000 C 
ATOM      8  O   UNL     1       0.057  10.591  18.454  0.00  0.00    +0.000 OA
ENDBRANCH   1   8
BRANCH   4   9
ATOM      9  C   UNL     1       3.350   6.077  19.664  0.00  0.00    +0.000 C 
BRANCH   9  10
ATOM     10  N   UNL     1       3.476   4.858  18.824  0.00  0.00    +0.000 N 
ATOM     11  C   UNL     1       4.572   4.321  18.147  0.00  0.00    +0.000 C 
ATOM     12  O   UNL     1       4.438   3.298  17.464  0.00  0.00    +0.000 OA
BRANCH  10  13
ATOM     13  C   UNL     1       2.259   3.985  18.777  0.00  0.00    +0.000 C 
ATOM     14  C   UNL     1       1.543   3.966  20.134  0.00  0.00    +0.000 C 
ATOM     15  C   UNL     1       1.257   4.305  17.661  0.00  0.00    +0.000 C 
ENDBRANCH  10  13
BRANCH  11  16
ATOM     16  C   UNL     1       5.960   4.928  18.193  0.00  0.00    +0.000 C 
BRANCH  16  17
ATOM     17  C   UNL     1       6.380   5.706  16.916  0.00  0.00    +0.000 C 
ATOM     18  C   UNL     1       5.168   6.341  16.210  0.00  0.00    +0.000 C 
ATOM     19  C   UNL     1       7.332   6.839  17.353  0.00  0.00    +0.000 C 
ATOM     20  C   UNL     1       7.122   4.803  15.920  0.00  0.00    +0.000 C 
ENDBRANCH  16  17
ENDBRANCH  11  16
ENDBRANCH   9  10
ENDBRANCH   4   9
BRANCH   6  21
ATOM     21  O   UNL     1      -0.222   9.241  20.804  0.00  0.00    +0.000 OA
BRANCH  21  22
ATOM     22  S   UNL     1       0.007  10.496  21.831  0.00  0.00    +0.000 S 
ATOM     23  C   UNL     1      -0.071   9.565  23.344  0.00  0.00    +0.000 C 
ATOM     24  O   UNL     1       1.376  10.954  21.670  0.00  0.00    +0.000 OA
ATOM     25  O   UNL     1      -1.098  11.437  21.799  0.00  0.00    +0.000 OA
ENDBRANCH  21  22
ENDBRANCH   6  21
TORSDOF 8
ENDMDL
MODEL 4
REMARK VINA RESULT:      -6.9      0.667      1.268
REMARK  Name = 
REMARK  15 active torsions:
REMARK  status: ('A' for Active; 'I' for Inactive)
REMARK    1  A    between atoms: C_1  and  O_2
REMARK    2  A    between atoms: O_2  and  C_3
REMARK    3  A    between atoms: C_6  and  C_7
REMARK    4  A    between atoms: C_7  and  N_8
REMARK    5  A    between atoms: N_8  and  C_16
REMARK    6  A    between atoms: C_9  and  C_11
REMARK    7  A    between atoms: C_11  and  C_12
REMARK    8  A    between atoms: C_12  and  C_13
REMARK    9  A    between atoms: C_12  and  C_14
REMARK   10  A    between atoms: C_12  and  C_15
REMARK   11  A    between atoms: C_16  and  C_17
REMARK   12  A    between atoms: C_16  and  C_18
REMARK   13  A    between atoms: C_20  and  O_21
REMARK   14  A    between atoms: O_21  and  S_22
REMARK   15  A    between atoms: S_22  and  C_23
REMARK                            x       y       z     vdW  Elec       q    Type
REMARK                         _______ _______ _______ _____ _____    ______ ____
ROOT
ATOM      1  C   UNL     1       0.754   9.723  18.791  0.00  0.00    +0.000 A 
ATOM      2  C   UNL     1       1.628   9.221  17.823  0.00  0.00    +0.000 A 
ATOM      3  C   UNL     1       2.392   8.074  18.075  0.00  0.00    +0.000 A 
ATOM      4  C   UNL     1       2.291   7.383  19.294  0.00  0.00    +0.000 A 
ATOM      5  C   UNL     1       1.427   7.900  20.272  0.00  0.00    +0.000 A 
ATOM      6  C   UNL     1       0.686   9.066  20.024  0.00  0.00    +0.000 A 
ENDROOT
BRANCH   1   8
ATOM      7  C   UNL     1      -1.310  10.574  17.952  0.00  0.00    +0.000 C 
ATOM      8  O   UNL     1      -0.077  10.797  18.625  0.00  0.00    +0.000 OA
ENDBRANCH   1   8
BRANCH   4   9
ATOM      9  C   UNL     1       3.137   6.163  19.561  0.00  0.00    +0.000 C 
BRANCH   9  10
ATOM     10  N   UNL     1       3.165   4.950  18.702  0.00  0.00    +0.000 N 
ATOM     11  C   UNL     1       3.821   4.694  17.498  0.00  0.00    +0.000 C 
ATOM     12  O   UNL     1       3.669   3.607  16.928  0.00  0.00    +0.000 OA
BRANCH  10  13
ATOM     13  C   UNL     1       2.464   3.752  19.267  0.00  0.00    +0.000 C 
ATOM     14  C   UNL     1       3.372   2.994  20.244  0.00  0.00    +0.000 C 
ATOM     15  C   UNL     1       1.105   4.026  19.921  0.00  0.00    +0.000 C 
ENDBRANCH  10  13
BRANCH  11  16
ATOM     16  C   UNL     1       4.738   5.693  16.819  0.00  0.00    +0.000 C 
BRANCH  16  17
ATOM     17  C   UNL     1       6.247   5.527  17.146  0.00  0.00    +0.000 C 
ATOM     18  C   UNL     1       6.986   4.741  16.048  0.00  0.00    +0.000 C 
ATOM     19  C   UNL     1       6.865   6.939  17.227  0.00  0.00    +0.000 C 
ATOM     20  C   UNL     1       6.462   4.823  18.494  0.00  0.00    +0.000 C 
ENDBRANCH  16  17
ENDBRANCH  11  16
ENDBRANCH   9  10
ENDBRANCH   4   9
BRANCH   6  21
ATOM     21  O   UNL     1      -0.195   9.464  20.997  0.00  0.00    +0.000 OA
BRANCH  21  22
ATOM     22  S   UNL     1       0.235  10.600  22.096  0.00  0.00    +0.000 S 
ATOM     23  C   UNL     1      -1.304  11.492  22.112  0.00  0.00    +0.000 C 
ATOM     24  O   UNL     1       0.371   9.940  23.382  0.00  0.00    +0.000 OA
ATOM     25  O   UNL     1       1.281  11.475  21.597  0.00  0.00    +0.000 OA
ENDBRANCH  21  22
ENDBRANCH   6  21
TORSDOF 8
ENDMDL
MODEL 5
REMARK VINA RESULT:      -6.9      0.628      1.250
REMARK  Name = 
REMARK  15 active torsions:
REMARK  status: ('A' for Active; 'I' for Inactive)
REMARK    1  A    between atoms: C_1  and  O_2
REMARK    2  A    between atoms: O_2  and  C_3
REMARK    3  A    between atoms: C_6  and  C_7
REMARK    4  A    between atoms: C_7  and  N_8
REMARK    5  A    between atoms: N_8  and  C_16
REMARK    6  A    between atoms: C_9  and  C_11
REMARK    7  A    between atoms: C_11  and  C_12
REMARK    8  A    between atoms: C_12  and  C_13
REMARK    9  A    between atoms: C_12  and  C_14
REMARK   10  A    between atoms: C_12  and  C_15
REMARK   11  A    between atoms: C_16  and  C_17
REMARK   12  A    between atoms: C_16  and  C_18
REMARK   13  A    between atoms: C_20  and  O_21
REMARK   14  A    between atoms: O_21  and  S_22
REMARK   15  A    between atoms: S_22  and  C_23
REMARK                            x       y       z     vdW  Elec       q    Type
REMARK                         _______ _______ _______ _____ _____    ______ ____
ROOT
ATOM      1  C   UNL     1       1.131   9.691  18.843  0.00  0.00    +0.000 A 
ATOM      2  C   UNL     1       1.568   8.750  17.906  0.00  0.00    +0.000 A 
ATOM      3  C   UNL     1       2.144   7.542  18.321  0.00  0.00    +0.000 A 
ATOM      4  C   UNL     1       2.282   7.230  19.684  0.00  0.00    +0.000 A 
ATOM      5  C   UNL     1       1.860   8.184  20.623  0.00  0.00    +0.000 A 
ATOM      6  C   UNL     1       1.310   9.405  20.200  0.00  0.00    +0.000 A 
ENDROOT
BRANCH   1   8
ATOM      7  C   UNL     1      -0.900  10.828  18.325  0.00  0.00    +0.000 C 
ATOM      8  O   UNL     1       0.504  10.870  18.545  0.00  0.00    +0.000 OA
ENDBRANCH   1   8
BRANCH   4   9
ATOM      9  C   UNL     1       2.926   5.935  20.116  0.00  0.00    +0.000 C 
BRANCH   9  10
ATOM     10  N   UNL     1       3.280   4.821  19.199  0.00  0.00    +0.000 N 
ATOM     11  C   UNL     1       4.506   4.439  18.653  0.00  0.00    +0.000 C 
ATOM     12  O   UNL     1       4.564   3.484  17.868  0.00  0.00    +0.000 OA
BRANCH  10  13
ATOM     13  C   UNL     1       2.165   3.870  18.888  0.00  0.00    +0.000 C 
ATOM     14  C   UNL     1       1.235   3.699  20.096  0.00  0.00    +0.000 C 
ATOM     15  C   UNL     1       1.343   4.201  17.637  0.00  0.00    +0.000 C 
ENDBRANCH  10  13
BRANCH  11  16
ATOM     16  C   UNL     1       5.814   5.140  18.965  0.00  0.00    +0.000 C 
BRANCH  16  17
ATOM     17  C   UNL     1       6.502   5.819  17.750  0.00  0.00    +0.000 C 
ATOM     18  C   UNL     1       5.529   6.727  16.976  0.00  0.00    +0.000 C 
ATOM     19  C   UNL     1       7.650   6.694  18.293  0.00  0.00    +0.000 C 
ATOM     20  C   UNL     1       7.095   4.783  16.782  0.00  0.00    +0.000 C 
ENDBRANCH  16  17
ENDBRANCH  11  16
ENDBRANCH   9  10
ENDBRANCH   4   9
BRANCH   6  21
ATOM     21  O   UNL     1       0.848  10.252  21.175  0.00  0.00    +0.000 OA
BRANCH  21  22
ATOM     22  S   UNL     1      -0.075   9.684  22.403  0.00  0.00    +0.000 S 
ATOM     23  C   UNL     1      -1.173  11.079  22.522  0.00  0.00    +0.000 C 
ATOM     24  O   UNL     1      -0.846   8.564  21.892  0.00  0.00    +0.000 OA
ATOM     25  O   UNL     1       0.673   9.566  23.641  0.00  0.00    +0.000 OA
ENDBRANCH  21  22
ENDBRANCH   6  21
TORSDOF 8
ENDMDL
MODEL 6
REMARK VINA RESULT:      -6.8      1.103      3.463
REMARK  Name = 
REMARK  15 active torsions:
REMARK  status: ('A' for Active; 'I' for Inactive)
REMARK    1  A    between atoms: C_1  and  O_2
REMARK    2  A    between atoms: O_2  and  C_3
REMARK    3  A    between atoms: C_6  and  C_7
REMARK    4  A    between atoms: C_7  and  N_8
REMARK    5  A    between atoms: N_8  and  C_16
REMARK    6  A    between atoms: C_9  and  C_11
REMARK    7  A    between atoms: C_11  and  C_12
REMARK    8  A    between atoms: C_12  and  C_13
REMARK    9  A    between atoms: C_12  and  C_14
REMARK   10  A    between atoms: C_12  and  C_15
REMARK   11  A    between atoms: C_16  and  C_17
REMARK   12  A    between atoms: C_16  and  C_18
REMARK   13  A    between atoms: C_20  and  O_21
REMARK   14  A    between atoms: O_21  and  S_22
REMARK   15  A    between atoms: S_22  and  C_23
REMARK                            x       y       z     vdW  Elec       q    Type
REMARK                         _______ _______ _______ _____ _____    ______ ____
ROOT
ATOM      1  C   UNL     1       1.009   9.567  18.736  0.00  0.00    +0.000 A 
ATOM      2  C   UNL     1       1.850   9.284  17.656  0.00  0.00    +0.000 A 
ATOM      3  C   UNL     1       2.762   8.223  17.719  0.00  0.00    +0.000 A 
ATOM      4  C   UNL     1       2.849   7.401  18.856  0.00  0.00    +0.000 A 
ATOM      5  C   UNL     1       2.017   7.699  19.946  0.00  0.00    +0.000 A 
ATOM      6  C   UNL     1       1.124   8.781  19.887  0.00  0.00    +0.000 A 
ENDROOT
BRANCH   1   8
ATOM      7  C   UNL     1       0.453  11.871  18.473  0.00  0.00    +0.000 C 
ATOM      8  O   UNL     1       0.046  10.539  18.753  0.00  0.00    +0.000 OA
ENDBRANCH   1   8
BRANCH   4   9
ATOM      9  C   UNL     1       3.853   6.276  18.919  0.00  0.00    +0.000 C 
BRANCH   9  10
ATOM     10  N   UNL     1       3.984   5.203  17.900  0.00  0.00    +0.000 N 
ATOM     11  C   UNL     1       3.079   4.230  17.472  0.00  0.00    +0.000 C 
ATOM     12  O   UNL     1       3.420   3.398  16.623  0.00  0.00    +0.000 OA
BRANCH  10  13
ATOM     13  C   UNL     1       5.256   5.224  17.109  0.00  0.00    +0.000 C 
ATOM     14  C   UNL     1       5.253   6.375  16.094  0.00  0.00    +0.000 C 
ATOM     15  C   UNL     1       6.548   5.256  17.933  0.00  0.00    +0.000 C 
ENDBRANCH  10  13
BRANCH  11  16
ATOM     16  C   UNL     1       1.661   4.121  17.997  0.00  0.00    +0.000 C 
BRANCH  16  17
ATOM     17  C   UNL     1       1.507   3.304  19.309  0.00  0.00    +0.000 C 
ATOM     18  C   UNL     1       0.894   4.149  20.440  0.00  0.00    +0.000 C 
ATOM     19  C   UNL     1       0.553   2.127  19.015  0.00  0.00    +0.000 C 
ATOM     20  C   UNL     1       2.852   2.734  19.783  0.00  0.00    +0.000 C 
ENDBRANCH  16  17
ENDBRANCH  11  16
ENDBRANCH   9  10
ENDBRANCH   4   9
BRANCH   6  21
ATOM     21  O   UNL     1       0.289   8.960  20.960  0.00  0.00    +0.000 OA
BRANCH  21  22
ATOM     22  S   UNL     1       0.739   9.910  22.216  0.00  0.00    +0.000 S 
ATOM     23  C   UNL     1      -0.716   9.673  23.210  0.00  0.00    +0.000 C 
ATOM     24  O   UNL     1       1.843   9.252  22.893  0.00  0.00    +0.000 OA
ATOM     25  O   UNL     1       0.828  11.309  21.839  0.00  0.00    +0.000 OA
ENDBRANCH  21  22
ENDBRANCH   6  21
TORSDOF 8
ENDMDL
MODEL 7
REMARK VINA RESULT:      -6.6      0.988      1.559
REMARK  Name = 
REMARK  15 active torsions:
REMARK  status: ('A' for Active; 'I' for Inactive)
REMARK    1  A    between atoms: C_1  and  O_2
REMARK    2  A    between atoms: O_2  and  C_3
REMARK    3  A    between atoms: C_6  and  C_7
REMARK    4  A    between atoms: C_7  and  N_8
REMARK    5  A    between atoms: N_8  and  C_16
REMARK    6  A    between atoms: C_9  and  C_11
REMARK    7  A    between atoms: C_11  and  C_12
REMARK    8  A    between atoms: C_12  and  C_13
REMARK    9  A    between atoms: C_12  and  C_14
REMARK   10  A    between atoms: C_12  and  C_15
REMARK   11  A    between atoms: C_16  and  C_17
REMARK   12  A    between atoms: C_16  and  C_18
REMARK   13  A    between atoms: C_20  and  O_21
REMARK   14  A    between atoms: O_21  and  S_22
REMARK   15  A    between atoms: S_22  and  C_23
REMARK                            x       y       z     vdW  Elec       q    Type
REMARK                         _______ _______ _______ _____ _____    ______ ____
ROOT
ATOM      1  C   UNL     1       1.017   9.903  19.020  0.00  0.00    +0.000 A 
ATOM      2  C   UNL     1       1.370   9.060  17.963  0.00  0.00    +0.000 A 
ATOM      3  C   UNL     1       1.991   7.828  18.208  0.00  0.00    +0.000 A 
ATOM      4  C   UNL     1       2.261   7.395  19.517  0.00  0.00    +0.000 A 
ATOM      5  C   UNL     1       1.922   8.252  20.576  0.00  0.00    +0.000 A 
ATOM      6  C   UNL     1       1.326   9.497  20.322  0.00  0.00    +0.000 A 
ENDROOT
BRANCH   1   8
ATOM      7  C   UNL     1       1.141  12.262  18.683  0.00  0.00    +0.000 C 
ATOM      8  O   UNL     1       0.356  11.095  18.893  0.00  0.00    +0.000 OA
ENDBRANCH   1   8
BRANCH   4   9
ATOM      9  C   UNL     1       2.952   6.076  19.765  0.00  0.00    +0.000 C 
BRANCH   9  10
ATOM     10  N   UNL     1       3.180   5.035  18.730  0.00  0.00    +0.000 N 
ATOM     11  C   UNL     1       4.037   5.009  17.629  0.00  0.00    +0.000 C 
ATOM     12  O   UNL     1       4.035   4.036  16.865  0.00  0.00    +0.000 OA
BRANCH  10  13
ATOM     13  C   UNL     1       2.457   3.741  18.955  0.00  0.00    +0.000 C 
ATOM     14  C   UNL     1       3.299   2.783  19.808  0.00  0.00    +0.000 C 
ATOM     15  C   UNL     1       1.046   3.864  19.541  0.00  0.00    +0.000 C 
ENDBRANCH  10  13
BRANCH  11  16
ATOM     16  C   UNL     1       5.001   6.131  17.296  0.00  0.00    +0.000 C 
BRANCH  16  17
ATOM     17  C   UNL     1       6.482   5.858  17.676  0.00  0.00    +0.000 C 
ATOM     18  C   UNL     1       7.351   7.121  17.531  0.00  0.00    +0.000 C 
ATOM     19  C   UNL     1       6.512   5.421  19.156  0.00  0.00    +0.000 C 
ATOM     20  C   UNL     1       7.089   4.733  16.823  0.00  0.00    +0.000 C 
ENDBRANCH  16  17
ENDBRANCH  11  16
ENDBRANCH   9  10
ENDBRANCH   4   9
BRANCH   6  21
ATOM     21  O   UNL     1       0.953  10.243  21.410  0.00  0.00    +0.000 OA
BRANCH  21  22
ATOM     22  S   UNL     1      -0.065   9.625  22.535  0.00  0.00    +0.000 S 
ATOM     23  C   UNL     1      -1.197  10.996  22.590  0.00  0.00    +0.000 C 
ATOM     24  O   UNL     1      -0.764   8.506  21.928  0.00  0.00    +0.000 OA
ATOM     25  O   UNL     1       0.571   9.488  23.832  0.00  0.00    +0.000 OA
ENDBRANCH  21  22
ENDBRANCH   6  21
TORSDOF 8
ENDMDL
MODEL 8
REMARK VINA RESULT:      -6.5      1.145      3.476
REMARK  Name = 
REMARK  15 active torsions:
REMARK  status: ('A' for Active; 'I' for Inactive)
REMARK    1  A    between atoms: C_1  and  O_2
REMARK    2  A    between atoms: O_2  and  C_3
REMARK    3  A    between atoms: C_6  and  C_7
REMARK    4  A    between atoms: C_7  and  N_8
REMARK    5  A    between atoms: N_8  and  C_16
REMARK    6  A    between atoms: C_9  and  C_11
REMARK    7  A    between atoms: C_11  and  C_12
REMARK    8  A    between atoms: C_12  and  C_13
REMARK    9  A    between atoms: C_12  and  C_14
REMARK   10  A    between atoms: C_12  and  C_15
REMARK   11  A    between atoms: C_16  and  C_17
REMARK   12  A    between atoms: C_16  and  C_18
REMARK   13  A    between atoms: C_20  and  O_21
REMARK   14  A    between atoms: O_21  and  S_22
REMARK   15  A    between atoms: S_22  and  C_23
REMARK                            x       y       z     vdW  Elec       q    Type
REMARK                         _______ _______ _______ _____ _____    ______ ____
ROOT
ATOM      1  C   UNL     1       0.686   9.547  18.761  0.00  0.00    +0.000 A 
ATOM      2  C   UNL     1       1.571   9.281  17.713  0.00  0.00    +0.000 A 
ATOM      3  C   UNL     1       2.550   8.287  17.840  0.00  0.00    +0.000 A 
ATOM      4  C   UNL     1       2.662   7.518  19.010  0.00  0.00    +0.000 A 
ATOM      5  C   UNL     1       1.785   7.801  20.068  0.00  0.00    +0.000 A 
ATOM      6  C   UNL     1       0.824   8.816  19.945  0.00  0.00    +0.000 A 
ENDROOT
BRANCH   1   8
ATOM      7  C   UNL     1      -0.004  11.817  18.510  0.00  0.00    +0.000 C 
ATOM      8  O   UNL     1      -0.341  10.451  18.717  0.00  0.00    +0.000 OA
ENDBRANCH   1   8
BRANCH   4   9
ATOM      9  C   UNL     1       3.738   6.468  19.142  0.00  0.00    +0.000 C 
BRANCH   9  10
ATOM     10  N   UNL     1       4.027   5.424  18.125  0.00  0.00    +0.000 N 
ATOM     11  C   UNL     1       3.222   4.419  17.589  0.00  0.00    +0.000 C 
ATOM     12  O   UNL     1       3.689   3.621  16.766  0.00  0.00    +0.000 OA
BRANCH  10  13
ATOM     13  C   UNL     1       5.373   5.522  17.473  0.00  0.00    +0.000 C 
ATOM     14  C   UNL     1       5.647   6.952  16.990  0.00  0.00    +0.000 C 
ATOM     15  C   UNL     1       6.553   5.017  18.311  0.00  0.00    +0.000 C 
ENDBRANCH  10  13
BRANCH  11  16
ATOM     16  C   UNL     1       1.763   4.232  17.959  0.00  0.00    +0.000 C 
BRANCH  16  17
ATOM     17  C   UNL     1       1.513   3.380  19.234  0.00  0.00    +0.000 C 
ATOM     18  C   UNL     1       2.820   2.781  19.786  0.00  0.00    +0.000 C 
ATOM     19  C   UNL     1       0.919   4.314  20.309  0.00  0.00    +0.000 C 
ATOM     20  C   UNL     1       0.515   2.243  18.970  0.00  0.00    +0.000 C 
ENDBRANCH  16  17
ENDBRANCH  11  16
ENDBRANCH   9  10
ENDBRANCH   4   9
BRANCH   6  21
ATOM     21  O   UNL     1      -0.049   8.980  20.991  0.00  0.00    +0.000 OA
BRANCH  21  22
ATOM     22  S   UNL     1       0.016  10.322  21.927  0.00  0.00    +0.000 S 
ATOM     23  C   UNL     1      -0.022   9.499  23.503  0.00  0.00    +0.000 C 
ATOM     24  O   UNL     1       1.337  10.906  21.770  0.00  0.00    +0.000 OA
ATOM     25  O   UNL     1      -1.177  11.139  21.794  0.00  0.00    +0.000 OA
ENDBRANCH  21  22
ENDBRANCH   6  21
TORSDOF 8
ENDMDL
MODEL 9
REMARK VINA RESULT:      -6.5      1.089      1.694
REMARK  Name = 
REMARK  15 active torsions:
REMARK  status: ('A' for Active; 'I' for Inactive)
REMARK    1  A    between atoms: C_1  and  O_2
REMARK    2  A    between atoms: O_2  and  C_3
REMARK    3  A    between atoms: C_6  and  C_7
REMARK    4  A    between atoms: C_7  and  N_8
REMARK    5  A    between atoms: N_8  and  C_16
REMARK    6  A    between atoms: C_9  and  C_11
REMARK    7  A    between atoms: C_11  and  C_12
REMARK    8  A    between atoms: C_12  and  C_13
REMARK    9  A    between atoms: C_12  and  C_14
REMARK   10  A    between atoms: C_12  and  C_15
REMARK   11  A    between atoms: C_16  and  C_17
REMARK   12  A    between atoms: C_16  and  C_18
REMARK   13  A    between atoms: C_20  and  O_21
REMARK   14  A    between atoms: O_21  and  S_22
REMARK   15  A    between atoms: S_22  and  C_23
REMARK                            x       y       z     vdW  Elec       q    Type
REMARK                         _______ _______ _______ _____ _____    ______ ____
ROOT
ATOM      1  C   UNL     1       1.138   9.600  18.830  0.00  0.00    +0.000 A 
ATOM      2  C   UNL     1       1.513   8.809  17.741  0.00  0.00    +0.000 A 
ATOM      3  C   UNL     1       2.144   7.573  17.939  0.00  0.00    +0.000 A 
ATOM      4  C   UNL     1       2.402   7.084  19.230  0.00  0.00    +0.000 A 
ATOM      5  C   UNL     1       2.042   7.889  20.322  0.00  0.00    +0.000 A 
ATOM      6  C   UNL     1       1.436   9.139  20.117  0.00  0.00    +0.000 A 
ENDROOT
BRANCH   1   8
ATOM      7  C   UNL     1      -0.899  10.745  18.355  0.00  0.00    +0.000 C 
ATOM      8  O   UNL     1       0.466  10.790  18.748  0.00  0.00    +0.000 OA
ENDBRANCH   1   8
BRANCH   4   9
ATOM      9  C   UNL     1       3.103   5.762  19.427  0.00  0.00    +0.000 C 
BRANCH   9  10
ATOM     10  N   UNL     1       3.441   4.814  18.334  0.00  0.00    +0.000 N 
ATOM     11  C   UNL     1       4.402   4.883  17.325  0.00  0.00    +0.000 C 
ATOM     12  O   UNL     1       4.483   3.980  16.484  0.00  0.00    +0.000 OA
BRANCH  10  13
ATOM     13  C   UNL     1       2.710   3.506  18.375  0.00  0.00    +0.000 C 
ATOM     14  C   UNL     1       3.181   2.651  19.559  0.00  0.00    +0.000 C 
ATOM     15  C   UNL     1       1.180   3.601  18.373  0.00  0.00    +0.000 C 
ENDBRANCH  10  13
BRANCH  11  16
ATOM     16  C   UNL     1       5.385   6.029  17.186  0.00  0.00    +0.000 C 
BRANCH  16  17
ATOM     17  C   UNL     1       6.775   5.785  17.835  0.00  0.00    +0.000 C 
ATOM     18  C   UNL     1       7.537   4.643  17.139  0.00  0.00    +0.000 C 
ATOM     19  C   UNL     1       7.597   7.081  17.676  0.00  0.00    +0.000 C 
ATOM     20  C   UNL     1       6.654   5.465  19.333  0.00  0.00    +0.000 C 
ENDBRANCH  16  17
ENDBRANCH  11  16
ENDBRANCH   9  10
ENDBRANCH   4   9
BRANCH   6  21
ATOM     21  O   UNL     1       1.041   9.832  21.233  0.00  0.00    +0.000 OA
BRANCH  21  22
ATOM     22  S   UNL     1      -0.382   9.489  21.966  0.00  0.00    +0.000 S 
ATOM     23  C   UNL     1       0.228   9.453  23.636  0.00  0.00    +0.000 C 
ATOM     24  O   UNL     1      -1.236  10.657  21.838  0.00  0.00    +0.000 OA
ATOM     25  O   UNL     1      -0.874   8.169  21.616  0.00  0.00    +0.000 OA
ENDBRANCH  21  22
ENDBRANCH   6  21
TORSDOF 8
ENDMDL
