MODEL 1
REMARK VINA RESULT:      -7.7      0.000      0.000
REMARK  Name = 
REMARK  3 active torsions:
REMARK  status: ('A' for Active; 'I' for Inactive)
REMARK    1  A    between atoms: N_3  and  C_4
REMARK    2  A    between atoms: C_4  and  C_5
REMARK    3  A    between atoms: N_14  and  C_15
REMARK                            x       y       z     vdW  Elec       q    Type
REMARK                         _______ _______ _______ _____ _____    ______ ____
ROOT
ATOM      1  O   UNL     1       8.178   6.959  18.731  0.00  0.00    +0.000 OA
ATOM      2  C   UNL     1       7.768   7.753  17.891  0.00  0.00    +0.000 C 
ATOM      3  N   UNL     1       8.180   9.066  17.874  0.00  0.00    +0.000 N 
ATOM      4  N   UNL     1       6.904   7.469  16.856  0.00  0.00    +0.000 N 
ATOM      5  H   UNL     1       7.534   9.737  17.488  0.00  0.00    +0.000 HD
ATOM      6  H   UNL     1       6.888   8.132  16.096  0.00  0.00    +0.000 HD
ENDROOT
BRANCH   4   7
ATOM      7  C   UNL     1       6.243   6.235  16.651  0.00  0.00    +0.000 A 
ATOM      8  C   UNL     1       6.786   5.205  15.878  0.00  0.00    +0.000 A 
ATOM      9  C   UNL     1       6.115   3.990  15.729  0.00  0.00    +0.000 A 
ATOM     10  C   UNL     1       4.888   3.791  16.352  0.00  0.00    +0.000 A 
ATOM     11  C   UNL     1       4.329   4.813  17.119  0.00  0.00    +0.000 A 
ATOM     12  C   UNL     1       5.006   6.028  17.274  0.00  0.00    +0.000 A 
ENDBRANCH   4   7
BRANCH   3  13
ATOM     13  C   UNL     1       9.039   9.539  18.939  0.00  0.00    +0.000 C 
BRANCH  13  14
ATOM     14  C   UNL     1       9.515  10.945  18.682  0.00  0.00    +0.000 A 
ATOM     15  C   UNL     1       8.763  11.815  17.861  0.00  0.00    +0.000 A 
ATOM     16  C   UNL     1       9.193  13.124  17.628  0.00  0.00    +0.000 A 
ATOM     17  C   UNL     1      10.360  13.540  18.231  0.00  0.00    +0.000 A 
ATOM     18  C   UNL     1      11.116  12.696  19.030  0.00  0.00    +0.000 A 
ATOM     19  C   UNL     1      10.717  11.390  19.254  0.00  0.00    +0.000 A 
ATOM     20  C   UNL     1      12.333  13.409  19.474  0.00  0.00    +0.000 C 
ATOM     21  C   UNL     1      11.910  14.838  19.130  0.00  0.00    +0.000 C 
ATOM     22  O   UNL     1      10.895  14.795  18.098  0.00  0.00    +0.000 OA
ENDBRANCH  13  14
ENDBRANCH   3  13
TORSDOF 3
ENDMDL
MODEL 2
REMARK VINA RESULT:      -7.7      0.929      1.154
REMARK  Name = 
REMARK  3 active torsions:
REMARK  status: ('A' for Active; 'I' for Inactive)
REMARK    1  A    between atoms: N_3  and  C_4
REMARK    2  A    between atoms: C_4  and  C_5
REMARK    3  A    between atoms: N_14  and  C_15
REMARK                            x       y       z     vdW  Elec       q    Type
REMARK                         _______ _______ _______ _____ _____    ______ ____
ROOT
ATOM      1  O   UNL     1       8.344   7.074  18.801  0.00  0.00    +0.000 OA
ATOM      2  C   UNL     1       7.898   7.897  18.008  0.00  0.00    +0.000 C 
ATOM      3  N   UNL     1       8.299   9.213  18.029  0.00  0.00    +0.000 N 
ATOM      4  N   UNL     1       7.000   7.645  16.994  0.00  0.00    +0.000 N 
ATOM      5  H   UNL     1       7.636   9.892  17.692  0.00  0.00    +0.000 HD
ATOM      6  H   UNL     1       6.952   8.337  16.262  0.00  0.00    +0.000 HD
ENDROOT
BRANCH   4   7
ATOM      7  C   UNL     1       6.341   6.415  16.764  0.00  0.00    +0.000 A 
ATOM      8  C   UNL     1       6.939   5.353  16.081  0.00  0.00    +0.000 A 
ATOM      9  C   UNL     1       6.265   4.143  15.904  0.00  0.00    +0.000 A 
ATOM     10  C   UNL     1       4.980   3.981  16.410  0.00  0.00    +0.000 A 
ATOM     11  C   UNL     1       4.366   5.035  17.086  0.00  0.00    +0.000 A 
ATOM     12  C   UNL     1       5.046   6.245  17.269  0.00  0.00    +0.000 A 
ENDBRANCH   4   7
BRANCH   3  13
ATOM     13  C   UNL     1       9.193   9.651  19.080  0.00  0.00    +0.000 C 
BRANCH  13  14
ATOM     14  C   UNL     1       9.607  11.086  18.890  0.00  0.00    +0.000 A 
ATOM     15  C   UNL     1       9.228  12.070  19.831  0.00  0.00    +0.000 A 
ATOM     16  C   UNL     1       9.620  13.402  19.668  0.00  0.00    +0.000 A 
ATOM     17  C   UNL     1      10.393  13.720  18.573  0.00  0.00    +0.000 A 
ATOM     18  C   UNL     1      10.765  12.770  17.634  0.00  0.00    +0.000 A 
ATOM     19  C   UNL     1      10.368  11.451  17.769  0.00  0.00    +0.000 A 
ATOM     20  C   UNL     1      11.531  13.427  16.554  0.00  0.00    +0.000 C 
ATOM     21  C   UNL     1      11.840  14.751  17.255  0.00  0.00    +0.000 C 
ATOM     22  O   UNL     1      10.856  14.980  18.292  0.00  0.00    +0.000 OA
ENDBRANCH  13  14
ENDBRANCH   3  13
TORSDOF 3
ENDMDL
MODEL 3
REMARK VINA RESULT:      -7.7      0.088      1.079
REMARK  Name = 
REMARK  3 active torsions:
REMARK  status: ('A' for Active; 'I' for Inactive)
REMARK    1  A    between atoms: N_3  and  C_4
REMARK    2  A    between atoms: C_4  and  C_5
REMARK    3  A    between atoms: N_14  and  C_15
REMARK                            x       y       z     vdW  Elec       q    Type
REMARK                         _______ _______ _______ _____ _____    ______ ____
ROOT
ATOM      1  O   UNL     1       8.191   6.937  18.728  0.00  0.00    +0.000 OA
ATOM      2  C   UNL     1       7.781   7.724  17.883  0.00  0.00    +0.000 C 
ATOM      3  N   UNL     1       8.194   9.037  17.854  0.00  0.00    +0.000 N 
ATOM      4  N   UNL     1       6.913   7.433  16.853  0.00  0.00    +0.000 N 
ATOM      5  H   UNL     1       7.549   9.705  17.464  0.00  0.00    +0.000 HD
ATOM      6  H   UNL     1       6.896   8.089  16.088  0.00  0.00    +0.000 HD
ENDROOT
BRANCH   4   7
ATOM      7  C   UNL     1       6.249   6.199  16.661  0.00  0.00    +0.000 A 
ATOM      8  C   UNL     1       4.998   5.917  17.219  0.00  0.00    +0.000 A 
ATOM      9  C   UNL     1       4.363   4.698  16.977  0.00  0.00    +0.000 A 
ATOM     10  C   UNL     1       4.973   3.742  16.172  0.00  0.00    +0.000 A 
ATOM     11  C   UNL     1       6.224   4.005  15.616  0.00  0.00    +0.000 A 
ATOM     12  C   UNL     1       6.858   5.230  15.853  0.00  0.00    +0.000 A 
ENDBRANCH   4   7
BRANCH   3  13
ATOM     13  C   UNL     1       9.057   9.517  18.912  0.00  0.00    +0.000 C 
BRANCH  13  14
ATOM     14  C   UNL     1       9.529  10.922  18.646  0.00  0.00    +0.000 A 
ATOM     15  C   UNL     1       8.777  11.783  17.814  0.00  0.00    +0.000 A 
ATOM     16  C   UNL     1       9.202  13.092  17.573  0.00  0.00    +0.000 A 
ATOM     17  C   UNL     1      10.364  13.517  18.177  0.00  0.00    +0.000 A 
ATOM     18  C   UNL     1      11.121  12.683  18.987  0.00  0.00    +0.000 A 
ATOM     19  C   UNL     1      10.726  11.378  19.219  0.00  0.00    +0.000 A 
ATOM     20  C   UNL     1      12.333  13.404  19.430  0.00  0.00    +0.000 C 
ATOM     21  C   UNL     1      11.905  14.829  19.072  0.00  0.00    +0.000 C 
ATOM     22  O   UNL     1      10.894  14.774  18.037  0.00  0.00    +0.000 OA
ENDBRANCH  13  14
ENDBRANCH   3  13
TORSDOF 3
ENDMDL
MODEL 4
REMARK VINA RESULT:      -7.6      6.266      8.508
REMARK  Name = 
REMARK  3 active torsions:
REMARK  status: ('A' for Active; 'I' for Inactive)
REMARK    1  A    between atoms: N_3  and  C_4
REMARK    2  A    between atoms: C_4  and  C_5
REMARK    3  A    between atoms: N_14  and  C_15
REMARK                            x       y       z     vdW  Elec       q    Type
REMARK                         _______ _______ _______ _____ _____    ______ ____
ROOT
ATOM      1  O   UNL     1       2.157   6.145  18.393  0.00  0.00    +0.000 OA
ATOM      2  C   UNL     1       2.691   6.250  19.493  0.00  0.00    +0.000 C 
ATOM      3  N   UNL     1       3.636   5.348  19.928  0.00  0.00    +0.000 N 
ATOM      4  N   UNL     1       2.474   7.255  20.410  0.00  0.00    +0.000 N 
ATOM      5  H   UNL     1       3.710   5.219  20.925  0.00  0.00    +0.000 HD
ATOM      6  H   UNL     1       3.179   7.365  21.122  0.00  0.00    +0.000 HD
ENDROOT
BRANCH   4   7
ATOM      7  C   UNL     1       1.506   8.280  20.293  0.00  0.00    +0.000 A 
ATOM      8  C   UNL     1       1.384   9.079  19.153  0.00  0.00    +0.000 A 
ATOM      9  C   UNL     1       0.393  10.059  19.066  0.00  0.00    +0.000 A 
ATOM     10  C   UNL     1      -0.489  10.252  20.123  0.00  0.00    +0.000 A 
ATOM     11  C   UNL     1      -0.375   9.469  21.271  0.00  0.00    +0.000 A 
ATOM     12  C   UNL     1       0.615   8.482  21.354  0.00  0.00    +0.000 A 
ENDBRANCH   4   7
BRANCH   3  13
ATOM     13  C   UNL     1       3.927   4.194  19.105  0.00  0.00    +0.000 C 
BRANCH  13  14
ATOM     14  C   UNL     1       4.939   4.517  18.037  0.00  0.00    +0.000 A 
ATOM     15  C   UNL     1       6.180   5.099  18.382  0.00  0.00    +0.000 A 
ATOM     16  C   UNL     1       7.128   5.390  17.397  0.00  0.00    +0.000 A 
ATOM     17  C   UNL     1       6.821   5.084  16.090  0.00  0.00    +0.000 A 
ATOM     18  C   UNL     1       5.603   4.524  15.733  0.00  0.00    +0.000 A 
ATOM     19  C   UNL     1       4.644   4.248  16.691  0.00  0.00    +0.000 A 
ATOM     20  C   UNL     1       5.550   4.374  14.263  0.00  0.00    +0.000 C 
ATOM     21  C   UNL     1       7.036   4.558  13.952  0.00  0.00    +0.000 C 
ATOM     22  O   UNL     1       7.656   5.305  15.026  0.00  0.00    +0.000 OA
ENDBRANCH  13  14
ENDBRANCH   3  13
TORSDOF 3
ENDMDL
MODEL 5
REMARK VINA RESULT:      -7.6      2.326      8.692
REMARK  Name = 
REMARK  3 active torsions:
REMARK  status: ('A' for Active; 'I' for Inactive)
REMARK    1  A    between atoms: N_3  and  C_4
REMARK    2  A    between atoms: C_4  and  C_5
REMARK    3  A    between atoms: N_14  and  C_15
REMARK                            x       y       z     vdW  Elec       q    Type
REMARK                         _______ _______ _______ _____ _____    ______ ____
ROOT
ATOM      1  O   UNL     1       8.644   7.613  18.808  0.00  0.00    +0.000 OA
ATOM      2  C   UNL     1       8.095   8.347  17.992  0.00  0.00    +0.000 C 
ATOM      3  N   UNL     1       7.173   7.867  17.091  0.00  0.00    +0.000 N 
ATOM      4  N   UNL     1       8.274   9.709  17.874  0.00  0.00    +0.000 N 
ATOM      5  H   UNL     1       7.091   8.366  16.220  0.00  0.00    +0.000 HD
ATOM      6  H   UNL     1       7.559  10.208  17.368  0.00  0.00    +0.000 HD
ENDROOT
BRANCH   4   7
ATOM      7  C   UNL     1       9.213  10.481  18.597  0.00  0.00    +0.000 A 
ATOM      8  C   UNL     1       9.139  10.661  19.981  0.00  0.00    +0.000 A 
ATOM      9  C   UNL     1      10.106  11.405  20.661  0.00  0.00    +0.000 A 
ATOM     10  C   UNL     1      11.161  11.980  19.961  0.00  0.00    +0.000 A 
ATOM     11  C   UNL     1      11.243  11.817  18.578  0.00  0.00    +0.000 A 
ATOM     12  C   UNL     1      10.278  11.065  17.899  0.00  0.00    +0.000 A 
ENDBRANCH   4   7
BRANCH   3  13
ATOM     13  C   UNL     1       6.923   6.442  17.044  0.00  0.00    +0.000 C 
BRANCH  13  14
ATOM     14  C   UNL     1       5.580   6.096  17.630  0.00  0.00    +0.000 A 
ATOM     15  C   UNL     1       4.469   6.943  17.418  0.00  0.00    +0.000 A 
ATOM     16  C   UNL     1       3.216   6.621  17.948  0.00  0.00    +0.000 A 
ATOM     17  C   UNL     1       3.098   5.454  18.669  0.00  0.00    +0.000 A 
ATOM     18  C   UNL     1       4.180   4.617  18.897  0.00  0.00    +0.000 A 
ATOM     19  C   UNL     1       5.432   4.930  18.397  0.00  0.00    +0.000 A 
ATOM     20  C   UNL     1       3.751   3.488  19.750  0.00  0.00    +0.000 C 
ATOM     21  C   UNL     1       2.237   3.642  19.602  0.00  0.00    +0.000 C 
ATOM     22  O   UNL     1       1.932   5.010  19.239  0.00  0.00    +0.000 OA
ENDBRANCH  13  14
ENDBRANCH   3  13
TORSDOF 3
ENDMDL
MODEL 6
REMARK VINA RESULT:      -7.5      6.276      8.525
REMARK  Name = 
REMARK  3 active torsions:
REMARK  status: ('A' for Active; 'I' for Inactive)
REMARK    1  A    between atoms: N_3  and  C_4
REMARK    2  A    between atoms: C_4  and  C_5
REMARK    3  A    between atoms: N_14  and  C_15
REMARK                            x       y       z     vdW  Elec       q    Type
REMARK                         _______ _______ _______ _____ _____    ______ ____
ROOT
ATOM      1  O   UNL     1       2.215   6.078  18.414  0.00  0.00    +0.000 OA
ATOM      2  C   UNL     1       2.735   6.197  19.519  0.00  0.00    +0.000 C 
ATOM      3  N   UNL     1       3.683   5.309  19.972  0.00  0.00    +0.000 N 
ATOM      4  N   UNL     1       2.497   7.208  20.424  0.00  0.00    +0.000 N 
ATOM      5  H   UNL     1       3.747   5.189  20.971  0.00  0.00    +0.000 HD
ATOM      6  H   UNL     1       3.192   7.331  21.144  0.00  0.00    +0.000 HD
ENDROOT
BRANCH   4   7
ATOM      7  C   UNL     1       1.521   8.222  20.288  0.00  0.00    +0.000 A 
ATOM      8  C   UNL     1       0.594   8.520  21.292  0.00  0.00    +0.000 A 
ATOM      9  C   UNL     1      -0.332   9.552  21.129  0.00  0.00    +0.000 A 
ATOM     10  C   UNL     1      -0.344  10.299  19.956  0.00  0.00    +0.000 A 
ATOM     11  C   UNL     1       0.568  10.008  18.942  0.00  0.00    +0.000 A 
ATOM     12  C   UNL     1       1.501   8.978  19.109  0.00  0.00    +0.000 A 
ENDBRANCH   4   7
BRANCH   3  13
ATOM     13  C   UNL     1       3.996   4.151  19.162  0.00  0.00    +0.000 C 
BRANCH  13  14
ATOM     14  C   UNL     1       4.992   4.483  18.083  0.00  0.00    +0.000 A 
ATOM     15  C   UNL     1       6.244   5.047  18.416  0.00  0.00    +0.000 A 
ATOM     16  C   UNL     1       7.178   5.346  17.420  0.00  0.00    +0.000 A 
ATOM     17  C   UNL     1       6.845   5.066  16.114  0.00  0.00    +0.000 A 
ATOM     18  C   UNL     1       5.616   4.524  15.768  0.00  0.00    +0.000 A 
ATOM     19  C   UNL     1       4.671   4.241  16.738  0.00  0.00    +0.000 A 
ATOM     20  C   UNL     1       5.535   4.401  14.296  0.00  0.00    +0.000 C 
ATOM     21  C   UNL     1       7.018   4.576  13.963  0.00  0.00    +0.000 C 
ATOM     22  O   UNL     1       7.664   5.299  15.039  0.00  0.00    +0.000 OA
ENDBRANCH  13  14
ENDBRANCH   3  13
TORSDOF 3
ENDMDL
MODEL 7
REMARK VINA RESULT:      -7.4      0.986      1.371
REMARK  Name = 
REMARK  3 active torsions:
REMARK  status: ('A' for Active; 'I' for Inactive)
REMARK    1  A    between atoms: N_3  and  C_4
REMARK    2  A    between atoms: C_4  and  C_5
REMARK    3  A    between atoms: N_14  and  C_15
REMARK                            x       y       z     vdW  Elec       q    Type
REMARK                         _______ _______ _______ _____ _____    ______ ____
ROOT
ATOM      1  O   UNL     1       8.294   7.187  18.684  0.00  0.00    +0.000 OA
ATOM      2  C   UNL     1       7.805   7.970  17.877  0.00  0.00    +0.000 C 
ATOM      3  N   UNL     1       8.159   9.299  17.850  0.00  0.00    +0.000 N 
ATOM      4  N   UNL     1       6.895   7.656  16.889  0.00  0.00    +0.000 N 
ATOM      5  H   UNL     1       7.465   9.944  17.507  0.00  0.00    +0.000 HD
ATOM      6  H   UNL     1       6.809   8.324  16.138  0.00  0.00    +0.000 HD
ENDROOT
BRANCH   4   7
ATOM      7  C   UNL     1       6.276   6.398  16.711  0.00  0.00    +0.000 A 
ATOM      8  C   UNL     1       6.894   5.339  16.038  0.00  0.00    +0.000 A 
ATOM      9  C   UNL     1       6.260   4.102  15.912  0.00  0.00    +0.000 A 
ATOM     10  C   UNL     1       4.995   3.908  16.458  0.00  0.00    +0.000 A 
ATOM     11  C   UNL     1       4.362   4.958  17.124  0.00  0.00    +0.000 A 
ATOM     12  C   UNL     1       5.002   6.196  17.256  0.00  0.00    +0.000 A 
ENDBRANCH   4   7
BRANCH   3  13
ATOM     13  C   UNL     1       9.057   9.800  18.869  0.00  0.00    +0.000 C 
BRANCH  13  14
ATOM     14  C   UNL     1       9.578  11.170  18.522  0.00  0.00    +0.000 A 
ATOM     15  C   UNL     1      10.706  11.315  17.684  0.00  0.00    +0.000 A 
ATOM     16  C   UNL     1      11.187  12.583  17.348  0.00  0.00    +0.000 A 
ATOM     17  C   UNL     1      10.523  13.681  17.847  0.00  0.00    +0.000 A 
ATOM     18  C   UNL     1       9.421  13.558  18.680  0.00  0.00    +0.000 A 
ATOM     19  C   UNL     1       8.944  12.310  19.041  0.00  0.00    +0.000 A 
ATOM     20  C   UNL     1       8.974  14.904  19.097  0.00  0.00    +0.000 C 
ATOM     21  C   UNL     1       9.734  15.737  18.064  0.00  0.00    +0.000 C 
ATOM     22  O   UNL     1      10.877  14.981  17.595  0.00  0.00    +0.000 OA
ENDBRANCH  13  14
ENDBRANCH   3  13
TORSDOF 3
ENDMDL
MODEL 8
REMARK VINA RESULT:      -7.2      2.363      8.501
REMARK  Name = 
REMARK  3 active torsions:
REMARK  status: ('A' for Active; 'I' for Inactive)
REMARK    1  A    between atoms: N_3  and  C_4
REMARK    2  A    between atoms: C_4  and  C_5
REMARK    3  A    between atoms: N_14  and  C_15
REMARK                            x       y       z     vdW  Elec       q    Type
REMARK                         _______ _______ _______ _____ _____    ______ ____
ROOT
ATOM      1  O   UNL     1       8.649   7.497  18.687  0.00  0.00    +0.000 OA
ATOM      2  C   UNL     1       8.056   8.251  17.923  0.00  0.00    +0.000 C 
ATOM      3  N   UNL     1       7.138   7.783  17.011  0.00  0.00    +0.000 N 
ATOM      4  N   UNL     1       8.175   9.624  17.880  0.00  0.00    +0.000 N 
ATOM      5  H   UNL     1       7.020   8.326  16.170  0.00  0.00    +0.000 HD
ATOM      6  H   UNL     1       7.430  10.119  17.414  0.00  0.00    +0.000 HD
ENDROOT
BRANCH   4   7
ATOM      7  C   UNL     1       9.093  10.394  18.631  0.00  0.00    +0.000 A 
ATOM      8  C   UNL     1       8.992  10.553  20.016  0.00  0.00    +0.000 A 
ATOM      9  C   UNL     1       9.940  11.296  20.723  0.00  0.00    +0.000 A 
ATOM     10  C   UNL     1      11.001  11.891  20.051  0.00  0.00    +0.000 A 
ATOM     11  C   UNL     1      11.110  11.749  18.668  0.00  0.00    +0.000 A 
ATOM     12  C   UNL     1      10.164  10.998  17.961  0.00  0.00    +0.000 A 
ENDBRANCH   4   7
BRANCH   3  13
ATOM     13  C   UNL     1       6.948   6.353  16.886  0.00  0.00    +0.000 C 
BRANCH  13  14
ATOM     14  C   UNL     1       5.839   5.863  17.778  0.00  0.00    +0.000 A 
ATOM     15  C   UNL     1       5.980   4.654  18.496  0.00  0.00    +0.000 A 
ATOM     16  C   UNL     1       4.959   4.199  19.335  0.00  0.00    +0.000 A 
ATOM     17  C   UNL     1       3.822   4.969  19.448  0.00  0.00    +0.000 A 
ATOM     18  C   UNL     1       3.662   6.152  18.743  0.00  0.00    +0.000 A 
ATOM     19  C   UNL     1       4.653   6.607  17.891  0.00  0.00    +0.000 A 
ATOM     20  C   UNL     1       2.322   6.709  19.025  0.00  0.00    +0.000 C 
ATOM     21  C   UNL     1       1.974   5.875  20.260  0.00  0.00    +0.000 C 
ATOM     22  O   UNL     1       2.748   4.652  20.238  0.00  0.00    +0.000 OA
ENDBRANCH  13  14
ENDBRANCH   3  13
TORSDOF 3
ENDMDL
MODEL 9
REMARK VINA RESULT:      -7.2      2.133      8.753
REMARK  Name = 
REMARK  3 active torsions:
REMARK  status: ('A' for Active; 'I' for Inactive)
REMARK    1  A    between atoms: N_3  and  C_4
REMARK    2  A    between atoms: C_4  and  C_5
REMARK    3  A    between atoms: N_14  and  C_15
REMARK                            x       y       z     vdW  Elec       q    Type
REMARK                         _______ _______ _______ _____ _____    ______ ____
ROOT
ATOM      1  O   UNL     1       8.584   7.690  18.859  0.00  0.00    +0.000 OA
ATOM      2  C   UNL     1       8.146   8.322  17.903  0.00  0.00    +0.000 C 
ATOM      3  N   UNL     1       7.350   7.731  16.948  0.00  0.00    +0.000 N 
ATOM      4  N   UNL     1       8.337   9.665  17.660  0.00  0.00    +0.000 N 
ATOM      5  H   UNL     1       7.383   8.130  16.023  0.00  0.00    +0.000 HD
ATOM      6  H   UNL     1       7.693  10.094  17.013  0.00  0.00    +0.000 HD
ENDROOT
BRANCH   4   7
ATOM      7  C   UNL     1       9.171  10.526  18.409  0.00  0.00    +0.000 A 
ATOM      8  C   UNL     1       9.946  11.530  17.819  0.00  0.00    +0.000 A 
ATOM      9  C   UNL     1      10.731  12.381  18.599  0.00  0.00    +0.000 A 
ATOM     10  C   UNL     1      10.753  12.236  19.982  0.00  0.00    +0.000 A 
ATOM     11  C   UNL     1       9.992  11.234  20.584  0.00  0.00    +0.000 A 
ATOM     12  C   UNL     1       9.199  10.386  19.802  0.00  0.00    +0.000 A 
ENDBRANCH   4   7
BRANCH   3  13
ATOM     13  C   UNL     1       7.112   6.305  17.026  0.00  0.00    +0.000 C 
BRANCH  13  14
ATOM     14  C   UNL     1       5.676   6.002  17.361  0.00  0.00    +0.000 A 
ATOM     15  C   UNL     1       4.747   7.053  17.541  0.00  0.00    +0.000 A 
ATOM     16  C   UNL     1       3.410   6.778  17.840  0.00  0.00    +0.000 A 
ATOM     17  C   UNL     1       3.026   5.460  17.941  0.00  0.00    +0.000 A 
ATOM     18  C   UNL     1       3.926   4.417  17.779  0.00  0.00    +0.000 A 
ATOM     19  C   UNL     1       5.258   4.670  17.504  0.00  0.00    +0.000 A 
ATOM     20  C   UNL     1       3.229   3.133  18.009  0.00  0.00    +0.000 C 
ATOM     21  C   UNL     1       1.785   3.628  17.920  0.00  0.00    +0.000 C 
ATOM     22  O   UNL     1       1.749   5.044  18.220  0.00  0.00    +0.000 OA
ENDBRANCH  13  14
ENDBRANCH   3  13
TORSDOF 3
ENDMDL
