MODEL 1
REMARK VINA RESULT:      -7.5      0.000      0.000
REMARK  Name = 
REMARK  6 active torsions:
REMARK  status: ('A' for Active; 'I' for Inactive)
REMARK    1  A    between atoms: C_1  and  O_2
REMARK    2  A    between atoms: O_2  and  C_3
REMARK    3  A    between atoms: C_7  and  C_8
REMARK    4  A    between atoms: C_8  and  N_9
REMARK    5  A    between atoms: C_10  and  C_12
REMARK    6  A    between atoms: C_16  and  C_17
REMARK                            x       y       z     vdW  Elec       q    Type
REMARK                         _______ _______ _______ _____ _____    ______ ____
ROOT
ATOM      1  N   UNL     1       3.029   5.701  18.632  0.00  0.00    +0.000 N 
ATOM      2  C   UNL     1       2.451   5.893  19.861  0.00  0.00    +0.000 C 
ATOM      3  O   UNL     1       2.378   5.075  20.768  0.00  0.00    +0.000 OA
ATOM      4  H   UNL     1       3.109   6.509  18.020  0.00  0.00    +0.000 HD
ENDROOT
BRANCH   2   5
ATOM      5  C   UNL     1       1.852   7.279  20.074  0.00  0.00    +0.000 A 
ATOM      6  N   UNL     1       1.291   7.587  21.207  0.00  0.00    +0.000 NA
ATOM      7  C   UNL     1       0.807   8.858  21.243  0.00  0.00    +0.000 A 
ATOM      8  S   UNL     1       0.030   9.475  22.630  0.00  0.00    +0.000 S 
ATOM      9  C   UNL     1      -0.276  10.983  21.877  0.00  0.00    +0.000 A 
ATOM     10  C   UNL     1      -1.022  12.049  22.604  0.00  0.00    +0.000 C 
ATOM     11  C   UNL     1       0.237  11.024  20.595  0.00  0.00    +0.000 A 
ATOM     12  C   UNL     1       0.858   9.794  20.231  0.00  0.00    +0.000 A 
ATOM     13  C   UNL     1       1.497   9.413  18.987  0.00  0.00    +0.000 A 
ATOM     14  O   UNL     1       1.606  10.159  18.020  0.00  0.00    +0.000 OA
ATOM     15  N   UNL     1       1.970   8.126  18.990  0.00  0.00    +0.000 N 
ATOM     16  H   UNL     1       2.429   7.786  18.152  0.00  0.00    +0.000 HD
ENDBRANCH   2   5
BRANCH   1  17
ATOM     17  C   UNL     1       3.679   4.463  18.278  0.00  0.00    +0.000 C 
BRANCH  17  22
ATOM     18  C   UNL     1       6.737   5.937  16.524  0.00  0.00    +0.000 A 
ATOM     19  C   UNL     1       6.912   5.021  15.484  0.00  0.00    +0.000 A 
ATOM     20  C   UNL     1       6.048   3.938  15.339  0.00  0.00    +0.000 A 
ATOM     21  C   UNL     1       4.993   3.766  16.234  0.00  0.00    +0.000 A 
ATOM     22  C   UNL     1       4.795   4.674  17.286  0.00  0.00    +0.000 A 
ATOM     23  C   UNL     1       5.683   5.756  17.424  0.00  0.00    +0.000 A 
BRANCH  18  25
ATOM     24  C   UNL     1       7.727   7.729  17.737  0.00  0.00    +0.000 C 
ATOM     25  O   UNL     1       7.649   6.955  16.547  0.00  0.00    +0.000 OA
ENDBRANCH  18  25
ENDBRANCH  17  22
ENDBRANCH   1  17
TORSDOF 4
ENDMDL
MODEL 2
REMARK VINA RESULT:      -7.5      1.905      2.612
REMARK  Name = 
REMARK  6 active torsions:
REMARK  status: ('A' for Active; 'I' for Inactive)
REMARK    1  A    between atoms: C_1  and  O_2
REMARK    2  A    between atoms: O_2  and  C_3
REMARK    3  A    between atoms: C_7  and  C_8
REMARK    4  A    between atoms: C_8  and  N_9
REMARK    5  A    between atoms: C_10  and  C_12
REMARK    6  A    between atoms: C_16  and  C_17
REMARK                            x       y       z     vdW  Elec       q    Type
REMARK                         _______ _______ _______ _____ _____    ______ ____
ROOT
ATOM      1  N   UNL     1       2.659   6.547  18.644  0.00  0.00    +0.000 N 
ATOM      2  C   UNL     1       2.138   6.644  19.910  0.00  0.00    +0.000 C 
ATOM      3  O   UNL     1       2.050   5.744  20.733  0.00  0.00    +0.000 OA
ATOM      4  H   UNL     1       2.763   7.408  18.113  0.00  0.00    +0.000 HD
ENDROOT
BRANCH   2   5
ATOM      5  C   UNL     1       1.628   8.032  20.285  0.00  0.00    +0.000 A 
ATOM      6  N   UNL     1       1.377   8.912  19.362  0.00  0.00    +0.000 NA
ATOM      7  C   UNL     1       0.927  10.099  19.853  0.00  0.00    +0.000 A 
ATOM      8  S   UNL     1       0.537  11.399  18.822  0.00  0.00    +0.000 S 
ATOM      9  C   UNL     1       0.136  12.419  20.139  0.00  0.00    +0.000 A 
ATOM     10  C   UNL     1      -0.285  13.829  19.898  0.00  0.00    +0.000 C 
ATOM     11  C   UNL     1       0.268  11.763  21.347  0.00  0.00    +0.000 A 
ATOM     12  C   UNL     1       0.729  10.425  21.179  0.00  0.00    +0.000 A 
ATOM     13  C   UNL     1       1.014   9.413  22.177  0.00  0.00    +0.000 A 
ATOM     14  O   UNL     1       0.872   9.584  23.383  0.00  0.00    +0.000 OA
ATOM     15  N   UNL     1       1.466   8.233  21.641  0.00  0.00    +0.000 N 
ATOM     16  H   UNL     1       1.689   7.476  22.279  0.00  0.00    +0.000 HD
ENDBRANCH   2   5
BRANCH   1  17
ATOM     17  C   UNL     1       3.223   5.319  18.142  0.00  0.00    +0.000 C 
BRANCH  17  22
ATOM     18  C   UNL     1       6.743   5.551  16.676  0.00  0.00    +0.000 A 
ATOM     19  C   UNL     1       7.513   5.589  17.841  0.00  0.00    +0.000 A 
ATOM     20  C   UNL     1       6.907   5.531  19.094  0.00  0.00    +0.000 A 
ATOM     21  C   UNL     1       5.519   5.429  19.191  0.00  0.00    +0.000 A 
ATOM     22  C   UNL     1       4.725   5.388  18.035  0.00  0.00    +0.000 A 
ATOM     23  C   UNL     1       5.353   5.457  16.778  0.00  0.00    +0.000 A 
BRANCH  18  25
ATOM     24  C   UNL     1       6.978   4.850  14.414  0.00  0.00    +0.000 C 
ATOM     25  O   UNL     1       7.463   5.608  15.515  0.00  0.00    +0.000 OA
ENDBRANCH  18  25
ENDBRANCH  17  22
ENDBRANCH   1  17
TORSDOF 4
ENDMDL
MODEL 3
REMARK VINA RESULT:      -7.5      1.093      1.108
REMARK  Name = 
REMARK  6 active torsions:
REMARK  status: ('A' for Active; 'I' for Inactive)
REMARK    1  A    between atoms: C_1  and  O_2
REMARK    2  A    between atoms: O_2  and  C_3
REMARK    3  A    between atoms: C_7  and  C_8
REMARK    4  A    between atoms: C_8  and  N_9
REMARK    5  A    between atoms: C_10  and  C_12
REMARK    6  A    between atoms: C_16  and  C_17
REMARK                            x       y       z     vdW  Elec       q    Type
REMARK                         _______ _______ _______ _____ _____    ______ ____
ROOT
ATOM      1  N   UNL     1       2.637   5.386  17.991  0.00  0.00    +0.000 N 
ATOM      2  C   UNL     1       2.636   5.767  19.309  0.00  0.00    +0.000 C 
ATOM      3  O   UNL     1       3.048   5.114  20.256  0.00  0.00    +0.000 OA
ATOM      4  H   UNL     1       2.360   6.082  17.301  0.00  0.00    +0.000 HD
ENDROOT
BRANCH   2   5
ATOM      5  C   UNL     1       2.052   7.152  19.572  0.00  0.00    +0.000 A 
ATOM      6  N   UNL     1       1.536   7.439  20.731  0.00  0.00    +0.000 NA
ATOM      7  C   UNL     1       1.061   8.712  20.811  0.00  0.00    +0.000 A 
ATOM      8  S   UNL     1       0.340   9.304  22.239  0.00  0.00    +0.000 S 
ATOM      9  C   UNL     1       0.013  10.828  21.527  0.00  0.00    +0.000 A 
ATOM     10  C   UNL     1      -0.699  11.883  22.304  0.00  0.00    +0.000 C 
ATOM     11  C   UNL     1       0.477  10.892  20.229  0.00  0.00    +0.000 A 
ATOM     12  C   UNL     1       1.078   9.667  19.817  0.00  0.00    +0.000 A 
ATOM     13  C   UNL     1       1.667   9.309  18.542  0.00  0.00    +0.000 A 
ATOM     14  O   UNL     1       1.744  10.074  17.586  0.00  0.00    +0.000 OA
ATOM     15  N   UNL     1       2.134   8.020  18.501  0.00  0.00    +0.000 N 
ATOM     16  H   UNL     1       2.559   7.694  17.639  0.00  0.00    +0.000 HD
ENDBRANCH   2   5
BRANCH   1  17
ATOM     17  C   UNL     1       3.189   4.126  17.560  0.00  0.00    +0.000 C 
BRANCH  17  22
ATOM     18  C   UNL     1       6.988   4.535  17.638  0.00  0.00    +0.000 A 
ATOM     19  C   UNL     1       7.292   4.438  16.278  0.00  0.00    +0.000 A 
ATOM     20  C   UNL     1       6.282   4.252  15.336  0.00  0.00    +0.000 A 
ATOM     21  C   UNL     1       4.953   4.166  15.750  0.00  0.00    +0.000 A 
ATOM     22  C   UNL     1       4.623   4.261  17.111  0.00  0.00    +0.000 A 
ATOM     23  C   UNL     1       5.655   4.440  18.048  0.00  0.00    +0.000 A 
BRANCH  18  25
ATOM     24  C   UNL     1       7.980   5.764  19.418  0.00  0.00    +0.000 C 
ATOM     25  O   UNL     1       8.070   4.724  18.452  0.00  0.00    +0.000 OA
ENDBRANCH  18  25
ENDBRANCH  17  22
ENDBRANCH   1  17
TORSDOF 4
ENDMDL
MODEL 4
REMARK VINA RESULT:      -7.5      3.882      6.161
REMARK  Name = 
REMARK  6 active torsions:
REMARK  status: ('A' for Active; 'I' for Inactive)
REMARK    1  A    between atoms: C_1  and  O_2
REMARK    2  A    between atoms: O_2  and  C_3
REMARK    3  A    between atoms: C_7  and  C_8
REMARK    4  A    between atoms: C_8  and  N_9
REMARK    5  A    between atoms: C_10  and  C_12
REMARK    6  A    between atoms: C_16  and  C_17
REMARK                            x       y       z     vdW  Elec       q    Type
REMARK                         _______ _______ _______ _____ _____    ______ ____
ROOT
ATOM      1  N   UNL     1       5.812   4.417  15.176  0.00  0.00    +0.000 N 
ATOM      2  C   UNL     1       5.486   5.550  15.879  0.00  0.00    +0.000 C 
ATOM      3  O   UNL     1       5.865   6.688  15.642  0.00  0.00    +0.000 OA
ATOM      4  H   UNL     1       5.333   3.556  15.428  0.00  0.00    +0.000 HD
ENDROOT
BRANCH   2   5
ATOM      5  C   UNL     1       4.558   5.319  17.067  0.00  0.00    +0.000 A 
ATOM      6  N   UNL     1       4.489   4.149  17.631  0.00  0.00    +0.000 NA
ATOM      7  C   UNL     1       3.621   4.103  18.678  0.00  0.00    +0.000 A 
ATOM      8  S   UNL     1       3.370   2.668  19.563  0.00  0.00    +0.000 S 
ATOM      9  C   UNL     1       2.201   3.410  20.574  0.00  0.00    +0.000 A 
ATOM     10  C   UNL     1       1.509   2.617  21.629  0.00  0.00    +0.000 C 
ATOM     11  C   UNL     1       2.031   4.743  20.258  0.00  0.00    +0.000 A 
ATOM     12  C   UNL     1       2.849   5.139  19.160  0.00  0.00    +0.000 A 
ATOM     13  C   UNL     1       2.959   6.429  18.508  0.00  0.00    +0.000 A 
ATOM     14  O   UNL     1       2.328   7.423  18.850  0.00  0.00    +0.000 OA
ATOM     15  N   UNL     1       3.843   6.434  17.459  0.00  0.00    +0.000 N 
ATOM     16  H   UNL     1       3.973   7.302  16.950  0.00  0.00    +0.000 HD
ENDBRANCH   2   5
BRANCH   1  17
ATOM     17  C   UNL     1       6.645   4.460  14.001  0.00  0.00    +0.000 C 
BRANCH  17  22
ATOM     18  C   UNL     1       4.302   3.064  11.325  0.00  0.00    +0.000 A 
ATOM     19  C   UNL     1       5.103   2.066  10.766  0.00  0.00    +0.000 A 
ATOM     20  C   UNL     1       6.388   1.833  11.252  0.00  0.00    +0.000 A 
ATOM     21  C   UNL     1       6.882   2.598  12.308  0.00  0.00    +0.000 A 
ATOM     22  C   UNL     1       6.095   3.606  12.886  0.00  0.00    +0.000 A 
ATOM     23  C   UNL     1       4.803   3.834  12.378  0.00  0.00    +0.000 A 
BRANCH  18  25
ATOM     24  C   UNL     1       2.935   4.064   9.653  0.00  0.00    +0.000 C 
ATOM     25  O   UNL     1       3.062   3.181  10.761  0.00  0.00    +0.000 OA
ENDBRANCH  18  25
ENDBRANCH  17  22
ENDBRANCH   1  17
TORSDOF 4
ENDMDL
MODEL 5
REMARK VINA RESULT:      -7.4      1.707      2.082
REMARK  Name = 
REMARK  6 active torsions:
REMARK  status: ('A' for Active; 'I' for Inactive)
REMARK    1  A    between atoms: C_1  and  O_2
REMARK    2  A    between atoms: O_2  and  C_3
REMARK    3  A    between atoms: C_7  and  C_8
REMARK    4  A    between atoms: C_8  and  N_9
REMARK    5  A    between atoms: C_10  and  C_12
REMARK    6  A    between atoms: C_16  and  C_17
REMARK                            x       y       z     vdW  Elec       q    Type
REMARK                         _______ _______ _______ _____ _____    ______ ____
ROOT
ATOM      1  N   UNL     1       3.173   6.213  19.257  0.00  0.00    +0.000 N 
ATOM      2  C   UNL     1       2.139   6.348  20.149  0.00  0.00    +0.000 C 
ATOM      3  O   UNL     1       1.569   5.446  20.746  0.00  0.00    +0.000 OA
ATOM      4  H   UNL     1       3.617   7.064  18.921  0.00  0.00    +0.000 HD
ENDROOT
BRANCH   2   5
ATOM      5  C   UNL     1       1.686   7.785  20.388  0.00  0.00    +0.000 A 
ATOM      6  N   UNL     1       1.524   8.599  19.386  0.00  0.00    +0.000 NA
ATOM      7  C   UNL     1       1.115   9.842  19.760  0.00  0.00    +0.000 A 
ATOM      8  S   UNL     1       0.841  11.071  18.611  0.00  0.00    +0.000 S 
ATOM      9  C   UNL     1       0.436  12.214  19.823  0.00  0.00    +0.000 A 
ATOM     10  C   UNL     1       0.101  13.618  19.450  0.00  0.00    +0.000 C 
ATOM     11  C   UNL     1       0.479  11.653  21.084  0.00  0.00    +0.000 A 
ATOM     12  C   UNL     1       0.876  10.284  21.044  0.00  0.00    +0.000 A 
ATOM     13  C   UNL     1       1.063   9.345  22.132  0.00  0.00    +0.000 A 
ATOM     14  O   UNL     1       0.878   9.621  23.312  0.00  0.00    +0.000 OA
ATOM     15  N   UNL     1       1.476   8.105  21.714  0.00  0.00    +0.000 N 
ATOM     16  H   UNL     1       1.630   7.392  22.420  0.00  0.00    +0.000 HD
ENDBRANCH   2   5
BRANCH   1  17
ATOM     17  C   UNL     1       3.751   4.930  18.946  0.00  0.00    +0.000 C 
BRANCH  17  22
ATOM     18  C   UNL     1       6.641   6.065  16.719  0.00  0.00    +0.000 A 
ATOM     19  C   UNL     1       6.576   5.115  15.698  0.00  0.00    +0.000 A 
ATOM     20  C   UNL     1       5.604   4.117  15.717  0.00  0.00    +0.000 A 
ATOM     21  C   UNL     1       4.681   4.066  16.760  0.00  0.00    +0.000 A 
ATOM     22  C   UNL     1       4.725   5.011  17.797  0.00  0.00    +0.000 A 
ATOM     23  C   UNL     1       5.718   6.005  17.767  0.00  0.00    +0.000 A 
BRANCH  18  25
ATOM     24  C   UNL     1       7.814   7.923  17.633  0.00  0.00    +0.000 C 
ATOM     25  O   UNL     1       7.636   6.991  16.574  0.00  0.00    +0.000 OA
ENDBRANCH  18  25
ENDBRANCH  17  22
ENDBRANCH   1  17
TORSDOF 4
ENDMDL
MODEL 6
REMARK VINA RESULT:      -7.4      2.946      4.632
REMARK  Name = 
REMARK  6 active torsions:
REMARK  status: ('A' for Active; 'I' for Inactive)
REMARK    1  A    between atoms: C_1  and  O_2
REMARK    2  A    between atoms: O_2  and  C_3
REMARK    3  A    between atoms: C_7  and  C_8
REMARK    4  A    between atoms: C_8  and  N_9
REMARK    5  A    between atoms: C_10  and  C_12
REMARK    6  A    between atoms: C_16  and  C_17
REMARK                            x       y       z     vdW  Elec       q    Type
REMARK                         _______ _______ _______ _____ _____    ______ ____
ROOT
ATOM      1  N   UNL     1       2.081   7.938  19.447  0.00  0.00    +0.000 N 
ATOM      2  C   UNL     1       1.425   9.053  18.991  0.00  0.00    +0.000 C 
ATOM      3  O   UNL     1       1.441   9.494  17.851  0.00  0.00    +0.000 OA
ATOM      4  H   UNL     1       1.886   7.634  20.398  0.00  0.00    +0.000 HD
ENDROOT
BRANCH   2   5
ATOM      5  C   UNL     1       0.606   9.788  20.049  0.00  0.00    +0.000 A 
ATOM      6  N   UNL     1      -0.265  10.687  19.699  0.00  0.00    +0.000 NA
ATOM      7  C   UNL     1      -0.916  11.250  20.754  0.00  0.00    +0.000 A 
ATOM      8  S   UNL     1      -2.101  12.455  20.529  0.00  0.00    +0.000 S 
ATOM      9  C   UNL     1      -2.353  12.625  22.215  0.00  0.00    +0.000 A 
ATOM     10  C   UNL     1      -3.323  13.632  22.733  0.00  0.00    +0.000 C 
ATOM     11  C   UNL     1      -1.565  11.750  22.937  0.00  0.00    +0.000 A 
ATOM     12  C   UNL     1      -0.733  10.960  22.090  0.00  0.00    +0.000 A 
ATOM     13  C   UNL     1       0.244   9.947  22.438  0.00  0.00    +0.000 A 
ATOM     14  O   UNL     1       0.489   9.603  23.588  0.00  0.00    +0.000 OA
ATOM     15  N   UNL     1       0.877   9.406  21.348  0.00  0.00    +0.000 N 
ATOM     16  H   UNL     1       1.577   8.690  21.511  0.00  0.00    +0.000 HD
ENDBRANCH   2   5
BRANCH   1  17
ATOM     17  C   UNL     1       2.867   7.103  18.572  0.00  0.00    +0.000 C 
BRANCH  17  22
ATOM     18  C   UNL     1       1.453   3.806  19.887  0.00  0.00    +0.000 A 
ATOM     19  C   UNL     1       1.628   2.981  18.773  0.00  0.00    +0.000 A 
ATOM     20  C   UNL     1       2.206   3.477  17.607  0.00  0.00    +0.000 A 
ATOM     21  C   UNL     1       2.620   4.807  17.547  0.00  0.00    +0.000 A 
ATOM     22  C   UNL     1       2.456   5.655  18.653  0.00  0.00    +0.000 A 
ATOM     23  C   UNL     1       1.862   5.140  19.819  0.00  0.00    +0.000 A 
BRANCH  18  25
ATOM     24  C   UNL     1       1.759   2.560  21.892  0.00  0.00    +0.000 C 
ATOM     25  O   UNL     1       0.882   3.192  20.967  0.00  0.00    +0.000 OA
ENDBRANCH  18  25
ENDBRANCH  17  22
ENDBRANCH   1  17
TORSDOF 4
ENDMDL
MODEL 7
REMARK VINA RESULT:      -7.4      3.147      4.646
REMARK  Name = 
REMARK  6 active torsions:
REMARK  status: ('A' for Active; 'I' for Inactive)
REMARK    1  A    between atoms: C_1  and  O_2
REMARK    2  A    between atoms: O_2  and  C_3
REMARK    3  A    between atoms: C_7  and  C_8
REMARK    4  A    between atoms: C_8  and  N_9
REMARK    5  A    between atoms: C_10  and  C_12
REMARK    6  A    between atoms: C_16  and  C_17
REMARK                            x       y       z     vdW  Elec       q    Type
REMARK                         _______ _______ _______ _____ _____    ______ ____
ROOT
ATOM      1  N   UNL     1       1.924   7.749  19.875  0.00  0.00    +0.000 N 
ATOM      2  C   UNL     1       1.384   8.893  19.346  0.00  0.00    +0.000 C 
ATOM      3  O   UNL     1       1.498   9.288  18.194  0.00  0.00    +0.000 OA
ATOM      4  H   UNL     1       1.653   7.497  20.822  0.00  0.00    +0.000 HD
ENDROOT
BRANCH   2   5
ATOM      5  C   UNL     1       0.568   9.728  20.329  0.00  0.00    +0.000 A 
ATOM      6  N   UNL     1      -0.216  10.672  19.898  0.00  0.00    +0.000 NA
ATOM      7  C   UNL     1      -0.876  11.322  20.895  0.00  0.00    +0.000 A 
ATOM      8  S   UNL     1      -1.957  12.598  20.560  0.00  0.00    +0.000 S 
ATOM      9  C   UNL     1      -2.281  12.857  22.223  0.00  0.00    +0.000 A 
ATOM     10  C   UNL     1      -3.200  13.950  22.649  0.00  0.00    +0.000 C 
ATOM     11  C   UNL     1      -1.597  11.959  23.019  0.00  0.00    +0.000 A 
ATOM     12  C   UNL     1      -0.783  11.077  22.249  0.00  0.00    +0.000 A 
ATOM     13  C   UNL     1       0.098  10.012  22.687  0.00  0.00    +0.000 A 
ATOM     14  O   UNL     1       0.259   9.700  23.861  0.00  0.00    +0.000 OA
ATOM     15  N   UNL     1       0.744   9.382  21.654  0.00  0.00    +0.000 N 
ATOM     16  H   UNL     1       1.381   8.626  21.882  0.00  0.00    +0.000 HD
ENDBRANCH   2   5
BRANCH   1  17
ATOM     17  C   UNL     1       2.688   6.824  19.076  0.00  0.00    +0.000 C 
BRANCH  17  22
ATOM     18  C   UNL     1       2.322   3.042  18.667  0.00  0.00    +0.000 A 
ATOM     19  C   UNL     1       1.558   2.728  19.794  0.00  0.00    +0.000 A 
ATOM     20  C   UNL     1       1.153   3.726  20.678  0.00  0.00    +0.000 A 
ATOM     21  C   UNL     1       1.507   5.053  20.437  0.00  0.00    +0.000 A 
ATOM     22  C   UNL     1       2.272   5.394  19.312  0.00  0.00    +0.000 A 
ATOM     23  C   UNL     1       2.680   4.373  18.435  0.00  0.00    +0.000 A 
BRANCH  18  25
ATOM     24  C   UNL     1       3.793   1.219  18.250  0.00  0.00    +0.000 C 
ATOM     25  O   UNL     1       2.644   1.972  17.880  0.00  0.00    +0.000 OA
ENDBRANCH  18  25
ENDBRANCH  17  22
ENDBRANCH   1  17
TORSDOF 4
ENDMDL
MODEL 8
REMARK VINA RESULT:      -7.4      0.996      1.702
REMARK  Name = 
REMARK  6 active torsions:
REMARK  status: ('A' for Active; 'I' for Inactive)
REMARK    1  A    between atoms: C_1  and  O_2
REMARK    2  A    between atoms: O_2  and  C_3
REMARK    3  A    between atoms: C_7  and  C_8
REMARK    4  A    between atoms: C_8  and  N_9
REMARK    5  A    between atoms: C_10  and  C_12
REMARK    6  A    between atoms: C_16  and  C_17
REMARK                            x       y       z     vdW  Elec       q    Type
REMARK                         _______ _______ _______ _____ _____    ______ ____
ROOT
ATOM      1  N   UNL     1       2.618   6.319  18.626  0.00  0.00    +0.000 N 
ATOM      2  C   UNL     1       2.137   6.449  19.905  0.00  0.00    +0.000 C 
ATOM      3  O   UNL     1       2.152   5.595  20.779  0.00  0.00    +0.000 OA
ATOM      4  H   UNL     1       2.633   7.153  18.044  0.00  0.00    +0.000 HD
ENDROOT
BRANCH   2   5
ATOM      5  C   UNL     1       1.531   7.813  20.223  0.00  0.00    +0.000 A 
ATOM      6  N   UNL     1       0.957   8.026  21.370  0.00  0.00    +0.000 NA
ATOM      7  C   UNL     1       0.469   9.290  21.504  0.00  0.00    +0.000 A 
ATOM      8  S   UNL     1      -0.325   9.790  22.927  0.00  0.00    +0.000 S 
ATOM      9  C   UNL     1      -0.629  11.354  22.294  0.00  0.00    +0.000 A 
ATOM     10  C   UNL     1      -1.385  12.356  23.097  0.00  0.00    +0.000 C 
ATOM     11  C   UNL     1      -0.101  11.499  21.026  0.00  0.00    +0.000 A 
ATOM     12  C   UNL     1       0.528  10.304  20.571  0.00  0.00    +0.000 A 
ATOM     13  C   UNL     1       1.182  10.027  19.307  0.00  0.00    +0.000 A 
ATOM     14  O   UNL     1       1.299  10.849  18.405  0.00  0.00    +0.000 OA
ATOM     15  N   UNL     1       1.659   8.744  19.211  0.00  0.00    +0.000 N 
ATOM     16  H   UNL     1       2.128   8.474  18.354  0.00  0.00    +0.000 HD
ENDBRANCH   2   5
BRANCH   1  17
ATOM     17  C   UNL     1       3.260   5.111  18.171  0.00  0.00    +0.000 C 
BRANCH  17  22
ATOM     18  C   UNL     1       6.738   5.574  16.658  0.00  0.00    +0.000 A 
ATOM     19  C   UNL     1       7.519   5.658  17.813  0.00  0.00    +0.000 A 
ATOM     20  C   UNL     1       6.935   5.557  19.074  0.00  0.00    +0.000 A 
ATOM     21  C   UNL     1       5.559   5.366  19.189  0.00  0.00    +0.000 A 
ATOM     22  C   UNL     1       4.753   5.278  18.043  0.00  0.00    +0.000 A 
ATOM     23  C   UNL     1       5.358   5.390  16.779  0.00  0.00    +0.000 A 
BRANCH  18  25
ATOM     24  C   UNL     1       7.032   4.843  14.413  0.00  0.00    +0.000 C 
ATOM     25  O   UNL     1       7.437   5.681  15.488  0.00  0.00    +0.000 OA
ENDBRANCH  18  25
ENDBRANCH  17  22
ENDBRANCH   1  17
TORSDOF 4
ENDMDL
MODEL 9
REMARK VINA RESULT:      -7.4      3.179      8.172
REMARK  Name = 
REMARK  6 active torsions:
REMARK  status: ('A' for Active; 'I' for Inactive)
REMARK    1  A    between atoms: C_1  and  O_2
REMARK    2  A    between atoms: O_2  and  C_3
REMARK    3  A    between atoms: C_7  and  C_8
REMARK    4  A    between atoms: C_8  and  N_9
REMARK    5  A    between atoms: C_10  and  C_12
REMARK    6  A    between atoms: C_16  and  C_17
REMARK                            x       y       z     vdW  Elec       q    Type
REMARK                         _______ _______ _______ _____ _____    ______ ____
ROOT
ATOM      1  N   UNL     1       1.596   9.303  18.875  0.00  0.00    +0.000 N 
ATOM      2  C   UNL     1       1.858   8.174  19.609  0.00  0.00    +0.000 C 
ATOM      3  O   UNL     1       1.599   7.997  20.791  0.00  0.00    +0.000 OA
ATOM      4  H   UNL     1       1.772   9.262  17.874  0.00  0.00    +0.000 HD
ENDROOT
BRANCH   2   5
ATOM      5  C   UNL     1       2.544   7.054  18.834  0.00  0.00    +0.000 A 
ATOM      6  N   UNL     1       3.445   7.330  17.938  0.00  0.00    +0.000 NA
ATOM      7  C   UNL     1       3.966   6.225  17.336  0.00  0.00    +0.000 A 
ATOM      8  S   UNL     1       5.162   6.351  16.128  0.00  0.00    +0.000 S 
ATOM      9  C   UNL     1       5.216   4.653  15.902  0.00  0.00    +0.000 A 
ATOM     10  C   UNL     1       6.113   4.060  14.870  0.00  0.00    +0.000 C 
ATOM     11  C   UNL     1       4.354   4.000  16.761  0.00  0.00    +0.000 A 
ATOM     12  C   UNL     1       3.631   4.911  17.585  0.00  0.00    +0.000 A 
ATOM     13  C   UNL     1       2.626   4.645  18.595  0.00  0.00    +0.000 A 
ATOM     14  O   UNL     1       2.250   3.520  18.905  0.00  0.00    +0.000 OA
ATOM     15  N   UNL     1       2.126   5.783  19.177  0.00  0.00    +0.000 N 
ATOM     16  H   UNL     1       1.416   5.678  19.894  0.00  0.00    +0.000 HD
ENDBRANCH   2   5
BRANCH   1  17
ATOM     17  C   UNL     1       0.915  10.441  19.440  0.00  0.00    +0.000 C 
BRANCH  17  22
ATOM     18  C   UNL     1      -2.104  10.095  17.124  0.00  0.00    +0.000 A 
ATOM     19  C   UNL     1      -2.985  11.013  17.700  0.00  0.00    +0.000 A 
ATOM     20  C   UNL     1      -2.611  11.749  18.822  0.00  0.00    +0.000 A 
ATOM     21  C   UNL     1      -1.343  11.574  19.376  0.00  0.00    +0.000 A 
ATOM     22  C   UNL     1      -0.440  10.658  18.815  0.00  0.00    +0.000 A 
ATOM     23  C   UNL     1      -0.838   9.918  17.688  0.00  0.00    +0.000 A 
BRANCH  18  25
ATOM     24  C   UNL     1      -2.915  10.245  14.892  0.00  0.00    +0.000 C 
ATOM     25  O   UNL     1      -2.594   9.447  16.024  0.00  0.00    +0.000 OA
ENDBRANCH  18  25
ENDBRANCH  17  22
ENDBRANCH   1  17
TORSDOF 4
ENDMDL
