MODEL 1
REMARK VINA RESULT:      -8.0      0.000      0.000
REMARK  Name = 
REMARK  8 active torsions:
REMARK  status: ('A' for Active; 'I' for Inactive)
REMARK    1  A    between atoms: C_1  and  O_2
REMARK    2  A    between atoms: O_2  and  C_3
REMARK    3  A    between atoms: C_7  and  N_8
REMARK    4  A    between atoms: C_9  and  C_11
REMARK    5  A    between atoms: C_14  and  S_15
REMARK    6  A    between atoms: S_15  and  N_18
REMARK    7  A    between atoms: N_18  and  C_19
REMARK    8  A    between atoms: C_19  and  C_20
REMARK                            x       y       z     vdW  Elec       q    Type
REMARK                         _______ _______ _______ _____ _____    ______ ____
ROOT
ATOM      1  C   UNL     1       2.652   7.956  18.233  0.00  0.00    +0.000 A 
ATOM      2  C   UNL     1       3.630   7.868  17.229  0.00  0.00    +0.000 A 
ATOM      3  C   UNL     1       4.484   6.770  17.158  0.00  0.00    +0.000 A 
ATOM      4  C   UNL     1       4.361   5.744  18.095  0.00  0.00    +0.000 A 
ATOM      5  C   UNL     1       3.387   5.817  19.098  0.00  0.00    +0.000 A 
ATOM      6  C   UNL     1       2.545   6.934  19.182  0.00  0.00    +0.000 A 
ENDROOT
BRANCH   1   8
ATOM      7  N   UNL     1       0.703   9.177  19.083  0.00  0.00    +0.000 N 
ATOM      8  C   UNL     1       1.783   9.166  18.217  0.00  0.00    +0.000 C 
ATOM      9  O   UNL     1       2.085  10.058  17.432  0.00  0.00    +0.000 OA
ATOM     10  H   UNL     1       0.616   8.439  19.765  0.00  0.00    +0.000 HD
BRANCH   7  15
ATOM     11  C   UNL     1      -1.271  12.060  20.310  0.00  0.00    +0.000 A 
ATOM     12  C   UNL     1      -2.226  12.194  19.301  0.00  0.00    +0.000 A 
ATOM     13  C   UNL     1      -2.233  11.320  18.218  0.00  0.00    +0.000 A 
ATOM     14  C   UNL     1      -1.271  10.317  18.130  0.00  0.00    +0.000 A 
ATOM     15  C   UNL     1      -0.298  10.175  19.123  0.00  0.00    +0.000 A 
ATOM     16  C   UNL     1      -0.319  11.039  20.226  0.00  0.00    +0.000 A 
BRANCH  11  18
ATOM     17  C   UNL     1      -1.002  12.560  22.618  0.00  0.00    +0.000 C 
ATOM     18  O   UNL     1      -1.373  12.985  21.314  0.00  0.00    +0.000 OA
ENDBRANCH  11  18
ENDBRANCH   7  15
ENDBRANCH   1   8
BRANCH   4  19
ATOM     19  S   UNL     1       5.419   4.318  17.955  0.00  0.00    +0.000 S 
ATOM     20  O   UNL     1       6.265   4.529  16.802  0.00  0.00    +0.000 OA
ATOM     21  O   UNL     1       5.957   4.054  19.271  0.00  0.00    +0.000 OA
BRANCH  19  22
ATOM     22  N   UNL     1       4.337   3.064  17.626  0.00  0.00    +0.000 NA
ATOM     23  H   UNL     1       4.453   2.687  16.685  0.00  0.00    +0.000 HD
BRANCH  22  24
ATOM     24  C   UNL     1       4.203   2.045  18.676  0.00  0.00    +0.000 C 
BRANCH  24  25
ATOM     25  C   UNL     1       3.126   2.383  19.663  0.00  0.00    +0.000 A 
ATOM     26  C   UNL     1       1.824   2.677  19.249  0.00  0.00    +0.000 A 
ATOM     27  C   UNL     1       0.868   3.036  20.193  0.00  0.00    +0.000 A 
ATOM     28  C   UNL     1       1.245   3.083  21.525  0.00  0.00    +0.000 A 
ATOM     29  N   UNL     1       2.490   2.795  21.964  0.00  0.00    +0.000 NA
ATOM     30  C   UNL     1       3.399   2.456  21.026  0.00  0.00    +0.000 A 
ENDBRANCH  24  25
ENDBRANCH  22  24
ENDBRANCH  19  22
ENDBRANCH   4  19
TORSDOF 7
ENDMDL
MODEL 2
REMARK VINA RESULT:      -7.9      0.674      1.224
REMARK  Name = 
REMARK  8 active torsions:
REMARK  status: ('A' for Active; 'I' for Inactive)
REMARK    1  A    between atoms: C_1  and  O_2
REMARK    2  A    between atoms: O_2  and  C_3
REMARK    3  A    between atoms: C_7  and  N_8
REMARK    4  A    between atoms: C_9  and  C_11
REMARK    5  A    between atoms: C_14  and  S_15
REMARK    6  A    between atoms: S_15  and  N_18
REMARK    7  A    between atoms: N_18  and  C_19
REMARK    8  A    between atoms: C_19  and  C_20
REMARK                            x       y       z     vdW  Elec       q    Type
REMARK                         _______ _______ _______ _____ _____    ______ ____
ROOT
ATOM      1  C   UNL     1       2.716   7.859  18.211  0.00  0.00    +0.000 A 
ATOM      2  C   UNL     1       2.572   6.784  19.102  0.00  0.00    +0.000 A 
ATOM      3  C   UNL     1       3.365   5.645  18.982  0.00  0.00    +0.000 A 
ATOM      4  C   UNL     1       4.317   5.577  17.965  0.00  0.00    +0.000 A 
ATOM      5  C   UNL     1       4.474   6.644  17.072  0.00  0.00    +0.000 A 
ATOM      6  C   UNL     1       3.659   7.778  17.181  0.00  0.00    +0.000 A 
ENDROOT
BRANCH   1   8
ATOM      7  N   UNL     1       1.255   9.166  19.683  0.00  0.00    +0.000 N 
ATOM      8  C   UNL     1       1.827   9.034  18.430  0.00  0.00    +0.000 C 
ATOM      9  O   UNL     1       1.663   9.792  17.480  0.00  0.00    +0.000 OA
ATOM     10  H   UNL     1       1.549   8.548  20.423  0.00  0.00    +0.000 HD
BRANCH   7  15
ATOM     11  C   UNL     1      -0.530  11.694  21.719  0.00  0.00    +0.000 A 
ATOM     12  C   UNL     1      -1.550  12.083  20.849  0.00  0.00    +0.000 A 
ATOM     13  C   UNL     1      -1.663  11.500  19.591  0.00  0.00    +0.000 A 
ATOM     14  C   UNL     1      -0.744  10.533  19.189  0.00  0.00    +0.000 A 
ATOM     15  C   UNL     1       0.292  10.139  20.040  0.00  0.00    +0.000 A 
ATOM     16  C   UNL     1       0.379  10.709  21.318  0.00  0.00    +0.000 A 
BRANCH  11  18
ATOM     17  C   UNL     1      -1.677  13.126  23.230  0.00  0.00    +0.000 C 
ATOM     18  O   UNL     1      -0.529  12.347  22.921  0.00  0.00    +0.000 OA
ENDBRANCH  11  18
ENDBRANCH   7  15
ENDBRANCH   1   8
BRANCH   4  19
ATOM     19  S   UNL     1       5.366   4.141  17.861  0.00  0.00    +0.000 S 
ATOM     20  O   UNL     1       6.218   4.321  16.708  0.00  0.00    +0.000 OA
ATOM     21  O   UNL     1       5.897   3.902  19.184  0.00  0.00    +0.000 OA
BRANCH  19  22
ATOM     22  N   UNL     1       4.276   2.887  17.555  0.00  0.00    +0.000 NA
ATOM     23  H   UNL     1       4.391   2.491  16.621  0.00  0.00    +0.000 HD
BRANCH  22  24
ATOM     24  C   UNL     1       4.133   1.890  18.624  0.00  0.00    +0.000 C 
BRANCH  24  25
ATOM     25  C   UNL     1       3.081   2.272  19.621  0.00  0.00    +0.000 A 
ATOM     26  C   UNL     1       1.776   2.574  19.223  0.00  0.00    +0.000 A 
ATOM     27  C   UNL     1       0.843   2.974  20.174  0.00  0.00    +0.000 A 
ATOM     28  C   UNL     1       1.247   3.051  21.497  0.00  0.00    +0.000 A 
ATOM     29  N   UNL     1       2.495   2.756  21.921  0.00  0.00    +0.000 NA
ATOM     30  C   UNL     1       3.381   2.378  20.976  0.00  0.00    +0.000 A 
ENDBRANCH  24  25
ENDBRANCH  22  24
ENDBRANCH  19  22
ENDBRANCH   4  19
TORSDOF 7
ENDMDL
MODEL 3
REMARK VINA RESULT:      -7.9      2.821      4.653
REMARK  Name = 
REMARK  8 active torsions:
REMARK  status: ('A' for Active; 'I' for Inactive)
REMARK    1  A    between atoms: C_1  and  O_2
REMARK    2  A    between atoms: O_2  and  C_3
REMARK    3  A    between atoms: C_7  and  N_8
REMARK    4  A    between atoms: C_9  and  C_11
REMARK    5  A    between atoms: C_14  and  S_15
REMARK    6  A    between atoms: S_15  and  N_18
REMARK    7  A    between atoms: N_18  and  C_19
REMARK    8  A    between atoms: C_19  and  C_20
REMARK                            x       y       z     vdW  Elec       q    Type
REMARK                         _______ _______ _______ _____ _____    ______ ____
ROOT
ATOM      1  C   UNL     1       2.543   7.859  18.415  0.00  0.00    +0.000 A 
ATOM      2  C   UNL     1       3.496   7.656  17.404  0.00  0.00    +0.000 A 
ATOM      3  C   UNL     1       4.287   6.510  17.388  0.00  0.00    +0.000 A 
ATOM      4  C   UNL     1       4.124   5.550  18.388  0.00  0.00    +0.000 A 
ATOM      5  C   UNL     1       3.174   5.738  19.399  0.00  0.00    +0.000 A 
ATOM      6  C   UNL     1       2.396   6.904  19.426  0.00  0.00    +0.000 A 
ENDROOT
BRANCH   1   8
ATOM      7  N   UNL     1       0.775   9.303  19.310  0.00  0.00    +0.000 N 
ATOM      8  C   UNL     1       1.741   9.113  18.337  0.00  0.00    +0.000 C 
ATOM      9  O   UNL     1       1.993   9.878  17.413  0.00  0.00    +0.000 OA
ATOM     10  H   UNL     1       0.733   8.664  20.089  0.00  0.00    +0.000 HD
BRANCH   7  15
ATOM     11  C   UNL     1      -2.176  11.341  18.385  0.00  0.00    +0.000 A 
ATOM     12  C   UNL     1      -2.079  12.399  19.290  0.00  0.00    +0.000 A 
ATOM     13  C   UNL     1      -1.029  12.453  20.200  0.00  0.00    +0.000 A 
ATOM     14  C   UNL     1      -0.076  11.437  20.220  0.00  0.00    +0.000 A 
ATOM     15  C   UNL     1      -0.162  10.363  19.331  0.00  0.00    +0.000 A 
ATOM     16  C   UNL     1      -1.205  10.333  18.396  0.00  0.00    +0.000 A 
BRANCH  11  18
ATOM     17  C   UNL     1      -4.490  11.816  18.123  0.00  0.00    +0.000 C 
ATOM     18  O   UNL     1      -3.257  11.406  17.548  0.00  0.00    +0.000 OA
ENDBRANCH  11  18
ENDBRANCH   7  15
ENDBRANCH   1   8
BRANCH   4  19
ATOM     19  S   UNL     1       5.099   4.061  18.320  0.00  0.00    +0.000 S 
ATOM     20  O   UNL     1       5.981   4.080  19.465  0.00  0.00    +0.000 OA
ATOM     21  O   UNL     1       4.191   2.967  18.062  0.00  0.00    +0.000 OA
BRANCH  19  22
ATOM     22  N   UNL     1       6.012   4.260  16.913  0.00  0.00    +0.000 NA
ATOM     23  H   UNL     1       6.980   3.959  17.032  0.00  0.00    +0.000 HD
BRANCH  22  24
ATOM     24  C   UNL     1       5.380   3.798  15.671  0.00  0.00    +0.000 C 
BRANCH  24  25
ATOM     25  C   UNL     1       6.169   4.180  14.454  0.00  0.00    +0.000 A 
ATOM     26  C   UNL     1       5.969   3.542  13.227  0.00  0.00    +0.000 A 
ATOM     27  C   UNL     1       6.758   3.890  12.136  0.00  0.00    +0.000 A 
ATOM     28  C   UNL     1       7.718   4.873  12.307  0.00  0.00    +0.000 A 
ATOM     29  N   UNL     1       7.933   5.520  13.474  0.00  0.00    +0.000 NA
ATOM     30  C   UNL     1       7.158   5.157  14.518  0.00  0.00    +0.000 A 
ENDBRANCH  24  25
ENDBRANCH  22  24
ENDBRANCH  19  22
ENDBRANCH   4  19
TORSDOF 7
ENDMDL
MODEL 4
REMARK VINA RESULT:      -7.9      1.376      2.104
REMARK  Name = 
REMARK  8 active torsions:
REMARK  status: ('A' for Active; 'I' for Inactive)
REMARK    1  A    between atoms: C_1  and  O_2
REMARK    2  A    between atoms: O_2  and  C_3
REMARK    3  A    between atoms: C_7  and  N_8
REMARK    4  A    between atoms: C_9  and  C_11
REMARK    5  A    between atoms: C_14  and  S_15
REMARK    6  A    between atoms: S_15  and  N_18
REMARK    7  A    between atoms: N_18  and  C_19
REMARK    8  A    between atoms: C_19  and  C_20
REMARK                            x       y       z     vdW  Elec       q    Type
REMARK                         _______ _______ _______ _____ _____    ______ ____
ROOT
ATOM      1  C   UNL     1       2.712   7.965  18.234  0.00  0.00    +0.000 A 
ATOM      2  C   UNL     1       3.666   7.882  17.208  0.00  0.00    +0.000 A 
ATOM      3  C   UNL     1       4.509   6.777  17.102  0.00  0.00    +0.000 A 
ATOM      4  C   UNL     1       4.397   5.739  18.028  0.00  0.00    +0.000 A 
ATOM      5  C   UNL     1       3.447   5.807  19.054  0.00  0.00    +0.000 A 
ATOM      6  C   UNL     1       2.617   6.930  19.172  0.00  0.00    +0.000 A 
ENDROOT
BRANCH   1   8
ATOM      7  N   UNL     1       0.749   9.160  19.088  0.00  0.00    +0.000 N 
ATOM      8  C   UNL     1       1.854   9.182  18.255  0.00  0.00    +0.000 C 
ATOM      9  O   UNL     1       2.187  10.110  17.526  0.00  0.00    +0.000 OA
ATOM     10  H   UNL     1       0.636   8.389  19.729  0.00  0.00    +0.000 HD
BRANCH   7  15
ATOM     11  C   UNL     1      -2.163  11.221  18.096  0.00  0.00    +0.000 A 
ATOM     12  C   UNL     1      -2.260  12.104  19.172  0.00  0.00    +0.000 A 
ATOM     13  C   UNL     1      -1.352  12.035  20.224  0.00  0.00    +0.000 A 
ATOM     14  C   UNL     1      -0.350  11.066  20.212  0.00  0.00    +0.000 A 
ATOM     15  C   UNL     1      -0.245  10.164  19.150  0.00  0.00    +0.000 A 
ATOM     16  C   UNL     1      -1.144  10.263  18.079  0.00  0.00    +0.000 A 
BRANCH  11  18
ATOM     17  C   UNL     1      -4.472  11.418  17.565  0.00  0.00    +0.000 C 
ATOM     18  O   UNL     1      -3.119  11.394  17.131  0.00  0.00    +0.000 OA
ENDBRANCH  11  18
ENDBRANCH   7  15
ENDBRANCH   1   8
BRANCH   4  19
ATOM     19  S   UNL     1       5.439   4.306  17.845  0.00  0.00    +0.000 S 
ATOM     20  O   UNL     1       4.837   3.473  16.828  0.00  0.00    +0.000 OA
ATOM     21  O   UNL     1       6.802   4.777  17.751  0.00  0.00    +0.000 OA
BRANCH  19  22
ATOM     22  N   UNL     1       5.305   3.536  19.342  0.00  0.00    +0.000 NA
ATOM     23  H   UNL     1       5.065   4.186  20.093  0.00  0.00    +0.000 HD
BRANCH  22  24
ATOM     24  C   UNL     1       4.534   2.286  19.351  0.00  0.00    +0.000 C 
BRANCH  24  25
ATOM     25  C   UNL     1       3.084   2.514  19.655  0.00  0.00    +0.000 A 
ATOM     26  C   UNL     1       2.652   2.838  20.945  0.00  0.00    +0.000 A 
ATOM     27  C   UNL     1       1.293   2.991  21.195  0.00  0.00    +0.000 A 
ATOM     28  C   UNL     1       0.408   2.820  20.144  0.00  0.00    +0.000 A 
ATOM     29  N   UNL     1       0.788   2.517  18.883  0.00  0.00    +0.000 NA
ATOM     30  C   UNL     1       2.112   2.369  18.670  0.00  0.00    +0.000 A 
ENDBRANCH  24  25
ENDBRANCH  22  24
ENDBRANCH  19  22
ENDBRANCH   4  19
TORSDOF 7
ENDMDL
MODEL 5
REMARK VINA RESULT:      -7.9      2.788      4.704
REMARK  Name = 
REMARK  8 active torsions:
REMARK  status: ('A' for Active; 'I' for Inactive)
REMARK    1  A    between atoms: C_1  and  O_2
REMARK    2  A    between atoms: O_2  and  C_3
REMARK    3  A    between atoms: C_7  and  N_8
REMARK    4  A    between atoms: C_9  and  C_11
REMARK    5  A    between atoms: C_14  and  S_15
REMARK    6  A    between atoms: S_15  and  N_18
REMARK    7  A    between atoms: N_18  and  C_19
REMARK    8  A    between atoms: C_19  and  C_20
REMARK                            x       y       z     vdW  Elec       q    Type
REMARK                         _______ _______ _______ _____ _____    ______ ____
ROOT
ATOM      1  C   UNL     1       2.647   7.738  18.128  0.00  0.00    +0.000 A 
ATOM      2  C   UNL     1       1.988   6.612  18.644  0.00  0.00    +0.000 A 
ATOM      3  C   UNL     1       2.596   5.359  18.632  0.00  0.00    +0.000 A 
ATOM      4  C   UNL     1       3.880   5.226  18.103  0.00  0.00    +0.000 A 
ATOM      5  C   UNL     1       4.551   6.342  17.589  0.00  0.00    +0.000 A 
ATOM      6  C   UNL     1       3.927   7.596  17.581  0.00  0.00    +0.000 A 
ENDROOT
BRANCH   1   8
ATOM      7  N   UNL     1       1.115   9.247  19.305  0.00  0.00    +0.000 N 
ATOM      8  C   UNL     1       1.915   9.034  18.196  0.00  0.00    +0.000 C 
ATOM      9  O   UNL     1       2.071   9.811  17.261  0.00  0.00    +0.000 OA
ATOM     10  H   UNL     1       1.151   8.589  20.068  0.00  0.00    +0.000 HD
BRANCH   7  15
ATOM     11  C   UNL     1      -1.922  11.353  19.057  0.00  0.00    +0.000 A 
ATOM     12  C   UNL     1      -1.541  12.479  19.789  0.00  0.00    +0.000 A 
ATOM     13  C   UNL     1      -0.272  12.555  20.355  0.00  0.00    +0.000 A 
ATOM     14  C   UNL     1       0.619  11.495  20.204  0.00  0.00    +0.000 A 
ATOM     15  C   UNL     1       0.252  10.354  19.486  0.00  0.00    +0.000 A 
ATOM     16  C   UNL     1      -1.016  10.299  18.893  0.00  0.00    +0.000 A 
BRANCH  11  18
ATOM     17  C   UNL     1      -3.333  11.384  17.145  0.00  0.00    +0.000 C 
ATOM     18  O   UNL     1      -3.195  11.404  18.559  0.00  0.00    +0.000 OA
ENDBRANCH  11  18
ENDBRANCH   7  15
ENDBRANCH   1   8
BRANCH   4  19
ATOM     19  S   UNL     1       4.669   3.630  18.150  0.00  0.00    +0.000 S 
ATOM     20  O   UNL     1       5.369   3.540  19.411  0.00  0.00    +0.000 OA
ATOM     21  O   UNL     1       3.685   2.654  17.740  0.00  0.00    +0.000 OA
BRANCH  19  22
ATOM     22  N   UNL     1       5.797   3.719  16.896  0.00  0.00    +0.000 NA
ATOM     23  H   UNL     1       6.673   3.247  17.126  0.00  0.00    +0.000 HD
BRANCH  22  24
ATOM     24  C   UNL     1       5.283   3.424  15.552  0.00  0.00    +0.000 C 
BRANCH  24  25
ATOM     25  C   UNL     1       6.134   4.022  14.473  0.00  0.00    +0.000 A 
ATOM     26  C   UNL     1       6.020   3.610  13.142  0.00  0.00    +0.000 A 
ATOM     27  C   UNL     1       6.864   4.153  12.180  0.00  0.00    +0.000 A 
ATOM     28  C   UNL     1       7.792   5.100  12.580  0.00  0.00    +0.000 A 
ATOM     29  N   UNL     1       7.925   5.532  13.854  0.00  0.00    +0.000 NA
ATOM     30  C   UNL     1       7.098   4.982  14.767  0.00  0.00    +0.000 A 
ENDBRANCH  24  25
ENDBRANCH  22  24
ENDBRANCH  19  22
ENDBRANCH   4  19
TORSDOF 7
ENDMDL
MODEL 6
REMARK VINA RESULT:      -7.8      5.806      7.556
REMARK  Name = 
REMARK  8 active torsions:
REMARK  status: ('A' for Active; 'I' for Inactive)
REMARK    1  A    between atoms: C_1  and  O_2
REMARK    2  A    between atoms: O_2  and  C_3
REMARK    3  A    between atoms: C_7  and  N_8
REMARK    4  A    between atoms: C_9  and  C_11
REMARK    5  A    between atoms: C_14  and  S_15
REMARK    6  A    between atoms: S_15  and  N_18
REMARK    7  A    between atoms: N_18  and  C_19
REMARK    8  A    between atoms: C_19  and  C_20
REMARK                            x       y       z     vdW  Elec       q    Type
REMARK                         _______ _______ _______ _____ _____    ______ ____
ROOT
ATOM      1  C   UNL     1       8.332   8.509  18.518  0.00  0.00    +0.000 A 
ATOM      2  C   UNL     1       7.420   8.504  17.451  0.00  0.00    +0.000 A 
ATOM      3  C   UNL     1       6.729   7.344  17.107  0.00  0.00    +0.000 A 
ATOM      4  C   UNL     1       6.946   6.175  17.838  0.00  0.00    +0.000 A 
ATOM      5  C   UNL     1       7.850   6.168  18.906  0.00  0.00    +0.000 A 
ATOM      6  C   UNL     1       8.561   7.330  19.235  0.00  0.00    +0.000 A 
ENDROOT
BRANCH   1   8
ATOM      7  N   UNL     1       9.315  10.614  17.731  0.00  0.00    +0.000 N 
ATOM      8  C   UNL     1       9.012   9.802  18.811  0.00  0.00    +0.000 C 
ATOM      9  O   UNL     1       9.260  10.047  19.987  0.00  0.00    +0.000 OA
ATOM     10  H   UNL     1       8.962  10.366  16.820  0.00  0.00    +0.000 HD
BRANCH   7  15
ATOM     11  C   UNL     1      10.053  14.242  17.821  0.00  0.00    +0.000 A 
ATOM     12  C   UNL     1      11.444  14.241  17.934  0.00  0.00    +0.000 A 
ATOM     13  C   UNL     1      12.147  13.041  17.964  0.00  0.00    +0.000 A 
ATOM     14  C   UNL     1      11.458  11.832  17.898  0.00  0.00    +0.000 A 
ATOM     15  C   UNL     1      10.065  11.811  17.798  0.00  0.00    +0.000 A 
ATOM     16  C   UNL     1       9.367  13.025  17.736  0.00  0.00    +0.000 A 
BRANCH  11  18
ATOM     17  C   UNL     1      10.346  16.589  18.061  0.00  0.00    +0.000 C 
ATOM     18  O   UNL     1       9.485  15.487  17.807  0.00  0.00    +0.000 OA
ENDBRANCH  11  18
ENDBRANCH   7  15
ENDBRANCH   1   8
BRANCH   4  19
ATOM     19  S   UNL     1       6.012   4.716  17.426  0.00  0.00    +0.000 S 
ATOM     20  O   UNL     1       6.575   4.182  16.206  0.00  0.00    +0.000 OA
ATOM     21  O   UNL     1       5.894   3.929  18.632  0.00  0.00    +0.000 OA
BRANCH  19  22
ATOM     22  N   UNL     1       4.468   5.323  17.104  0.00  0.00    +0.000 NA
ATOM     23  H   UNL     1       3.954   4.745  16.437  0.00  0.00    +0.000 HD
BRANCH  22  24
ATOM     24  C   UNL     1       3.688   5.737  18.277  0.00  0.00    +0.000 C 
BRANCH  24  25
ATOM     25  C   UNL     1       2.624   4.742  18.632  0.00  0.00    +0.000 A 
ATOM     26  C   UNL     1       1.933   4.816  19.845  0.00  0.00    +0.000 A 
ATOM     27  C   UNL     1       0.990   3.843  20.158  0.00  0.00    +0.000 A 
ATOM     28  C   UNL     1       0.763   2.829  19.242  0.00  0.00    +0.000 A 
ATOM     29  N   UNL     1       1.403   2.731  18.056  0.00  0.00    +0.000 NA
ATOM     30  C   UNL     1       2.317   3.684  17.781  0.00  0.00    +0.000 A 
ENDBRANCH  24  25
ENDBRANCH  22  24
ENDBRANCH  19  22
ENDBRANCH   4  19
TORSDOF 7
ENDMDL
MODEL 7
REMARK VINA RESULT:      -7.8      1.254      2.323
REMARK  Name = 
REMARK  8 active torsions:
REMARK  status: ('A' for Active; 'I' for Inactive)
REMARK    1  A    between atoms: C_1  and  O_2
REMARK    2  A    between atoms: O_2  and  C_3
REMARK    3  A    between atoms: C_7  and  N_8
REMARK    4  A    between atoms: C_9  and  C_11
REMARK    5  A    between atoms: C_14  and  S_15
REMARK    6  A    between atoms: S_15  and  N_18
REMARK    7  A    between atoms: N_18  and  C_19
REMARK    8  A    between atoms: C_19  and  C_20
REMARK                            x       y       z     vdW  Elec       q    Type
REMARK                         _______ _______ _______ _____ _____    ______ ____
ROOT
ATOM      1  C   UNL     1       2.861   8.026  17.976  0.00  0.00    +0.000 A 
ATOM      2  C   UNL     1       2.695   7.034  18.955  0.00  0.00    +0.000 A 
ATOM      3  C   UNL     1       3.478   5.882  18.946  0.00  0.00    +0.000 A 
ATOM      4  C   UNL     1       4.443   5.717  17.952  0.00  0.00    +0.000 A 
ATOM      5  C   UNL     1       4.622   6.701  16.973  0.00  0.00    +0.000 A 
ATOM      6  C   UNL     1       3.817   7.847  16.970  0.00  0.00    +0.000 A 
ENDROOT
BRANCH   1   8
ATOM      7  N   UNL     1       0.817   9.087  18.815  0.00  0.00    +0.000 N 
ATOM      8  C   UNL     1       1.981   9.223  18.080  0.00  0.00    +0.000 C 
ATOM      9  O   UNL     1       2.351  10.238  17.499  0.00  0.00    +0.000 OA
ATOM     10  H   UNL     1       0.669   8.242  19.346  0.00  0.00    +0.000 HD
BRANCH   7  15
ATOM     11  C   UNL     1      -2.231  11.026  17.998  0.00  0.00    +0.000 A 
ATOM     12  C   UNL     1      -2.261  11.953  19.042  0.00  0.00    +0.000 A 
ATOM     13  C   UNL     1      -1.264  11.953  20.012  0.00  0.00    +0.000 A 
ATOM     14  C   UNL     1      -0.238  11.011  19.952  0.00  0.00    +0.000 A 
ATOM     15  C   UNL     1      -0.198  10.067  18.923  0.00  0.00    +0.000 A 
ATOM     16  C   UNL     1      -1.189  10.096  17.932  0.00  0.00    +0.000 A 
BRANCH  11  18
ATOM     17  C   UNL     1      -2.956  11.021  15.734  0.00  0.00    +0.000 C 
ATOM     18  O   UNL     1      -3.271  11.132  17.115  0.00  0.00    +0.000 OA
ENDBRANCH  11  18
ENDBRANCH   7  15
ENDBRANCH   1   8
BRANCH   4  19
ATOM     19  S   UNL     1       5.478   4.268  17.988  0.00  0.00    +0.000 S 
ATOM     20  O   UNL     1       6.510   4.460  16.994  0.00  0.00    +0.000 OA
ATOM     21  O   UNL     1       5.782   3.994  19.374  0.00  0.00    +0.000 OA
BRANCH  19  22
ATOM     22  N   UNL     1       4.439   3.037  17.478  0.00  0.00    +0.000 NA
ATOM     23  H   UNL     1       4.695   2.667  16.562  0.00  0.00    +0.000 HD
BRANCH  22  24
ATOM     24  C   UNL     1       4.124   2.012  18.482  0.00  0.00    +0.000 C 
BRANCH  24  25
ATOM     25  C   UNL     1       2.985   2.415  19.368  0.00  0.00    +0.000 A 
ATOM     26  C   UNL     1       3.157   2.583  20.745  0.00  0.00    +0.000 A 
ATOM     27  C   UNL     1       2.062   2.906  21.540  0.00  0.00    +0.000 A 
ATOM     28  C   UNL     1       0.829   3.059  20.928  0.00  0.00    +0.000 A 
ATOM     29  N   UNL     1       0.626   2.916  19.600  0.00  0.00    +0.000 NA
ATOM     30  C   UNL     1       1.704   2.595  18.854  0.00  0.00    +0.000 A 
ENDBRANCH  24  25
ENDBRANCH  22  24
ENDBRANCH  19  22
ENDBRANCH   4  19
TORSDOF 7
ENDMDL
MODEL 8
REMARK VINA RESULT:      -7.7      1.342      1.621
REMARK  Name = 
REMARK  8 active torsions:
REMARK  status: ('A' for Active; 'I' for Inactive)
REMARK    1  A    between atoms: C_1  and  O_2
REMARK    2  A    between atoms: O_2  and  C_3
REMARK    3  A    between atoms: C_7  and  N_8
REMARK    4  A    between atoms: C_9  and  C_11
REMARK    5  A    between atoms: C_14  and  S_15
REMARK    6  A    between atoms: S_15  and  N_18
REMARK    7  A    between atoms: N_18  and  C_19
REMARK    8  A    between atoms: C_19  and  C_20
REMARK                            x       y       z     vdW  Elec       q    Type
REMARK                         _______ _______ _______ _____ _____    ______ ____
ROOT
ATOM      1  C   UNL     1       2.244   7.773  19.190  0.00  0.00    +0.000 A 
ATOM      2  C   UNL     1       2.825   7.865  17.916  0.00  0.00    +0.000 A 
ATOM      3  C   UNL     1       3.683   6.872  17.447  0.00  0.00    +0.000 A 
ATOM      4  C   UNL     1       3.962   5.770  18.256  0.00  0.00    +0.000 A 
ATOM      5  C   UNL     1       3.385   5.664  19.528  0.00  0.00    +0.000 A 
ATOM      6  C   UNL     1       2.542   6.675  20.006  0.00  0.00    +0.000 A 
ENDROOT
BRANCH   1   8
ATOM      7  N   UNL     1       1.021   9.822  18.628  0.00  0.00    +0.000 N 
ATOM      8  C   UNL     1       1.335   8.882  19.594  0.00  0.00    +0.000 C 
ATOM      9  O   UNL     1       0.939   8.882  20.754  0.00  0.00    +0.000 OA
ATOM     10  H   UNL     1       1.311   9.661  17.676  0.00  0.00    +0.000 HD
BRANCH   7  15
ATOM     11  C   UNL     1      -1.903  12.044  19.106  0.00  0.00    +0.000 A 
ATOM     12  C   UNL     1      -1.285  13.279  19.305  0.00  0.00    +0.000 A 
ATOM     13  C   UNL     1       0.102  13.388  19.266  0.00  0.00    +0.000 A 
ATOM     14  C   UNL     1       0.879  12.254  19.043  0.00  0.00    +0.000 A 
ATOM     15  C   UNL     1       0.280  11.006  18.854  0.00  0.00    +0.000 A 
ATOM     16  C   UNL     1      -1.118  10.912  18.864  0.00  0.00    +0.000 A 
BRANCH  11  18
ATOM     17  C   UNL     1      -3.843  12.807  20.249  0.00  0.00    +0.000 C 
ATOM     18  O   UNL     1      -3.269  12.075  19.174  0.00  0.00    +0.000 OA
ENDBRANCH  11  18
ENDBRANCH   7  15
ENDBRANCH   1   8
BRANCH   4  19
ATOM     19  S   UNL     1       5.011   4.478  17.621  0.00  0.00    +0.000 S 
ATOM     20  O   UNL     1       5.573   4.961  16.380  0.00  0.00    +0.000 OA
ATOM     21  O   UNL     1       5.835   4.019  18.716  0.00  0.00    +0.000 OA
BRANCH  19  22
ATOM     22  N   UNL     1       3.926   3.227  17.288  0.00  0.00    +0.000 NA
ATOM     23  H   UNL     1       3.951   2.940  16.308  0.00  0.00    +0.000 HD
BRANCH  22  24
ATOM     24  C   UNL     1       3.920   2.115  18.247  0.00  0.00    +0.000 C 
BRANCH  24  25
ATOM     25  C   UNL     1       2.997   2.363  19.401  0.00  0.00    +0.000 A 
ATOM     26  C   UNL     1       1.651   2.680  19.203  0.00  0.00    +0.000 A 
ATOM     27  C   UNL     1       0.841   2.954  20.300  0.00  0.00    +0.000 A 
ATOM     28  C   UNL     1       1.404   2.894  21.563  0.00  0.00    +0.000 A 
ATOM     29  N   UNL     1       2.698   2.580  21.796  0.00  0.00    +0.000 NA
ATOM     30  C   UNL     1       3.462   2.326  20.713  0.00  0.00    +0.000 A 
ENDBRANCH  24  25
ENDBRANCH  22  24
ENDBRANCH  19  22
ENDBRANCH   4  19
TORSDOF 7
ENDMDL
MODEL 9
REMARK VINA RESULT:      -7.7      1.729      2.334
REMARK  Name = 
REMARK  8 active torsions:
REMARK  status: ('A' for Active; 'I' for Inactive)
REMARK    1  A    between atoms: C_1  and  O_2
REMARK    2  A    between atoms: O_2  and  C_3
REMARK    3  A    between atoms: C_7  and  N_8
REMARK    4  A    between atoms: C_9  and  C_11
REMARK    5  A    between atoms: C_14  and  S_15
REMARK    6  A    between atoms: S_15  and  N_18
REMARK    7  A    between atoms: N_18  and  C_19
REMARK    8  A    between atoms: C_19  and  C_20
REMARK                            x       y       z     vdW  Elec       q    Type
REMARK                         _______ _______ _______ _____ _____    ______ ____
ROOT
ATOM      1  C   UNL     1       1.478   8.739  19.366  0.00  0.00    +0.000 A 
ATOM      2  C   UNL     1       2.029   8.932  18.089  0.00  0.00    +0.000 A 
ATOM      3  C   UNL     1       2.926   8.012  17.550  0.00  0.00    +0.000 A 
ATOM      4  C   UNL     1       3.276   6.883  18.291  0.00  0.00    +0.000 A 
ATOM      5  C   UNL     1       2.731   6.675  19.563  0.00  0.00    +0.000 A 
ATOM      6  C   UNL     1       1.847   7.614  20.112  0.00  0.00    +0.000 A 
ENDROOT
BRANCH   1   8
ATOM      7  N   UNL     1       0.843  10.430  21.023  0.00  0.00    +0.000 N 
ATOM      8  C   UNL     1       0.522   9.775  19.847  0.00  0.00    +0.000 C 
ATOM      9  O   UNL     1      -0.481   9.964  19.169  0.00  0.00    +0.000 OA
ATOM     10  H   UNL     1       1.750  10.276  21.437  0.00  0.00    +0.000 HD
BRANCH   7  15
ATOM     11  C   UNL     1      -0.584  13.671  22.108  0.00  0.00    +0.000 A 
ATOM     12  C   UNL     1      -1.598  13.254  22.971  0.00  0.00    +0.000 A 
ATOM     13  C   UNL     1      -1.806  11.899  23.213  0.00  0.00    +0.000 A 
ATOM     14  C   UNL     1      -1.007  10.952  22.576  0.00  0.00    +0.000 A 
ATOM     15  C   UNL     1       0.006  11.349  21.699  0.00  0.00    +0.000 A 
ATOM     16  C   UNL     1       0.228  12.716  21.486  0.00  0.00    +0.000 A 
BRANCH  11  18
ATOM     17  C   UNL     1       0.650  15.519  21.264  0.00  0.00    +0.000 C 
ATOM     18  O   UNL     1      -0.490  15.027  21.955  0.00  0.00    +0.000 OA
ENDBRANCH  11  18
ENDBRANCH   7  15
ENDBRANCH   1   8
BRANCH   4  19
ATOM     19  S   UNL     1       4.376   5.684  17.565  0.00  0.00    +0.000 S 
ATOM     20  O   UNL     1       4.773   6.200  16.274  0.00  0.00    +0.000 OA
ATOM     21  O   UNL     1       5.339   5.318  18.579  0.00  0.00    +0.000 OA
BRANCH  19  22
ATOM     22  N   UNL     1       3.386   4.335  17.342  0.00  0.00    +0.000 NA
ATOM     23  H   UNL     1       3.190   4.155  16.356  0.00  0.00    +0.000 HD
BRANCH  22  24
ATOM     24  C   UNL     1       3.750   3.141  18.117  0.00  0.00    +0.000 C 
BRANCH  24  25
ATOM     25  C   UNL     1       2.925   2.996  19.360  0.00  0.00    +0.000 A 
ATOM     26  C   UNL     1       1.550   3.246  19.354  0.00  0.00    +0.000 A 
ATOM     27  C   UNL     1       0.830   3.150  20.541  0.00  0.00    +0.000 A 
ATOM     28  C   UNL     1       1.510   2.798  21.695  0.00  0.00    +0.000 A 
ATOM     29  N   UNL     1       2.835   2.537  21.736  0.00  0.00    +0.000 NA
ATOM     30  C   UNL     1       3.510   2.645  20.573  0.00  0.00    +0.000 A 
ENDBRANCH  24  25
ENDBRANCH  22  24
ENDBRANCH  19  22
ENDBRANCH   4  19
TORSDOF 7
ENDMDL
