MODEL 1
REMARK VINA RESULT:      -8.7      0.000      0.000
REMARK  Name = 
REMARK  7 active torsions:
REMARK  status: ('A' for Active; 'I' for Inactive)
REMARK    1  A    between atoms: C_1  and  C_2
REMARK    2  A    between atoms: N_7  and  C_8
REMARK    3  A    between atoms: C_8  and  C_9
REMARK    4  A    between atoms: C_17  and  N_18
REMARK    5  A    between atoms: N_18  and  C_19
REMARK    6  A    between atoms: C_20  and  C_22
REMARK    7  A    between atoms: C_25  and  C_26
REMARK                            x       y       z     vdW  Elec       q    Type
REMARK                         _______ _______ _______ _____ _____    ______ ____
ROOT
ATOM      1  C   UNL     1       1.998  14.869  18.865  0.00  0.00    +0.000 A 
ATOM      2  C   UNL     1       2.729  13.854  18.246  0.00  0.00    +0.000 A 
ATOM      3  C   UNL     1       2.156  12.605  18.096  0.00  0.00    +0.000 A 
ATOM      4  C   UNL     1       0.870  12.355  18.602  0.00  0.00    +0.000 A 
ATOM      5  C   UNL     1       0.086  13.383  19.120  0.00  0.00    +0.000 A 
ATOM      6  C   UNL     1       0.662  14.647  19.228  0.00  0.00    +0.000 A 
ATOM      7  C   UNL     1      -1.273  13.123  19.714  0.00  0.00    +0.000 C 
ATOM      8  C   UNL     1      -1.728  11.657  19.710  0.00  0.00    +0.000 C 
ATOM      9  C   UNL     1      -0.596  10.614  19.791  0.00  0.00    +0.000 C 
ATOM     10  C   UNL     1       0.414  10.934  18.667  0.00  0.00    +0.000 C 
ENDROOT
BRANCH   9  11
ATOM     11  N   UNL     1       0.036  10.390  21.139  0.00  0.00    +0.000 N 
ATOM     12  C   UNL     1      -0.408  11.208  22.260  0.00  0.00    +0.000 C 
ATOM     13  C   UNL     1       0.974   9.374  21.461  0.00  0.00    +0.000 C 
ATOM     14  O   UNL     1       1.392   9.177  22.603  0.00  0.00    +0.000 OA
BRANCH  13  15
ATOM     15  C   UNL     1       1.458   8.437  20.416  0.00  0.00    +0.000 A 
ATOM     16  C   UNL     1       1.539   7.077  20.654  0.00  0.00    +0.000 A 
ATOM     17  C   UNL     1       2.285   6.252  19.833  0.00  0.00    +0.000 A 
ATOM     18  C   UNL     1       2.770   6.703  18.605  0.00  0.00    +0.000 A 
ATOM     19  C   UNL     1       2.464   8.033  18.253  0.00  0.00    +0.000 A 
ATOM     20  C   UNL     1       1.844   8.906  19.163  0.00  0.00    +0.000 A 
BRANCH  18  21
ATOM     21  C   UNL     1       3.562   5.788  17.756  0.00  0.00    +0.000 A 
ATOM     22  C   UNL     1       3.438   4.388  17.885  0.00  0.00    +0.000 A 
ATOM     23  C   UNL     1       4.244   3.509  17.161  0.00  0.00    +0.000 A 
ATOM     24  C   UNL     1       5.169   4.023  16.270  0.00  0.00    +0.000 A 
ATOM     25  F   UNL     1       5.945   3.186  15.567  0.00  0.00    +0.000 F 
ATOM     26  C   UNL     1       5.306   5.394  16.095  0.00  0.00    +0.000 A 
ATOM     27  C   UNL     1       4.513   6.271  16.841  0.00  0.00    +0.000 A 
ENDBRANCH  18  21
ENDBRANCH  13  15
ENDBRANCH   9  11
BRANCH   1  28
ATOM     28  C   UNL     1       2.694  16.144  19.270  0.00  0.00    +0.000 C 
BRANCH  28  35
ATOM     29  C   UNL     1       7.598  17.869  22.025  0.00  0.00    +0.000 C 
ATOM     30  C   UNL     1       7.063  16.504  21.673  0.00  0.00    +0.000 C 
ATOM     31  O   UNL     1       7.760  15.503  21.836  0.00  0.00    +0.000 OA
ATOM     32  N   UNL     1       5.758  16.446  21.216  0.00  0.00    +0.000 N 
ATOM     33  C   UNL     1       5.160  15.136  20.942  0.00  0.00    +0.000 C 
ATOM     34  C   UNL     1       3.662  15.118  21.305  0.00  0.00    +0.000 C 
ATOM     35  N   UNL     1       2.868  16.237  20.733  0.00  0.00    +0.000 NA
ATOM     36  C   UNL     1       3.512  17.509  21.102  0.00  0.00    +0.000 C 
ATOM     37  C   UNL     1       4.999  17.598  20.720  0.00  0.00    +0.000 C 
ENDBRANCH  28  35
ENDBRANCH   1  28
TORSDOF 5
ENDMDL
MODEL 2
REMARK VINA RESULT:      -8.5      4.295      6.558
REMARK  Name = 
REMARK  7 active torsions:
REMARK  status: ('A' for Active; 'I' for Inactive)
REMARK    1  A    between atoms: C_1  and  C_2
REMARK    2  A    between atoms: N_7  and  C_8
REMARK    3  A    between atoms: C_8  and  C_9
REMARK    4  A    between atoms: C_17  and  N_18
REMARK    5  A    between atoms: N_18  and  C_19
REMARK    6  A    between atoms: C_20  and  C_22
REMARK    7  A    between atoms: C_25  and  C_26
REMARK                            x       y       z     vdW  Elec       q    Type
REMARK                         _______ _______ _______ _____ _____    ______ ____
ROOT
ATOM      1  C   UNL     1      -1.634  12.126  20.309  0.00  0.00    +0.000 A 
ATOM      2  C   UNL     1      -0.497  12.534  21.009  0.00  0.00    +0.000 A 
ATOM      3  C   UNL     1       0.727  11.972  20.693  0.00  0.00    +0.000 A 
ATOM      4  C   UNL     1       0.810  10.972  19.712  0.00  0.00    +0.000 A 
ATOM      5  C   UNL     1      -0.292  10.634  18.930  0.00  0.00    +0.000 A 
ATOM      6  C   UNL     1      -1.511  11.238  19.231  0.00  0.00    +0.000 A 
ATOM      7  C   UNL     1      -0.232   9.527  17.910  0.00  0.00    +0.000 C 
ATOM      8  C   UNL     1       1.116   8.803  17.796  0.00  0.00    +0.000 C 
ATOM      9  C   UNL     1       1.952   8.757  19.090  0.00  0.00    +0.000 C 
ATOM     10  C   UNL     1       2.089  10.206  19.609  0.00  0.00    +0.000 C 
ENDROOT
BRANCH   9  11
ATOM     11  N   UNL     1       1.534   7.764  20.142  0.00  0.00    +0.000 N 
ATOM     12  C   UNL     1       0.583   8.189  21.161  0.00  0.00    +0.000 C 
ATOM     13  C   UNL     1       1.906   6.395  20.190  0.00  0.00    +0.000 C 
ATOM     14  O   UNL     1       1.462   5.602  21.022  0.00  0.00    +0.000 OA
BRANCH  13  15
ATOM     15  C   UNL     1       2.822   5.827  19.169  0.00  0.00    +0.000 A 
ATOM     16  C   UNL     1       4.160   6.173  19.134  0.00  0.00    +0.000 A 
ATOM     17  C   UNL     1       4.934   5.924  18.015  0.00  0.00    +0.000 A 
ATOM     18  C   UNL     1       4.474   5.096  16.991  0.00  0.00    +0.000 A 
ATOM     19  C   UNL     1       3.190   4.537  17.155  0.00  0.00    +0.000 A 
ATOM     20  C   UNL     1       2.355   4.924  18.217  0.00  0.00    +0.000 A 
BRANCH  18  21
ATOM     21  C   UNL     1       5.333   4.853  15.812  0.00  0.00    +0.000 A 
ATOM     22  C   UNL     1       6.637   5.389  15.742  0.00  0.00    +0.000 A 
ATOM     23  C   UNL     1       7.427   5.250  14.600  0.00  0.00    +0.000 A 
ATOM     24  C   UNL     1       6.930   4.544  13.519  0.00  0.00    +0.000 A 
ATOM     25  F   UNL     1       7.684   4.402  12.420  0.00  0.00    +0.000 F 
ATOM     26  C   UNL     1       5.662   3.980  13.557  0.00  0.00    +0.000 A 
ATOM     27  C   UNL     1       4.865   4.142  14.694  0.00  0.00    +0.000 A 
ENDBRANCH  18  21
ENDBRANCH  13  15
ENDBRANCH   9  11
BRANCH   1  28
ATOM     28  C   UNL     1      -2.999  12.527  20.811  0.00  0.00    +0.000 C 
BRANCH  28  35
ATOM     29  C   UNL     1      -7.524  14.356  24.096  0.00  0.00    +0.000 C 
ATOM     30  C   UNL     1      -6.861  14.939  22.875  0.00  0.00    +0.000 C 
ATOM     31  O   UNL     1      -7.356  15.911  22.303  0.00  0.00    +0.000 OA
ATOM     32  N   UNL     1      -5.667  14.362  22.478  0.00  0.00    +0.000 N 
ATOM     33  C   UNL     1      -4.936  14.945  21.350  0.00  0.00    +0.000 C 
ATOM     34  C   UNL     1      -3.413  14.850  21.560  0.00  0.00    +0.000 C 
ATOM     35  N   UNL     1      -2.916  13.497  21.921  0.00  0.00    +0.000 NA
ATOM     36  C   UNL     1      -3.667  13.014  23.092  0.00  0.00    +0.000 C 
ATOM     37  C   UNL     1      -5.196  13.044  22.917  0.00  0.00    +0.000 C 
ENDBRANCH  28  35
ENDBRANCH   1  28
TORSDOF 5
ENDMDL
MODEL 3
REMARK VINA RESULT:      -8.5      5.589     10.943
REMARK  Name = 
REMARK  7 active torsions:
REMARK  status: ('A' for Active; 'I' for Inactive)
REMARK    1  A    between atoms: C_1  and  C_2
REMARK    2  A    between atoms: N_7  and  C_8
REMARK    3  A    between atoms: C_8  and  C_9
REMARK    4  A    between atoms: C_17  and  N_18
REMARK    5  A    between atoms: N_18  and  C_19
REMARK    6  A    between atoms: C_20  and  C_22
REMARK    7  A    between atoms: C_25  and  C_26
REMARK                            x       y       z     vdW  Elec       q    Type
REMARK                         _______ _______ _______ _____ _____    ______ ____
ROOT
ATOM      1  C   UNL     1       1.837   7.985  19.042  0.00  0.00    +0.000 A 
ATOM      2  C   UNL     1       2.062   8.672  17.848  0.00  0.00    +0.000 A 
ATOM      3  C   UNL     1       1.813  10.031  17.795  0.00  0.00    +0.000 A 
ATOM      4  C   UNL     1       1.298  10.697  18.919  0.00  0.00    +0.000 A 
ATOM      5  C   UNL     1       1.174  10.052  20.146  0.00  0.00    +0.000 A 
ATOM      6  C   UNL     1       1.468   8.691  20.196  0.00  0.00    +0.000 A 
ATOM      7  C   UNL     1       0.574  10.736  21.347  0.00  0.00    +0.000 C 
ATOM      8  C   UNL     1       0.112  12.183  21.122  0.00  0.00    +0.000 C 
ATOM      9  C   UNL     1      -0.346  12.514  19.688  0.00  0.00    +0.000 C 
ATOM     10  C   UNL     1       0.786  12.088  18.726  0.00  0.00    +0.000 C 
ENDROOT
BRANCH   9  11
ATOM     11  N   UNL     1      -1.714  12.037  19.277  0.00  0.00    +0.000 N 
ATOM     12  C   UNL     1      -1.816  11.053  18.208  0.00  0.00    +0.000 C 
ATOM     13  C   UNL     1      -2.940  12.385  19.904  0.00  0.00    +0.000 C 
ATOM     14  O   UNL     1      -4.024  11.895  19.585  0.00  0.00    +0.000 OA
BRANCH  13  15
ATOM     15  C   UNL     1      -2.960  13.332  21.046  0.00  0.00    +0.000 A 
ATOM     16  C   UNL     1      -2.631  14.664  20.880  0.00  0.00    +0.000 A 
ATOM     17  C   UNL     1      -2.324  15.466  21.964  0.00  0.00    +0.000 A 
ATOM     18  C   UNL     1      -2.580  15.043  23.269  0.00  0.00    +0.000 A 
ATOM     19  C   UNL     1      -3.158  13.765  23.419  0.00  0.00    +0.000 A 
ATOM     20  C   UNL     1      -3.316  12.901  22.322  0.00  0.00    +0.000 A 
BRANCH  18  21
ATOM     21  C   UNL     1      -2.240  15.930  24.401  0.00  0.00    +0.000 A 
ATOM     22  C   UNL     1      -2.910  17.159  24.587  0.00  0.00    +0.000 A 
ATOM     23  C   UNL     1      -2.539  18.052  25.592  0.00  0.00    +0.000 A 
ATOM     24  C   UNL     1      -1.507  17.712  26.448  0.00  0.00    +0.000 A 
ATOM     25  F   UNL     1      -1.147  18.563  27.420  0.00  0.00    +0.000 F 
ATOM     26  C   UNL     1      -0.838  16.503  26.315  0.00  0.00    +0.000 A 
ATOM     27  C   UNL     1      -1.197  15.622  25.290  0.00  0.00    +0.000 A 
ENDBRANCH  18  21
ENDBRANCH  13  15
ENDBRANCH   9  11
BRANCH   1  28
ATOM     28  C   UNL     1       1.849   6.477  19.045  0.00  0.00    +0.000 C 
BRANCH  28  35
ATOM     29  C   UNL     1       3.743   0.907  18.990  0.00  0.00    +0.000 C 
ATOM     30  C   UNL     1       4.274   2.148  19.661  0.00  0.00    +0.000 C 
ATOM     31  O   UNL     1       5.198   2.070  20.469  0.00  0.00    +0.000 OA
ATOM     32  N   UNL     1       3.706   3.352  19.281  0.00  0.00    +0.000 N 
ATOM     33  C   UNL     1       4.243   4.597  19.838  0.00  0.00    +0.000 C 
ATOM     34  C   UNL     1       4.200   5.737  18.802  0.00  0.00    +0.000 C 
ATOM     35  N   UNL     1       2.882   5.931  18.143  0.00  0.00    +0.000 NA
ATOM     36  C   UNL     1       2.447   4.646  17.569  0.00  0.00    +0.000 C 
ATOM     37  C   UNL     1       2.428   3.481  18.574  0.00  0.00    +0.000 C 
ENDBRANCH  28  35
ENDBRANCH   1  28
TORSDOF 5
ENDMDL
MODEL 4
REMARK VINA RESULT:      -8.3      1.090      1.405
REMARK  Name = 
REMARK  7 active torsions:
REMARK  status: ('A' for Active; 'I' for Inactive)
REMARK    1  A    between atoms: C_1  and  C_2
REMARK    2  A    between atoms: N_7  and  C_8
REMARK    3  A    between atoms: C_8  and  C_9
REMARK    4  A    between atoms: C_17  and  N_18
REMARK    5  A    between atoms: N_18  and  C_19
REMARK    6  A    between atoms: C_20  and  C_22
REMARK    7  A    between atoms: C_25  and  C_26
REMARK                            x       y       z     vdW  Elec       q    Type
REMARK                         _______ _______ _______ _____ _____    ______ ____
ROOT
ATOM      1  C   UNL     1       1.915  14.761  18.581  0.00  0.00    +0.000 A 
ATOM      2  C   UNL     1       2.726  13.748  18.066  0.00  0.00    +0.000 A 
ATOM      3  C   UNL     1       2.240  12.455  18.014  0.00  0.00    +0.000 A 
ATOM      4  C   UNL     1       0.962  12.162  18.516  0.00  0.00    +0.000 A 
ATOM      5  C   UNL     1       0.099  13.175  18.929  0.00  0.00    +0.000 A 
ATOM      6  C   UNL     1       0.588  14.480  18.937  0.00  0.00    +0.000 A 
ATOM      7  C   UNL     1      -1.254  12.874  19.519  0.00  0.00    +0.000 C 
ATOM      8  C   UNL     1      -1.610  11.386  19.634  0.00  0.00    +0.000 C 
ATOM      9  C   UNL     1      -0.414  10.433  19.825  0.00  0.00    +0.000 C 
ATOM     10  C   UNL     1       0.599  10.724  18.695  0.00  0.00    +0.000 C 
ENDROOT
BRANCH   9  11
ATOM     11  N   UNL     1       0.199  10.368  21.199  0.00  0.00    +0.000 N 
ATOM     12  C   UNL     1      -0.066  11.455  22.131  0.00  0.00    +0.000 C 
ATOM     13  C   UNL     1       0.949   9.284  21.726  0.00  0.00    +0.000 C 
ATOM     14  O   UNL     1       1.352   9.243  22.889  0.00  0.00    +0.000 OA
BRANCH  13  15
ATOM     15  C   UNL     1       1.235   8.089  20.892  0.00  0.00    +0.000 A 
ATOM     16  C   UNL     1       0.561   6.898  21.090  0.00  0.00    +0.000 A 
ATOM     17  C   UNL     1       1.038   5.711  20.564  0.00  0.00    +0.000 A 
ATOM     18  C   UNL     1       2.058   5.702  19.613  0.00  0.00    +0.000 A 
ATOM     19  C   UNL     1       2.574   6.956  19.226  0.00  0.00    +0.000 A 
ATOM     20  C   UNL     1       2.192   8.138  19.882  0.00  0.00    +0.000 A 
BRANCH  18  21
ATOM     21  C   UNL     1       2.538   4.413  19.074  0.00  0.00    +0.000 A 
ATOM     22  C   UNL     1       2.109   3.188  19.631  0.00  0.00    +0.000 A 
ATOM     23  C   UNL     1       2.622   1.965  19.199  0.00  0.00    +0.000 A 
ATOM     24  C   UNL     1       3.555   1.949  18.178  0.00  0.00    +0.000 A 
ATOM     25  F   UNL     1       4.050   0.778  17.754  0.00  0.00    +0.000 F 
ATOM     26  C   UNL     1       3.986   3.129  17.586  0.00  0.00    +0.000 A 
ATOM     27  C   UNL     1       3.487   4.354  18.040  0.00  0.00    +0.000 A 
ENDBRANCH  18  21
ENDBRANCH  13  15
ENDBRANCH   9  11
BRANCH   1  28
ATOM     28  C   UNL     1       2.515  16.110  18.887  0.00  0.00    +0.000 C 
BRANCH  28  35
ATOM     29  C   UNL     1       7.299  18.038  21.716  0.00  0.00    +0.000 C 
ATOM     30  C   UNL     1       6.755  16.653  21.479  0.00  0.00    +0.000 C 
ATOM     31  O   UNL     1       7.420  15.663  21.786  0.00  0.00    +0.000 OA
ATOM     32  N   UNL     1       5.475  16.567  20.959  0.00  0.00    +0.000 N 
ATOM     33  C   UNL     1       4.864  15.245  20.791  0.00  0.00    +0.000 C 
ATOM     34  C   UNL     1       3.349  15.290  21.069  0.00  0.00    +0.000 C 
ATOM     35  N   UNL     1       2.611  16.354  20.339  0.00  0.00    +0.000 NA
ATOM     36  C   UNL     1       3.262  17.648  20.609  0.00  0.00    +0.000 C 
ATOM     37  C   UNL     1       4.769  17.672  20.303  0.00  0.00    +0.000 C 
ENDBRANCH  28  35
ENDBRANCH   1  28
TORSDOF 5
ENDMDL
MODEL 5
REMARK VINA RESULT:      -8.3      4.275      6.363
REMARK  Name = 
REMARK  7 active torsions:
REMARK  status: ('A' for Active; 'I' for Inactive)
REMARK    1  A    between atoms: C_1  and  C_2
REMARK    2  A    between atoms: N_7  and  C_8
REMARK    3  A    between atoms: C_8  and  C_9
REMARK    4  A    between atoms: C_17  and  N_18
REMARK    5  A    between atoms: N_18  and  C_19
REMARK    6  A    between atoms: C_20  and  C_22
REMARK    7  A    between atoms: C_25  and  C_26
REMARK                            x       y       z     vdW  Elec       q    Type
REMARK                         _______ _______ _______ _____ _____    ______ ____
ROOT
ATOM      1  C   UNL     1      -1.300  11.913  20.362  0.00  0.00    +0.000 A 
ATOM      2  C   UNL     1      -0.068  12.361  20.840  0.00  0.00    +0.000 A 
ATOM      3  C   UNL     1       1.093  11.800  20.343  0.00  0.00    +0.000 A 
ATOM      4  C   UNL     1       1.026  10.760  19.402  0.00  0.00    +0.000 A 
ATOM      5  C   UNL     1      -0.187  10.378  18.834  0.00  0.00    +0.000 A 
ATOM      6  C   UNL     1      -1.347  10.982  19.315  0.00  0.00    +0.000 A 
ATOM      7  C   UNL     1      -0.283   9.230  17.864  0.00  0.00    +0.000 C 
ATOM      8  C   UNL     1       1.039   8.516  17.550  0.00  0.00    +0.000 C 
ATOM      9  C   UNL     1       2.084   8.533  18.682  0.00  0.00    +0.000 C 
ATOM     10  C   UNL     1       2.282  10.004  19.112  0.00  0.00    +0.000 C 
ENDROOT
BRANCH   9  11
ATOM     11  N   UNL     1       1.869   7.581  19.829  0.00  0.00    +0.000 N 
ATOM     12  C   UNL     1       0.970   7.979  20.904  0.00  0.00    +0.000 C 
ATOM     13  C   UNL     1       2.389   6.264  19.927  0.00  0.00    +0.000 C 
ATOM     14  O   UNL     1       2.108   5.492  20.845  0.00  0.00    +0.000 OA
BRANCH  13  15
ATOM     15  C   UNL     1       3.270   5.720  18.862  0.00  0.00    +0.000 A 
ATOM     16  C   UNL     1       4.476   6.321  18.552  0.00  0.00    +0.000 A 
ATOM     17  C   UNL     1       5.132   6.037  17.368  0.00  0.00    +0.000 A 
ATOM     18  C   UNL     1       4.744   4.960  16.569  0.00  0.00    +0.000 A 
ATOM     19  C   UNL     1       3.656   4.191  17.027  0.00  0.00    +0.000 A 
ATOM     20  C   UNL     1       2.901   4.584  18.145  0.00  0.00    +0.000 A 
BRANCH  18  21
ATOM     21  C   UNL     1       5.473   4.689  15.312  0.00  0.00    +0.000 A 
ATOM     22  C   UNL     1       6.762   5.221  15.091  0.00  0.00    +0.000 A 
ATOM     23  C   UNL     1       7.426   5.055  13.875  0.00  0.00    +0.000 A 
ATOM     24  C   UNL     1       6.818   4.325  12.870  0.00  0.00    +0.000 A 
ATOM     25  F   UNL     1       7.451   4.157  11.700  0.00  0.00    +0.000 F 
ATOM     26  C   UNL     1       5.561   3.765  13.055  0.00  0.00    +0.000 A 
ATOM     27  C   UNL     1       4.889   3.955  14.266  0.00  0.00    +0.000 A 
ENDBRANCH  18  21
ENDBRANCH  13  15
ENDBRANCH   9  11
BRANCH   1  28
ATOM     28  C   UNL     1      -2.566  12.320  21.074  0.00  0.00    +0.000 C 
BRANCH  28  35
ATOM     29  C   UNL     1      -5.470  16.421  24.133  0.00  0.00    +0.000 C 
ATOM     30  C   UNL     1      -5.943  15.245  23.318  0.00  0.00    +0.000 C 
ATOM     31  O   UNL     1      -7.129  14.918  23.329  0.00  0.00    +0.000 OA
ATOM     32  N   UNL     1      -4.994  14.605  22.539  0.00  0.00    +0.000 N 
ATOM     33  C   UNL     1      -5.417  13.511  21.661  0.00  0.00    +0.000 C 
ATOM     34  C   UNL     1      -4.614  13.506  20.346  0.00  0.00    +0.000 C 
ATOM     35  N   UNL     1      -3.138  13.560  20.516  0.00  0.00    +0.000 NA
ATOM     36  C   UNL     1      -2.804  14.717  21.364  0.00  0.00    +0.000 C 
ATOM     37  C   UNL     1      -3.545  14.746  22.712  0.00  0.00    +0.000 C 
ENDBRANCH  28  35
ENDBRANCH   1  28
TORSDOF 5
ENDMDL
MODEL 6
REMARK VINA RESULT:      -8.2      4.087      6.278
REMARK  Name = 
REMARK  7 active torsions:
REMARK  status: ('A' for Active; 'I' for Inactive)
REMARK    1  A    between atoms: C_1  and  C_2
REMARK    2  A    between atoms: N_7  and  C_8
REMARK    3  A    between atoms: C_8  and  C_9
REMARK    4  A    between atoms: C_17  and  N_18
REMARK    5  A    between atoms: N_18  and  C_19
REMARK    6  A    between atoms: C_20  and  C_22
REMARK    7  A    between atoms: C_25  and  C_26
REMARK                            x       y       z     vdW  Elec       q    Type
REMARK                         _______ _______ _______ _____ _____    ______ ____
ROOT
ATOM      1  C   UNL     1      -0.965  11.978  20.490  0.00  0.00    +0.000 A 
ATOM      2  C   UNL     1       0.326  12.410  20.797  0.00  0.00    +0.000 A 
ATOM      3  C   UNL     1       1.403  11.833  20.149  0.00  0.00    +0.000 A 
ATOM      4  C   UNL     1       1.196  10.793  19.228  0.00  0.00    +0.000 A 
ATOM      5  C   UNL     1      -0.088  10.428  18.828  0.00  0.00    +0.000 A 
ATOM      6  C   UNL     1      -1.164  11.047  19.460  0.00  0.00    +0.000 A 
ATOM      7  C   UNL     1      -0.328   9.282  17.882  0.00  0.00    +0.000 C 
ATOM      8  C   UNL     1       0.930   8.550  17.394  0.00  0.00    +0.000 C 
ATOM      9  C   UNL     1       2.118   8.553  18.376  0.00  0.00    +0.000 C 
ATOM     10  C   UNL     1       2.391  10.021  18.773  0.00  0.00    +0.000 C 
ENDROOT
BRANCH   9  11
ATOM     11  N   UNL     1       2.046   7.604  19.543  0.00  0.00    +0.000 N 
ATOM     12  C   UNL     1       1.152   7.925  20.647  0.00  0.00    +0.000 C 
ATOM     13  C   UNL     1       2.703   6.349  19.638  0.00  0.00    +0.000 C 
ATOM     14  O   UNL     1       2.538   5.568  20.577  0.00  0.00    +0.000 OA
BRANCH  13  15
ATOM     15  C   UNL     1       3.595   5.881  18.547  0.00  0.00    +0.000 A 
ATOM     16  C   UNL     1       4.473   6.744  17.918  0.00  0.00    +0.000 A 
ATOM     17  C   UNL     1       5.053   6.415  16.706  0.00  0.00    +0.000 A 
ATOM     18  C   UNL     1       4.979   5.117  16.200  0.00  0.00    +0.000 A 
ATOM     19  C   UNL     1       4.286   4.171  16.981  0.00  0.00    +0.000 A 
ATOM     20  C   UNL     1       3.570   4.553  18.128  0.00  0.00    +0.000 A 
BRANCH  18  21
ATOM     21  C   UNL     1       5.614   4.807  14.901  0.00  0.00    +0.000 A 
ATOM     22  C   UNL     1       5.000   3.923  13.986  0.00  0.00    +0.000 A 
ATOM     23  C   UNL     1       5.627   3.545  12.799  0.00  0.00    +0.000 A 
ATOM     24  C   UNL     1       6.869   4.072  12.495  0.00  0.00    +0.000 A 
ATOM     25  F   UNL     1       7.476   3.717  11.354  0.00  0.00    +0.000 F 
ATOM     26  C   UNL     1       7.496   4.963  13.356  0.00  0.00    +0.000 A 
ATOM     27  C   UNL     1       6.875   5.320  14.557  0.00  0.00    +0.000 A 
ENDBRANCH  18  21
ENDBRANCH  13  15
ENDBRANCH   9  11
BRANCH   1  28
ATOM     28  C   UNL     1      -2.118  12.402  21.364  0.00  0.00    +0.000 C 
BRANCH  28  35
ATOM     29  C   UNL     1      -6.386  15.599  23.848  0.00  0.00    +0.000 C 
ATOM     30  C   UNL     1      -5.917  15.476  22.421  0.00  0.00    +0.000 C 
ATOM     31  O   UNL     1      -6.553  16.003  21.509  0.00  0.00    +0.000 OA
ATOM     32  N   UNL     1      -4.729  14.794  22.213  0.00  0.00    +0.000 N 
ATOM     33  C   UNL     1      -4.182  14.719  20.856  0.00  0.00    +0.000 C 
ATOM     34  C   UNL     1      -2.643  14.770  20.870  0.00  0.00    +0.000 C 
ATOM     35  N   UNL     1      -1.994  13.807  21.798  0.00  0.00    +0.000 NA
ATOM     36  C   UNL     1      -2.567  13.990  23.143  0.00  0.00    +0.000 C 
ATOM     37  C   UNL     1      -4.102  13.902  23.193  0.00  0.00    +0.000 C 
ENDBRANCH  28  35
ENDBRANCH   1  28
TORSDOF 5
ENDMDL
MODEL 7
REMARK VINA RESULT:      -8.2      3.586      5.470
REMARK  Name = 
REMARK  7 active torsions:
REMARK  status: ('A' for Active; 'I' for Inactive)
REMARK    1  A    between atoms: C_1  and  C_2
REMARK    2  A    between atoms: N_7  and  C_8
REMARK    3  A    between atoms: C_8  and  C_9
REMARK    4  A    between atoms: C_17  and  N_18
REMARK    5  A    between atoms: N_18  and  C_19
REMARK    6  A    between atoms: C_20  and  C_22
REMARK    7  A    between atoms: C_25  and  C_26
REMARK                            x       y       z     vdW  Elec       q    Type
REMARK                         _______ _______ _______ _____ _____    ______ ____
ROOT
ATOM      1  C   UNL     1      -0.909  14.444  20.587  0.00  0.00    +0.000 A 
ATOM      2  C   UNL     1       0.485  14.496  20.599  0.00  0.00    +0.000 A 
ATOM      3  C   UNL     1       1.203  13.517  19.937  0.00  0.00    +0.000 A 
ATOM      4  C   UNL     1       0.532  12.460  19.302  0.00  0.00    +0.000 A 
ATOM      5  C   UNL     1      -0.855  12.453  19.185  0.00  0.00    +0.000 A 
ATOM      6  C   UNL     1      -1.565  13.468  19.822  0.00  0.00    +0.000 A 
ATOM      7  C   UNL     1      -1.593  11.301  18.553  0.00  0.00    +0.000 C 
ATOM      8  C   UNL     1      -0.714  10.146  18.053  0.00  0.00    +0.000 C 
ATOM      9  C   UNL     1       0.604   9.938  18.824  0.00  0.00    +0.000 C 
ATOM     10  C   UNL     1       1.348  11.292  18.852  0.00  0.00    +0.000 C 
ENDROOT
BRANCH   9  11
ATOM     11  N   UNL     1       0.515   9.258  20.165  0.00  0.00    +0.000 N 
ATOM     12  C   UNL     1      -0.484   9.726  21.117  0.00  0.00    +0.000 C 
ATOM     13  C   UNL     1       1.257   8.119  20.573  0.00  0.00    +0.000 C 
ATOM     14  O   UNL     1       1.080   7.546  21.649  0.00  0.00    +0.000 OA
BRANCH  13  15
ATOM     15  C   UNL     1       2.264   7.511  19.666  0.00  0.00    +0.000 A 
ATOM     16  C   UNL     1       2.575   8.089  18.449  0.00  0.00    +0.000 A 
ATOM     17  C   UNL     1       3.242   7.376  17.469  0.00  0.00    +0.000 A 
ATOM     18  C   UNL     1       3.847   6.152  17.754  0.00  0.00    +0.000 A 
ATOM     19  C   UNL     1       3.737   5.684  19.079  0.00  0.00    +0.000 A 
ATOM     20  C   UNL     1       2.925   6.338  20.021  0.00  0.00    +0.000 A 
BRANCH  18  21
ATOM     21  C   UNL     1       4.552   5.422  16.679  0.00  0.00    +0.000 A 
ATOM     22  C   UNL     1       4.604   4.011  16.672  0.00  0.00    +0.000 A 
ATOM     23  C   UNL     1       5.343   3.309  15.720  0.00  0.00    +0.000 A 
ATOM     24  C   UNL     1       6.018   4.011  14.739  0.00  0.00    +0.000 A 
ATOM     25  F   UNL     1       6.727   3.344  13.818  0.00  0.00    +0.000 F 
ATOM     26  C   UNL     1       5.973   5.399  14.695  0.00  0.00    +0.000 A 
ATOM     27  C   UNL     1       5.251   6.099  15.666  0.00  0.00    +0.000 A 
ENDBRANCH  18  21
ENDBRANCH  13  15
ENDBRANCH   9  11
BRANCH   1  28
ATOM     28  C   UNL     1      -1.695  15.339  21.511  0.00  0.00    +0.000 C 
BRANCH  28  35
ATOM     29  C   UNL     1      -6.392  17.961  23.892  0.00  0.00    +0.000 C 
ATOM     30  C   UNL     1      -5.130  17.406  24.499  0.00  0.00    +0.000 C 
ATOM     31  O   UNL     1      -4.877  17.593  25.689  0.00  0.00    +0.000 OA
ATOM     32  N   UNL     1      -4.321  16.649  23.669  0.00  0.00    +0.000 N 
ATOM     33  C   UNL     1      -3.126  16.013  24.230  0.00  0.00    +0.000 C 
ATOM     34  C   UNL     1      -2.864  14.641  23.579  0.00  0.00    +0.000 C 
ATOM     35  N   UNL     1      -2.861  14.646  22.093  0.00  0.00    +0.000 NA
ATOM     36  C   UNL     1      -4.118  15.252  21.620  0.00  0.00    +0.000 C 
ATOM     37  C   UNL     1      -4.404  16.646  22.205  0.00  0.00    +0.000 C 
ENDBRANCH  28  35
ENDBRANCH   1  28
TORSDOF 5
ENDMDL
MODEL 8
REMARK VINA RESULT:      -8.2      5.946     11.227
REMARK  Name = 
REMARK  7 active torsions:
REMARK  status: ('A' for Active; 'I' for Inactive)
REMARK    1  A    between atoms: C_1  and  C_2
REMARK    2  A    between atoms: N_7  and  C_8
REMARK    3  A    between atoms: C_8  and  C_9
REMARK    4  A    between atoms: C_17  and  N_18
REMARK    5  A    between atoms: N_18  and  C_19
REMARK    6  A    between atoms: C_20  and  C_22
REMARK    7  A    between atoms: C_25  and  C_26
REMARK                            x       y       z     vdW  Elec       q    Type
REMARK                         _______ _______ _______ _____ _____    ______ ____
ROOT
ATOM      1  C   UNL     1       2.257   7.843  18.624  0.00  0.00    +0.000 A 
ATOM      2  C   UNL     1       2.563   8.859  17.718  0.00  0.00    +0.000 A 
ATOM      3  C   UNL     1       2.051  10.127  17.929  0.00  0.00    +0.000 A 
ATOM      4  C   UNL     1       1.198  10.370  19.017  0.00  0.00    +0.000 A 
ATOM      5  C   UNL     1       0.974   9.398  19.989  0.00  0.00    +0.000 A 
ATOM      6  C   UNL     1       1.530   8.137  19.786  0.00  0.00    +0.000 A 
ATOM      7  C   UNL     1       0.021   9.626  21.134  0.00  0.00    +0.000 C 
ATOM      8  C   UNL     1      -0.680  10.991  21.151  0.00  0.00    +0.000 C 
ATOM      9  C   UNL     1      -0.907  11.634  19.769  0.00  0.00    +0.000 C 
ATOM     10  C   UNL     1       0.455  11.666  19.040  0.00  0.00    +0.000 C 
ENDROOT
BRANCH   9  11
ATOM     11  N   UNL     1      -2.038  11.090  18.937  0.00  0.00    +0.000 N 
ATOM     12  C   UNL     1      -1.789   9.921  18.105  0.00  0.00    +0.000 C 
ATOM     13  C   UNL     1      -3.380  11.552  18.952  0.00  0.00    +0.000 C 
ATOM     14  O   UNL     1      -4.288  11.012  18.318  0.00  0.00    +0.000 OA
BRANCH  13  15
ATOM     15  C   UNL     1      -3.773  12.700  19.808  0.00  0.00    +0.000 A 
ATOM     16  C   UNL     1      -2.873  13.702  20.121  0.00  0.00    +0.000 A 
ATOM     17  C   UNL     1      -3.114  14.578  21.164  0.00  0.00    +0.000 A 
ATOM     18  C   UNL     1      -4.370  14.652  21.768  0.00  0.00    +0.000 A 
ATOM     19  C   UNL     1      -5.366  13.790  21.267  0.00  0.00    +0.000 A 
ATOM     20  C   UNL     1      -5.065  12.798  20.318  0.00  0.00    +0.000 A 
BRANCH  18  21
ATOM     21  C   UNL     1      -4.587  15.603  22.878  0.00  0.00    +0.000 A 
ATOM     22  C   UNL     1      -3.597  15.805  23.865  0.00  0.00    +0.000 A 
ATOM     23  C   UNL     1      -3.820  16.627  24.971  0.00  0.00    +0.000 A 
ATOM     24  C   UNL     1      -5.031  17.284  25.088  0.00  0.00    +0.000 A 
ATOM     25  F   UNL     1      -5.252  18.078  26.145  0.00  0.00    +0.000 F 
ATOM     26  C   UNL     1      -6.022  17.132  24.127  0.00  0.00    +0.000 A 
ATOM     27  C   UNL     1      -5.804  16.288  23.034  0.00  0.00    +0.000 A 
ENDBRANCH  18  21
ENDBRANCH  13  15
ENDBRANCH   9  11
BRANCH   1  28
ATOM     28  C   UNL     1       2.583   6.413  18.274  0.00  0.00    +0.000 C 
BRANCH  28  35
ATOM     29  C   UNL     1       4.882   1.473  20.494  0.00  0.00    +0.000 C 
ATOM     30  C   UNL     1       4.047   1.737  19.267  0.00  0.00    +0.000 C 
ATOM     31  O   UNL     1       3.856   0.844  18.442  0.00  0.00    +0.000 OA
ATOM     32  N   UNL     1       3.481   2.995  19.158  0.00  0.00    +0.000 N 
ATOM     33  C   UNL     1       2.590   3.277  18.029  0.00  0.00    +0.000 C 
ATOM     34  C   UNL     1       1.444   4.221  18.443  0.00  0.00    +0.000 C 
ATOM     35  N   UNL     1       1.877   5.456  19.148  0.00  0.00    +0.000 NA
ATOM     36  C   UNL     1       2.721   5.074  20.293  0.00  0.00    +0.000 C 
ATOM     37  C   UNL     1       3.909   4.168  19.927  0.00  0.00    +0.000 C 
ENDBRANCH  28  35
ENDBRANCH   1  28
TORSDOF 5
ENDMDL
MODEL 9
REMARK VINA RESULT:      -8.1      5.231     10.463
REMARK  Name = 
REMARK  7 active torsions:
REMARK  status: ('A' for Active; 'I' for Inactive)
REMARK    1  A    between atoms: C_1  and  C_2
REMARK    2  A    between atoms: N_7  and  C_8
REMARK    3  A    between atoms: C_8  and  C_9
REMARK    4  A    between atoms: C_17  and  N_18
REMARK    5  A    between atoms: N_18  and  C_19
REMARK    6  A    between atoms: C_20  and  C_22
REMARK    7  A    between atoms: C_25  and  C_26
REMARK                            x       y       z     vdW  Elec       q    Type
REMARK                         _______ _______ _______ _____ _____    ______ ____
ROOT
ATOM      1  C   UNL     1       2.047   6.884  18.795  0.00  0.00    +0.000 A 
ATOM      2  C   UNL     1       2.412   7.598  17.652  0.00  0.00    +0.000 A 
ATOM      3  C   UNL     1       2.337   8.979  17.666  0.00  0.00    +0.000 A 
ATOM      4  C   UNL     1       1.856   9.646  18.803  0.00  0.00    +0.000 A 
ATOM      5  C   UNL     1       1.595   8.960  19.987  0.00  0.00    +0.000 A 
ATOM      6  C   UNL     1       1.714   7.572  19.971  0.00  0.00    +0.000 A 
ATOM      7  C   UNL     1       1.029   9.653  21.198  0.00  0.00    +0.000 C 
ATOM      8  C   UNL     1       0.761  11.155  21.037  0.00  0.00    +0.000 C 
ATOM      9  C   UNL     1       0.416  11.615  19.607  0.00  0.00    +0.000 C 
ATOM     10  C   UNL     1       1.530  11.098  18.670  0.00  0.00    +0.000 C 
ENDROOT
BRANCH   9  11
ATOM     11  N   UNL     1      -0.980  11.337  19.115  0.00  0.00    +0.000 N 
ATOM     12  C   UNL     1      -1.162  10.350  18.060  0.00  0.00    +0.000 C 
ATOM     13  C   UNL     1      -2.176  11.882  19.652  0.00  0.00    +0.000 C 
ATOM     14  O   UNL     1      -3.300  11.551  19.271  0.00  0.00    +0.000 OA
BRANCH  13  15
ATOM     15  C   UNL     1      -2.125  12.855  20.773  0.00  0.00    +0.000 A 
ATOM     16  C   UNL     1      -1.726  14.163  20.570  0.00  0.00    +0.000 A 
ATOM     17  C   UNL     1      -1.358  14.970  21.631  0.00  0.00    +0.000 A 
ATOM     18  C   UNL     1      -1.613  14.590  22.949  0.00  0.00    +0.000 A 
ATOM     19  C   UNL     1      -2.256  13.350  23.137  0.00  0.00    +0.000 A 
ATOM     20  C   UNL     1      -2.480  12.472  22.064  0.00  0.00    +0.000 A 
BRANCH  18  21
ATOM     21  C   UNL     1      -1.205  15.483  24.054  0.00  0.00    +0.000 A 
ATOM     22  C   UNL     1      -0.231  16.486  23.855  0.00  0.00    +0.000 A 
ATOM     23  C   UNL     1       0.235  17.275  24.908  0.00  0.00    +0.000 A 
ATOM     24  C   UNL     1      -0.291  17.089  26.173  0.00  0.00    +0.000 A 
ATOM     25  F   UNL     1       0.148  17.846  27.189  0.00  0.00    +0.000 F 
ATOM     26  C   UNL     1      -1.269  16.130  26.406  0.00  0.00    +0.000 A 
ATOM     27  C   UNL     1      -1.715  15.325  25.354  0.00  0.00    +0.000 A 
ENDBRANCH  18  21
ENDBRANCH  13  15
ENDBRANCH   9  11
BRANCH   1  28
ATOM     28  C   UNL     1       1.871   5.389  18.713  0.00  0.00    +0.000 C 
BRANCH  28  35
ATOM     29  C   UNL     1       7.227   5.130  16.293  0.00  0.00    +0.000 C 
ATOM     30  C   UNL     1       6.044   4.199  16.229  0.00  0.00    +0.000 C 
ATOM     31  O   UNL     1       6.048   3.240  15.458  0.00  0.00    +0.000 OA
ATOM     32  N   UNL     1       5.003   4.454  17.106  0.00  0.00    +0.000 N 
ATOM     33  C   UNL     1       3.867   3.530  17.146  0.00  0.00    +0.000 C 
ATOM     34  C   UNL     1       3.316   3.383  18.578  0.00  0.00    +0.000 C 
ATOM     35  N   UNL     1       3.030   4.666  19.272  0.00  0.00    +0.000 NA
ATOM     36  C   UNL     1       4.240   5.506  19.227  0.00  0.00    +0.000 C 
ATOM     37  C   UNL     1       4.805   5.723  17.813  0.00  0.00    +0.000 C 
ENDBRANCH  28  35
ENDBRANCH   1  28
TORSDOF 5
ENDMDL
