MODEL 1
REMARK VINA RESULT:      -6.7      0.000      0.000
REMARK  Name = 
REMARK  8 active torsions:
REMARK  status: ('A' for Active; 'I' for Inactive)
REMARK    1  A    between atoms: C_1  and  C_2
REMARK    2  A    between atoms: C_2  and  C_3
REMARK    3  A    between atoms: C_2  and  C_4
REMARK    4  A    between atoms: C_2  and  C_5
REMARK    5  A    between atoms: C_8  and  S_9
REMARK    6  A    between atoms: S_9  and  C_10
REMARK    7  A    between atoms: C_15  and  C_16
REMARK    8  A    between atoms: C_22  and  O_23
REMARK                            x       y       z     vdW  Elec       q    Type
REMARK                         _______ _______ _______ _____ _____    ______ ____
ROOT
ATOM      1  C   UNL     1       3.691   3.642  18.400  0.00  0.00    +0.000 A 
ATOM      2  N   UNL     1       3.670   4.771  19.124  0.00  0.00    +0.000 NA
ATOM      3  C   UNL     1       4.285   5.842  18.576  0.00  0.00    +0.000 A 
ATOM      4  C   UNL     1       4.906   5.862  17.337  0.00  0.00    +0.000 A 
ATOM      5  C   UNL     1       4.912   4.636  16.669  0.00  0.00    +0.000 A 
ATOM      6  N   UNL     1       4.335   3.534  17.226  0.00  0.00    +0.000 NA
ENDROOT
BRANCH   5   7
ATOM      7  C   UNL     1       5.537   4.356  15.340  0.00  0.00    +0.000 A 
ATOM      8  C   UNL     1       4.749   4.041  14.213  0.00  0.00    +0.000 A 
ATOM      9  C   UNL     1       5.318   3.812  12.956  0.00  0.00    +0.000 A 
ATOM     10 CL   UNL     1       4.310   3.358  11.636  0.00  0.00    +0.000 Cl
ATOM     11  C   UNL     1       6.685   3.949  12.760  0.00  0.00    +0.000 A 
ATOM     12  C   UNL     1       7.495   4.289  13.837  0.00  0.00    +0.000 A 
ATOM     13  C   UNL     1       6.929   4.465  15.109  0.00  0.00    +0.000 A 
BRANCH  13  14
ATOM     14  O   UNL     1       7.790   4.725  16.146  0.00  0.00    +0.000 OA
ATOM     15  H   UNL     1       7.553   5.570  16.557  0.00  0.00    +0.000 HD
ENDBRANCH  13  14
ENDBRANCH   5   7
BRANCH   1  17
ATOM     16  C   UNL     1       2.886   2.491  20.483  0.00  0.00    +0.000 C 
ATOM     17  C   UNL     1       2.945   2.424  18.944  0.00  0.00    +0.000 C 
ATOM     18  C   UNL     1       3.692   1.152  18.513  0.00  0.00    +0.000 C 
ATOM     19  C   UNL     1       1.498   2.347  18.419  0.00  0.00    +0.000 C 
ENDBRANCH   1  17
BRANCH   4  20
ATOM     20  S   UNL     1       5.464   7.427  16.694  0.00  0.00    +0.000 S 
BRANCH  20  21
ATOM     21  C   UNL     1       6.919   7.762  17.605  0.00  0.00    +0.000 A 
ATOM     22  N   UNL     1       7.543   8.980  17.665  0.00  0.00    +0.000 NA
ATOM     23  C   UNL     1       8.582   8.751  18.438  0.00  0.00    +0.000 A 
ATOM     24  N   UNL     1       8.573   7.448  18.830  0.00  0.00    +0.000 N 
ATOM     25  N   UNL     1       7.523   6.797  18.309  0.00  0.00    +0.000 NA
ATOM     26  H   UNL     1       9.226   6.953  19.426  0.00  0.00    +0.000 HD
ENDBRANCH  20  21
ENDBRANCH   4  20
TORSDOF 5
ENDMDL
MODEL 2
REMARK VINA RESULT:      -6.7      3.580      6.937
REMARK  Name = 
REMARK  8 active torsions:
REMARK  status: ('A' for Active; 'I' for Inactive)
REMARK    1  A    between atoms: C_1  and  C_2
REMARK    2  A    between atoms: C_2  and  C_3
REMARK    3  A    between atoms: C_2  and  C_4
REMARK    4  A    between atoms: C_2  and  C_5
REMARK    5  A    between atoms: C_8  and  S_9
REMARK    6  A    between atoms: S_9  and  C_10
REMARK    7  A    between atoms: C_15  and  C_16
REMARK    8  A    between atoms: C_22  and  O_23
REMARK                            x       y       z     vdW  Elec       q    Type
REMARK                         _______ _______ _______ _____ _____    ______ ____
ROOT
ATOM      1  C   UNL     1       5.643   5.009  17.081  0.00  0.00    +0.000 A 
ATOM      2  N   UNL     1       5.263   3.749  16.822  0.00  0.00    +0.000 NA
ATOM      3  C   UNL     1       4.012   3.413  17.205  0.00  0.00    +0.000 A 
ATOM      4  C   UNL     1       3.104   4.265  17.815  0.00  0.00    +0.000 A 
ATOM      5  C   UNL     1       3.596   5.545  18.078  0.00  0.00    +0.000 A 
ATOM      6  N   UNL     1       4.871   5.888  17.739  0.00  0.00    +0.000 NA
ENDROOT
BRANCH   5   7
ATOM      7  C   UNL     1       2.856   6.655  18.755  0.00  0.00    +0.000 A 
ATOM      8  C   UNL     1       2.486   7.822  18.054  0.00  0.00    +0.000 A 
ATOM      9  C   UNL     1       1.763   8.852  18.664  0.00  0.00    +0.000 A 
ATOM     10 CL   UNL     1       1.408  10.284  17.777  0.00  0.00    +0.000 Cl
ATOM     11  C   UNL     1       1.327   8.731  19.976  0.00  0.00    +0.000 A 
ATOM     12  C   UNL     1       1.642   7.583  20.694  0.00  0.00    +0.000 A 
ATOM     13  C   UNL     1       2.414   6.575  20.097  0.00  0.00    +0.000 A 
BRANCH  13  14
ATOM     14  O   UNL     1       2.755   5.501  20.881  0.00  0.00    +0.000 OA
ATOM     15  H   UNL     1       3.364   5.792  21.577  0.00  0.00    +0.000 HD
ENDBRANCH  13  14
ENDBRANCH   5   7
BRANCH   1  17
ATOM     16  C   UNL     1       7.128   5.283  15.073  0.00  0.00    +0.000 C 
ATOM     17  C   UNL     1       7.023   5.457  16.601  0.00  0.00    +0.000 C 
ATOM     18  C   UNL     1       8.091   4.596  17.292  0.00  0.00    +0.000 C 
ATOM     19  C   UNL     1       7.298   6.938  16.928  0.00  0.00    +0.000 C 
ENDBRANCH   1  17
BRANCH   4  20
ATOM     20  S   UNL     1       1.430   3.701  18.040  0.00  0.00    +0.000 S 
BRANCH  20  21
ATOM     21  C   UNL     1       1.390   3.150  19.699  0.00  0.00    +0.000 A 
ATOM     22  N   UNL     1       2.291   2.285  20.260  0.00  0.00    +0.000 NA
ATOM     23  C   UNL     1       1.858   2.153  21.495  0.00  0.00    +0.000 A 
ATOM     24  N   UNL     1       0.745   2.917  21.665  0.00  0.00    +0.000 N 
ATOM     25  N   UNL     1       0.427   3.561  20.533  0.00  0.00    +0.000 NA
ATOM     26  H   UNL     1       0.173   3.041  22.492  0.00  0.00    +0.000 HD
ENDBRANCH  20  21
ENDBRANCH   4  20
TORSDOF 5
ENDMDL
MODEL 3
REMARK VINA RESULT:      -6.7      3.872      6.012
REMARK  Name = 
REMARK  8 active torsions:
REMARK  status: ('A' for Active; 'I' for Inactive)
REMARK    1  A    between atoms: C_1  and  C_2
REMARK    2  A    between atoms: C_2  and  C_3
REMARK    3  A    between atoms: C_2  and  C_4
REMARK    4  A    between atoms: C_2  and  C_5
REMARK    5  A    between atoms: C_8  and  S_9
REMARK    6  A    between atoms: S_9  and  C_10
REMARK    7  A    between atoms: C_15  and  C_16
REMARK    8  A    between atoms: C_22  and  O_23
REMARK                            x       y       z     vdW  Elec       q    Type
REMARK                         _______ _______ _______ _____ _____    ______ ____
ROOT
ATOM      1  C   UNL     1       1.784   8.829  18.501  0.00  0.00    +0.000 A 
ATOM      2  N   UNL     1       2.709   9.210  17.608  0.00  0.00    +0.000 NA
ATOM      3  C   UNL     1       3.605   8.268  17.240  0.00  0.00    +0.000 A 
ATOM      4  C   UNL     1       3.625   6.959  17.695  0.00  0.00    +0.000 A 
ATOM      5  C   UNL     1       2.649   6.660  18.648  0.00  0.00    +0.000 A 
ATOM      6  N   UNL     1       1.764   7.610  19.064  0.00  0.00    +0.000 NA
ENDROOT
BRANCH   5   7
ATOM      7  C   UNL     1       2.455   5.346  19.335  0.00  0.00    +0.000 A 
ATOM      8  C   UNL     1       2.662   4.127  18.654  0.00  0.00    +0.000 A 
ATOM      9  C   UNL     1       2.520   2.892  19.294  0.00  0.00    +0.000 A 
ATOM     10 CL   UNL     1       2.713   1.439  18.391  0.00  0.00    +0.000 Cl
ATOM     11  C   UNL     1       2.229   2.824  20.649  0.00  0.00    +0.000 A 
ATOM     12  C   UNL     1       2.048   4.002  21.365  0.00  0.00    +0.000 A 
ATOM     13  C   UNL     1       2.137   5.239  20.710  0.00  0.00    +0.000 A 
BRANCH  13  14
ATOM     14  O   UNL     1       1.874   6.362  21.454  0.00  0.00    +0.000 OA
ATOM     15  H   UNL     1       1.045   6.238  21.941  0.00  0.00    +0.000 HD
ENDBRANCH  13  14
ENDBRANCH   5   7
BRANCH   1  17
ATOM     16  C   UNL     1       1.283  11.266  18.852  0.00  0.00    +0.000 C 
ATOM     17  C   UNL     1       0.705   9.838  18.893  0.00  0.00    +0.000 C 
ATOM     18  C   UNL     1       0.221   9.519  20.316  0.00  0.00    +0.000 C 
ATOM     19  C   UNL     1      -0.507   9.791  17.939  0.00  0.00    +0.000 C 
ENDBRANCH   1  17
BRANCH   4  20
ATOM     20  S   UNL     1       4.746   5.810  16.924  0.00  0.00    +0.000 S 
BRANCH  20  21
ATOM     21  C   UNL     1       6.117   5.767  18.009  0.00  0.00    +0.000 A 
ATOM     22  N   UNL     1       7.184   6.625  17.958  0.00  0.00    +0.000 NA
ATOM     23  C   UNL     1       7.956   6.207  18.938  0.00  0.00    +0.000 A 
ATOM     24  N   UNL     1       7.368   5.147  19.553  0.00  0.00    +0.000 N 
ATOM     25  N   UNL     1       6.195   4.847  18.978  0.00  0.00    +0.000 NA
ATOM     26  H   UNL     1       7.696   4.598  20.340  0.00  0.00    +0.000 HD
ENDBRANCH  20  21
ENDBRANCH   4  20
TORSDOF 5
ENDMDL
MODEL 4
REMARK VINA RESULT:      -6.6      3.638      5.589
REMARK  Name = 
REMARK  8 active torsions:
REMARK  status: ('A' for Active; 'I' for Inactive)
REMARK    1  A    between atoms: C_1  and  C_2
REMARK    2  A    between atoms: C_2  and  C_3
REMARK    3  A    between atoms: C_2  and  C_4
REMARK    4  A    between atoms: C_2  and  C_5
REMARK    5  A    between atoms: C_8  and  S_9
REMARK    6  A    between atoms: S_9  and  C_10
REMARK    7  A    between atoms: C_15  and  C_16
REMARK    8  A    between atoms: C_22  and  O_23
REMARK                            x       y       z     vdW  Elec       q    Type
REMARK                         _______ _______ _______ _____ _____    ______ ____
ROOT
ATOM      1  C   UNL     1       2.484   3.690  18.837  0.00  0.00    +0.000 A 
ATOM      2  N   UNL     1       3.471   3.399  17.978  0.00  0.00    +0.000 NA
ATOM      3  C   UNL     1       4.134   4.452  17.453  0.00  0.00    +0.000 A 
ATOM      4  C   UNL     1       3.885   5.784  17.747  0.00  0.00    +0.000 A 
ATOM      5  C   UNL     1       2.818   5.995  18.623  0.00  0.00    +0.000 A 
ATOM      6  N   UNL     1       2.109   4.946  19.128  0.00  0.00    +0.000 NA
ENDROOT
BRANCH   5   7
ATOM      7  C   UNL     1       2.304   7.321  19.087  0.00  0.00    +0.000 A 
ATOM      8  C   UNL     1       2.275   8.437  18.225  0.00  0.00    +0.000 A 
ATOM      9  C   UNL     1       1.764   9.673  18.636  0.00  0.00    +0.000 A 
ATOM     10 CL   UNL     1       1.825  11.018  17.562  0.00  0.00    +0.000 Cl
ATOM     11  C   UNL     1       1.206   9.826  19.897  0.00  0.00    +0.000 A 
ATOM     12  C   UNL     1       1.186   8.743  20.767  0.00  0.00    +0.000 A 
ATOM     13  C   UNL     1       1.748   7.519  20.374  0.00  0.00    +0.000 A 
BRANCH  13  14
ATOM     14  O   UNL     1       1.765   6.510  21.304  0.00  0.00    +0.000 OA
ATOM     15  H   UNL     1       0.857   6.223  21.484  0.00  0.00    +0.000 HD
ENDBRANCH  13  14
ENDBRANCH   5   7
BRANCH   1  17
ATOM     16  C   UNL     1       2.634   1.266  19.479  0.00  0.00    +0.000 C 
ATOM     17  C   UNL     1       1.754   2.530  19.513  0.00  0.00    +0.000 C 
ATOM     18  C   UNL     1       0.442   2.264  18.759  0.00  0.00    +0.000 C 
ATOM     19  C   UNL     1       1.421   2.834  20.988  0.00  0.00    +0.000 C 
ENDBRANCH   1  17
BRANCH   4  20
ATOM     20  S   UNL     1       5.012   7.015  17.126  0.00  0.00    +0.000 S 
BRANCH  20  21
ATOM     21  C   UNL     1       5.998   6.141  15.976  0.00  0.00    +0.000 A 
ATOM     22  N   UNL     1       5.550   5.633  14.785  0.00  0.00    +0.000 NA
ATOM     23  C   UNL     1       6.619   5.058  14.279  0.00  0.00    +0.000 A 
ATOM     24  N   UNL     1       7.666   5.225  15.132  0.00  0.00    +0.000 N 
ATOM     25  N   UNL     1       7.294   5.911  16.222  0.00  0.00    +0.000 NA
ATOM     26  H   UNL     1       8.624   4.908  15.041  0.00  0.00    +0.000 HD
ENDBRANCH  20  21
ENDBRANCH   4  20
TORSDOF 5
ENDMDL
MODEL 5
REMARK VINA RESULT:      -6.6      2.485      5.102
REMARK  Name = 
REMARK  8 active torsions:
REMARK  status: ('A' for Active; 'I' for Inactive)
REMARK    1  A    between atoms: C_1  and  C_2
REMARK    2  A    between atoms: C_2  and  C_3
REMARK    3  A    between atoms: C_2  and  C_4
REMARK    4  A    between atoms: C_2  and  C_5
REMARK    5  A    between atoms: C_8  and  S_9
REMARK    6  A    between atoms: S_9  and  C_10
REMARK    7  A    between atoms: C_15  and  C_16
REMARK    8  A    between atoms: C_22  and  O_23
REMARK                            x       y       z     vdW  Elec       q    Type
REMARK                         _______ _______ _______ _____ _____    ______ ____
ROOT
ATOM      1  C   UNL     1       6.207   4.102  13.742  0.00  0.00    +0.000 A 
ATOM      2  N   UNL     1       7.476   4.417  14.043  0.00  0.00    +0.000 NA
ATOM      3  C   UNL     1       7.707   4.806  15.316  0.00  0.00    +0.000 A 
ATOM      4  C   UNL     1       6.751   4.883  16.317  0.00  0.00    +0.000 A 
ATOM      5  C   UNL     1       5.453   4.573  15.907  0.00  0.00    +0.000 A 
ATOM      6  N   UNL     1       5.194   4.221  14.616  0.00  0.00    +0.000 NA
ENDROOT
BRANCH   5   7
ATOM      7  C   UNL     1       4.225   4.604  16.759  0.00  0.00    +0.000 A 
ATOM      8  C   UNL     1       3.565   3.416  17.136  0.00  0.00    +0.000 A 
ATOM      9  C   UNL     1       2.436   3.429  17.962  0.00  0.00    +0.000 A 
ATOM     10 CL   UNL     1       1.631   1.952  18.325  0.00  0.00    +0.000 Cl
ATOM     11  C   UNL     1       1.960   4.619  18.493  0.00  0.00    +0.000 A 
ATOM     12  C   UNL     1       2.599   5.811  18.172  0.00  0.00    +0.000 A 
ATOM     13  C   UNL     1       3.699   5.802  17.301  0.00  0.00    +0.000 A 
BRANCH  13  14
ATOM     14  O   UNL     1       4.240   7.017  16.963  0.00  0.00    +0.000 OA
ATOM     15  H   UNL     1       4.742   7.365  17.715  0.00  0.00    +0.000 HD
ENDBRANCH  13  14
ENDBRANCH   5   7
BRANCH   1  17
ATOM     16  C   UNL     1       6.305   2.101  12.227  0.00  0.00    +0.000 C 
ATOM     17  C   UNL     1       5.908   3.586  12.336  0.00  0.00    +0.000 C 
ATOM     18  C   UNL     1       6.718   4.410  11.323  0.00  0.00    +0.000 C 
ATOM     19  C   UNL     1       4.412   3.703  11.980  0.00  0.00    +0.000 C 
ENDBRANCH   1  17
BRANCH   4  20
ATOM     20  S   UNL     1       7.293   5.202  17.984  0.00  0.00    +0.000 S 
BRANCH  20  21
ATOM     21  C   UNL     1       7.681   6.907  17.982  0.00  0.00    +0.000 A 
ATOM     22  N   UNL     1       8.513   7.523  18.879  0.00  0.00    +0.000 NA
ATOM     23  C   UNL     1       8.488   8.782  18.501  0.00  0.00    +0.000 A 
ATOM     24  N   UNL     1       7.679   8.911  17.415  0.00  0.00    +0.000 N 
ATOM     25  N   UNL     1       7.152   7.729  17.067  0.00  0.00    +0.000 NA
ATOM     26  H   UNL     1       7.447   9.741  16.883  0.00  0.00    +0.000 HD
ENDBRANCH  20  21
ENDBRANCH   4  20
TORSDOF 5
ENDMDL
MODEL 6
REMARK VINA RESULT:      -6.5      4.054      6.169
REMARK  Name = 
REMARK  8 active torsions:
REMARK  status: ('A' for Active; 'I' for Inactive)
REMARK    1  A    between atoms: C_1  and  C_2
REMARK    2  A    between atoms: C_2  and  C_3
REMARK    3  A    between atoms: C_2  and  C_4
REMARK    4  A    between atoms: C_2  and  C_5
REMARK    5  A    between atoms: C_8  and  S_9
REMARK    6  A    between atoms: S_9  and  C_10
REMARK    7  A    between atoms: C_15  and  C_16
REMARK    8  A    between atoms: C_22  and  O_23
REMARK                            x       y       z     vdW  Elec       q    Type
REMARK                         _______ _______ _______ _____ _____    ______ ____
ROOT
ATOM      1  C   UNL     1       1.853   8.621  18.408  0.00  0.00    +0.000 A 
ATOM      2  N   UNL     1       2.943   8.975  17.711  0.00  0.00    +0.000 NA
ATOM      3  C   UNL     1       3.794   7.977  17.386  0.00  0.00    +0.000 A 
ATOM      4  C   UNL     1       3.615   6.638  17.697  0.00  0.00    +0.000 A 
ATOM      5  C   UNL     1       2.473   6.365  18.454  0.00  0.00    +0.000 A 
ATOM      6  N   UNL     1       1.627   7.366  18.829  0.00  0.00    +0.000 NA
ENDROOT
BRANCH   5   7
ATOM      7  C   UNL     1       2.047   5.024  18.960  0.00  0.00    +0.000 A 
ATOM      8  C   UNL     1       2.258   4.648  20.303  0.00  0.00    +0.000 A 
ATOM      9  C   UNL     1       1.833   3.411  20.798  0.00  0.00    +0.000 A 
ATOM     10 CL   UNL     1       2.186   2.980  22.427  0.00  0.00    +0.000 Cl
ATOM     11  C   UNL     1       1.127   2.529  19.992  0.00  0.00    +0.000 A 
ATOM     12  C   UNL     1       0.870   2.873  18.671  0.00  0.00    +0.000 A 
ATOM     13  C   UNL     1       1.345   4.091  18.160  0.00  0.00    +0.000 A 
BRANCH  13  14
ATOM     14  O   UNL     1       1.124   4.339  16.828  0.00  0.00    +0.000 OA
ATOM     15  H   UNL     1       0.704   5.207  16.729  0.00  0.00    +0.000 HD
ENDBRANCH  13  14
ENDBRANCH   5   7
BRANCH   1  17
ATOM     16  C   UNL     1       1.468  11.096  18.590  0.00  0.00    +0.000 C 
ATOM     17  C   UNL     1       0.825   9.703  18.735  0.00  0.00    +0.000 C 
ATOM     18  C   UNL     1       0.343   9.507  20.181  0.00  0.00    +0.000 C 
ATOM     19  C   UNL     1      -0.397   9.646  17.797  0.00  0.00    +0.000 C 
ENDBRANCH   1  17
BRANCH   4  20
ATOM     20  S   UNL     1       4.732   5.446  16.989  0.00  0.00    +0.000 S 
BRANCH  20  21
ATOM     21  C   UNL     1       6.158   5.555  17.995  0.00  0.00    +0.000 A 
ATOM     22  N   UNL     1       7.134   6.509  17.872  0.00  0.00    +0.000 NA
ATOM     23  C   UNL     1       7.995   6.185  18.812  0.00  0.00    +0.000 A 
ATOM     24  N   UNL     1       7.545   5.086  19.475  0.00  0.00    +0.000 N 
ATOM     25  N   UNL     1       6.377   4.665  18.971  0.00  0.00    +0.000 NA
ATOM     26  H   UNL     1       7.967   4.587  20.250  0.00  0.00    +0.000 HD
ENDBRANCH  20  21
ENDBRANCH   4  20
TORSDOF 5
ENDMDL
MODEL 7
REMARK VINA RESULT:      -6.5      2.786      3.819
REMARK  Name = 
REMARK  8 active torsions:
REMARK  status: ('A' for Active; 'I' for Inactive)
REMARK    1  A    between atoms: C_1  and  C_2
REMARK    2  A    between atoms: C_2  and  C_3
REMARK    3  A    between atoms: C_2  and  C_4
REMARK    4  A    between atoms: C_2  and  C_5
REMARK    5  A    between atoms: C_8  and  S_9
REMARK    6  A    between atoms: S_9  and  C_10
REMARK    7  A    between atoms: C_15  and  C_16
REMARK    8  A    between atoms: C_22  and  O_23
REMARK                            x       y       z     vdW  Elec       q    Type
REMARK                         _______ _______ _______ _____ _____    ______ ____
ROOT
ATOM      1  C   UNL     1       2.608   3.942  19.969  0.00  0.00    +0.000 A 
ATOM      2  N   UNL     1       1.927   5.064  20.248  0.00  0.00    +0.000 NA
ATOM      3  C   UNL     1       2.292   6.169  19.562  0.00  0.00    +0.000 A 
ATOM      4  C   UNL     1       3.286   6.222  18.596  0.00  0.00    +0.000 A 
ATOM      5  C   UNL     1       3.965   5.018  18.396  0.00  0.00    +0.000 A 
ATOM      6  N   UNL     1       3.640   3.904  19.111  0.00  0.00    +0.000 NA
ENDROOT
BRANCH   5   7
ATOM      7  C   UNL     1       5.099   4.790  17.448  0.00  0.00    +0.000 A 
ATOM      8  C   UNL     1       4.871   4.570  16.073  0.00  0.00    +0.000 A 
ATOM      9  C   UNL     1       5.924   4.391  15.170  0.00  0.00    +0.000 A 
ATOM     10 CL   UNL     1       5.579   4.052  13.518  0.00  0.00    +0.000 Cl
ATOM     11  C   UNL     1       7.243   4.487  15.590  0.00  0.00    +0.000 A 
ATOM     12  C   UNL     1       7.513   4.734  16.931  0.00  0.00    +0.000 A 
ATOM     13  C   UNL     1       6.456   4.859  17.846  0.00  0.00    +0.000 A 
BRANCH  13  14
ATOM     14  O   UNL     1       6.788   5.027  19.167  0.00  0.00    +0.000 OA
ATOM     15  H   UNL     1       6.798   4.164  19.608  0.00  0.00    +0.000 HD
ENDBRANCH  13  14
ENDBRANCH   5   7
BRANCH   1  17
ATOM     16  C   UNL     1       3.421   1.930  21.234  0.00  0.00    +0.000 C 
ATOM     17  C   UNL     1       2.183   2.651  20.666  0.00  0.00    +0.000 C 
ATOM     18  C   UNL     1       1.483   1.743  19.643  0.00  0.00    +0.000 C 
ATOM     19  C   UNL     1       1.213   2.915  21.835  0.00  0.00    +0.000 C 
ENDBRANCH   1  17
BRANCH   4  20
ATOM     20  S   UNL     1       3.467   7.717  17.646  0.00  0.00    +0.000 S 
BRANCH  20  21
ATOM     21  C   UNL     1       2.171   8.741  18.222  0.00  0.00    +0.000 A 
ATOM     22  N   UNL     1       1.712   8.775  19.512  0.00  0.00    +0.000 NA
ATOM     23  C   UNL     1       0.742   9.662  19.466  0.00  0.00    +0.000 A 
ATOM     24  N   UNL     1       0.633  10.144  18.199  0.00  0.00    +0.000 N 
ATOM     25  N   UNL     1       1.533   9.571  17.387  0.00  0.00    +0.000 NA
ATOM     26  H   UNL     1      -0.008  10.837  17.829  0.00  0.00    +0.000 HD
ENDBRANCH  20  21
ENDBRANCH   4  20
TORSDOF 5
ENDMDL
MODEL 8
REMARK VINA RESULT:      -6.5      3.958      6.564
REMARK  Name = 
REMARK  8 active torsions:
REMARK  status: ('A' for Active; 'I' for Inactive)
REMARK    1  A    between atoms: C_1  and  C_2
REMARK    2  A    between atoms: C_2  and  C_3
REMARK    3  A    between atoms: C_2  and  C_4
REMARK    4  A    between atoms: C_2  and  C_5
REMARK    5  A    between atoms: C_8  and  S_9
REMARK    6  A    between atoms: S_9  and  C_10
REMARK    7  A    between atoms: C_15  and  C_16
REMARK    8  A    between atoms: C_22  and  O_23
REMARK                            x       y       z     vdW  Elec       q    Type
REMARK                         _______ _______ _______ _____ _____    ______ ____
ROOT
ATOM      1  C   UNL     1       1.396   8.585  19.501  0.00  0.00    +0.000 A 
ATOM      2  N   UNL     1       0.812   8.121  20.616  0.00  0.00    +0.000 NA
ATOM      3  C   UNL     1       1.175   6.881  21.008  0.00  0.00    +0.000 A 
ATOM      4  C   UNL     1       2.104   6.077  20.364  0.00  0.00    +0.000 A 
ATOM      5  C   UNL     1       2.635   6.624  19.195  0.00  0.00    +0.000 A 
ATOM      6  N   UNL     1       2.246   7.856  18.760  0.00  0.00    +0.000 NA
ENDROOT
BRANCH   5   7
ATOM      7  C   UNL     1       3.624   5.972  18.283  0.00  0.00    +0.000 A 
ATOM      8  C   UNL     1       4.981   6.358  18.279  0.00  0.00    +0.000 A 
ATOM      9  C   UNL     1       5.924   5.732  17.457  0.00  0.00    +0.000 A 
ATOM     10 CL   UNL     1       7.550   6.300  17.442  0.00  0.00    +0.000 Cl
ATOM     11  C   UNL     1       5.565   4.658  16.656  0.00  0.00    +0.000 A 
ATOM     12  C   UNL     1       4.245   4.224  16.653  0.00  0.00    +0.000 A 
ATOM     13  C   UNL     1       3.289   4.887  17.437  0.00  0.00    +0.000 A 
BRANCH  13  14
ATOM     14  O   UNL     1       1.989   4.459  17.334  0.00  0.00    +0.000 OA
ATOM     15  H   UNL     1       1.948   3.696  16.739  0.00  0.00    +0.000 HD
ENDBRANCH  13  14
ENDBRANCH   5   7
BRANCH   1  17
ATOM     16  C   UNL     1       2.172  10.528  18.111  0.00  0.00    +0.000 C 
ATOM     17  C   UNL     1       1.072  10.011  19.060  0.00  0.00    +0.000 C 
ATOM     18  C   UNL     1       1.001  10.911  20.303  0.00  0.00    +0.000 C 
ATOM     19  C   UNL     1      -0.274  10.096  18.312  0.00  0.00    +0.000 C 
ENDBRANCH   1  17
BRANCH   4  20
ATOM     20  S   UNL     1       2.612   4.566  21.159  0.00  0.00    +0.000 S 
BRANCH  20  21
ATOM     21  C   UNL     1       1.967   3.310  20.127  0.00  0.00    +0.000 A 
ATOM     22  N   UNL     1       0.648   3.178  19.783  0.00  0.00    +0.000 NA
ATOM     23  C   UNL     1       0.638   2.104  19.024  0.00  0.00    +0.000 A 
ATOM     24  N   UNL     1       1.905   1.620  18.913  0.00  0.00    +0.000 N 
ATOM     25  N   UNL     1       2.769   2.371  19.610  0.00  0.00    +0.000 NA
ATOM     26  H   UNL     1       2.240   0.811  18.402  0.00  0.00    +0.000 HD
ENDBRANCH  20  21
ENDBRANCH   4  20
TORSDOF 5
ENDMDL
MODEL 9
REMARK VINA RESULT:      -6.4      3.377      5.234
REMARK  Name = 
REMARK  8 active torsions:
REMARK  status: ('A' for Active; 'I' for Inactive)
REMARK    1  A    between atoms: C_1  and  C_2
REMARK    2  A    between atoms: C_2  and  C_3
REMARK    3  A    between atoms: C_2  and  C_4
REMARK    4  A    between atoms: C_2  and  C_5
REMARK    5  A    between atoms: C_8  and  S_9
REMARK    6  A    between atoms: S_9  and  C_10
REMARK    7  A    between atoms: C_15  and  C_16
REMARK    8  A    between atoms: C_22  and  O_23
REMARK                            x       y       z     vdW  Elec       q    Type
REMARK                         _______ _______ _______ _____ _____    ______ ____
ROOT
ATOM      1  C   UNL     1       2.716   3.599  18.531  0.00  0.00    +0.000 A 
ATOM      2  N   UNL     1       3.608   3.393  17.551  0.00  0.00    +0.000 NA
ATOM      3  C   UNL     1       4.146   4.499  16.992  0.00  0.00    +0.000 A 
ATOM      4  C   UNL     1       3.863   5.804  17.365  0.00  0.00    +0.000 A 
ATOM      5  C   UNL     1       2.898   5.926  18.367  0.00  0.00    +0.000 A 
ATOM      6  N   UNL     1       2.312   4.822  18.912  0.00  0.00    +0.000 NA
ENDROOT
BRANCH   5   7
ATOM      7  C   UNL     1       2.373   7.204  18.940  0.00  0.00    +0.000 A 
ATOM      8  C   UNL     1       2.237   8.361  18.144  0.00  0.00    +0.000 A 
ATOM      9  C   UNL     1       1.714   9.552  18.657  0.00  0.00    +0.000 A 
ATOM     10 CL   UNL     1       1.643  10.951  17.656  0.00  0.00    +0.000 Cl
ATOM     11  C   UNL     1       1.249   9.618  19.962  0.00  0.00    +0.000 A 
ATOM     12  C   UNL     1       1.336   8.492  20.773  0.00  0.00    +0.000 A 
ATOM     13  C   UNL     1       1.910   7.314  20.273  0.00  0.00    +0.000 A 
BRANCH  13  14
ATOM     14  O   UNL     1       2.036   6.261  21.144  0.00  0.00    +0.000 OA
ATOM     15  H   UNL     1       1.156   5.917  21.362  0.00  0.00    +0.000 HD
ENDBRANCH  13  14
ENDBRANCH   5   7
BRANCH   1  17
ATOM     16  C   UNL     1       3.026   1.148  18.985  0.00  0.00    +0.000 C 
ATOM     17  C   UNL     1       2.135   2.378  19.243  0.00  0.00    +0.000 C 
ATOM     18  C   UNL     1       0.722   2.113  18.700  0.00  0.00    +0.000 C 
ATOM     19  C   UNL     1       2.044   2.584  20.769  0.00  0.00    +0.000 C 
ENDBRANCH   1  17
BRANCH   4  20
ATOM     20  S   UNL     1       4.839   7.117  16.663  0.00  0.00    +0.000 S 
BRANCH  20  21
ATOM     21  C   UNL     1       6.356   7.025  17.530  0.00  0.00    +0.000 A 
ATOM     22  N   UNL     1       6.702   6.025  18.399  0.00  0.00    +0.000 NA
ATOM     23  C   UNL     1       7.899   6.381  18.811  0.00  0.00    +0.000 A 
ATOM     24  N   UNL     1       8.255   7.545  18.204  0.00  0.00    +0.000 N 
ATOM     25  N   UNL     1       7.286   7.976  17.384  0.00  0.00    +0.000 NA
ATOM     26  H   UNL     1       9.109   8.083  18.299  0.00  0.00    +0.000 HD
ENDBRANCH  20  21
ENDBRANCH   4  20
TORSDOF 5
ENDMDL
