MODEL 1
REMARK VINA RESULT:      -7.0      0.000      0.000
REMARK  Name = 
REMARK  6 active torsions:
REMARK  status: ('A' for Active; 'I' for Inactive)
REMARK    1  A    between atoms: C_1  and  C_2
REMARK    2  A    between atoms: C_2  and  C_3
REMARK    3  A    between atoms: C_2  and  O_4
REMARK    4  A    between atoms: O_4  and  C_5
REMARK    5  A    between atoms: C_5  and  C_7
REMARK    6  A    between atoms: C_7  and  N_8
REMARK                            x       y       z     vdW  Elec       q    Type
REMARK                         _______ _______ _______ _____ _____    ______ ____
ROOT
ATOM      1  N   UNL     1       4.404   5.274  17.112  0.00  0.00    +0.000 N 
ATOM      2  C   UNL     1       3.780   6.257  17.832  0.00  0.00    +0.000 C 
ATOM      3  O   UNL     1       3.836   7.463  17.688  0.00  0.00    +0.000 OA
ATOM      4  C   UNL     1       2.984   5.575  18.853  0.00  0.00    +0.000 A 
ATOM      5  C   UNL     1       2.133   6.070  19.820  0.00  0.00    +0.000 A 
ATOM      6  C   UNL     1       1.485   5.137  20.640  0.00  0.00    +0.000 A 
ATOM      7  C   UNL     1       1.712   3.754  20.486  0.00  0.00    +0.000 A 
ATOM      8  C   UNL     1       2.571   3.276  19.494  0.00  0.00    +0.000 A 
ATOM      9  C   UNL     1       3.177   4.214  18.685  0.00  0.00    +0.000 A 
ATOM     10  C   UNL     1       4.043   4.022  17.530  0.00  0.00    +0.000 C 
ATOM     11  O   UNL     1       4.314   2.948  17.032  0.00  0.00    +0.000 OA
ENDROOT
BRANCH   1  12
ATOM     12  C   UNL     1       5.266   5.516  15.977  0.00  0.00    +0.000 C 
BRANCH  12  13
ATOM     13  C   UNL     1       6.740   5.262  16.236  0.00  0.00    +0.000 C 
ATOM     14  O   UNL     1       7.198   4.118  16.263  0.00  0.00    +0.000 OA
BRANCH  13  15
ATOM     15  O   UNL     1       7.488   6.391  16.410  0.00  0.00    +0.000 OA
BRANCH  15  17
ATOM     16  C   UNL     1       7.831   6.212  18.812  0.00  0.00    +0.000 C 
ATOM     17  C   UNL     1       7.271   7.058  17.670  0.00  0.00    +0.000 C 
ATOM     18  C   UNL     1       7.954   8.422  17.645  0.00  0.00    +0.000 C 
ENDBRANCH  15  17
ENDBRANCH  13  15
ENDBRANCH  12  13
ENDBRANCH   1  12
TORSDOF 4
ENDMDL
MODEL 2
REMARK VINA RESULT:      -7.0      2.363      5.898
REMARK  Name = 
REMARK  6 active torsions:
REMARK  status: ('A' for Active; 'I' for Inactive)
REMARK    1  A    between atoms: C_1  and  C_2
REMARK    2  A    between atoms: C_2  and  C_3
REMARK    3  A    between atoms: C_2  and  O_4
REMARK    4  A    between atoms: O_4  and  C_5
REMARK    5  A    between atoms: C_5  and  C_7
REMARK    6  A    between atoms: C_7  and  N_8
REMARK                            x       y       z     vdW  Elec       q    Type
REMARK                         _______ _______ _______ _____ _____    ______ ____
ROOT
ATOM      1  N   UNL     1       4.908   4.074  18.238  0.00  0.00    +0.000 N 
ATOM      2  C   UNL     1       4.237   3.884  17.059  0.00  0.00    +0.000 C 
ATOM      3  O   UNL     1       3.082   3.548  16.883  0.00  0.00    +0.000 OA
ATOM      4  C   UNL     1       5.193   4.179  15.991  0.00  0.00    +0.000 A 
ATOM      5  C   UNL     1       5.046   4.187  14.619  0.00  0.00    +0.000 A 
ATOM      6  C   UNL     1       6.165   4.548  13.858  0.00  0.00    +0.000 A 
ATOM      7  C   UNL     1       7.390   4.873  14.478  0.00  0.00    +0.000 A 
ATOM      8  C   UNL     1       7.512   4.868  15.868  0.00  0.00    +0.000 A 
ATOM      9  C   UNL     1       6.389   4.532  16.594  0.00  0.00    +0.000 A 
ATOM     10  C   UNL     1       6.186   4.520  18.036  0.00  0.00    +0.000 C 
ATOM     11  O   UNL     1       6.996   4.899  18.859  0.00  0.00    +0.000 OA
ENDROOT
BRANCH   1  12
ATOM     12  C   UNL     1       4.316   3.923  19.547  0.00  0.00    +0.000 C 
BRANCH  12  13
ATOM     13  C   UNL     1       4.134   2.483  19.998  0.00  0.00    +0.000 C 
ATOM     14  O   UNL     1       5.054   1.857  20.527  0.00  0.00    +0.000 OA
BRANCH  13  15
ATOM     15  O   UNL     1       2.885   1.976  19.783  0.00  0.00    +0.000 OA
BRANCH  15  17
ATOM     16  C   UNL     1       0.615   2.621  19.192  0.00  0.00    +0.000 C 
ATOM     17  C   UNL     1       1.812   2.885  20.103  0.00  0.00    +0.000 C 
ATOM     18  C   UNL     1       1.410   2.699  21.563  0.00  0.00    +0.000 C 
ENDBRANCH  15  17
ENDBRANCH  13  15
ENDBRANCH  12  13
ENDBRANCH   1  12
TORSDOF 4
ENDMDL
MODEL 3
REMARK VINA RESULT:      -7.0      1.981      5.527
REMARK  Name = 
REMARK  6 active torsions:
REMARK  status: ('A' for Active; 'I' for Inactive)
REMARK    1  A    between atoms: C_1  and  C_2
REMARK    2  A    between atoms: C_2  and  C_3
REMARK    3  A    between atoms: C_2  and  O_4
REMARK    4  A    between atoms: O_4  and  C_5
REMARK    5  A    between atoms: C_5  and  C_7
REMARK    6  A    between atoms: C_7  and  N_8
REMARK                            x       y       z     vdW  Elec       q    Type
REMARK                         _______ _______ _______ _____ _____    ______ ____
ROOT
ATOM      1  N   UNL     1       4.391   3.622  17.893  0.00  0.00    +0.000 N 
ATOM      2  C   UNL     1       5.180   3.842  18.989  0.00  0.00    +0.000 C 
ATOM      3  O   UNL     1       5.168   3.277  20.065  0.00  0.00    +0.000 OA
ATOM      4  C   UNL     1       6.096   4.924  18.624  0.00  0.00    +0.000 A 
ATOM      5  C   UNL     1       7.123   5.519  19.329  0.00  0.00    +0.000 A 
ATOM      6  C   UNL     1       7.845   6.526  18.677  0.00  0.00    +0.000 A 
ATOM      7  C   UNL     1       7.518   6.919  17.362  0.00  0.00    +0.000 A 
ATOM      8  C   UNL     1       6.481   6.296  16.666  0.00  0.00    +0.000 A 
ATOM      9  C   UNL     1       5.802   5.291  17.322  0.00  0.00    +0.000 A 
ATOM     10  C   UNL     1       4.746   4.414  16.835  0.00  0.00    +0.000 C 
ATOM     11  O   UNL     1       4.336   4.383  15.691  0.00  0.00    +0.000 OA
ENDROOT
BRANCH   1  12
ATOM     12  C   UNL     1       3.367   2.605  17.815  0.00  0.00    +0.000 C 
BRANCH  12  13
ATOM     13  C   UNL     1       1.955   3.107  18.064  0.00  0.00    +0.000 C 
ATOM     14  O   UNL     1       1.380   3.830  17.248  0.00  0.00    +0.000 OA
BRANCH  13  15
ATOM     15  O   UNL     1       1.398   2.676  19.233  0.00  0.00    +0.000 OA
BRANCH  15  17
ATOM     16  C   UNL     1       1.305   4.748  20.505  0.00  0.00    +0.000 C 
ATOM     17  C   UNL     1       1.898   3.344  20.410  0.00  0.00    +0.000 C 
ATOM     18  C   UNL     1       1.525   2.534  21.648  0.00  0.00    +0.000 C 
ENDBRANCH  15  17
ENDBRANCH  13  15
ENDBRANCH  12  13
ENDBRANCH   1  12
TORSDOF 4
ENDMDL
MODEL 4
REMARK VINA RESULT:      -6.9      1.751      3.016
REMARK  Name = 
REMARK  6 active torsions:
REMARK  status: ('A' for Active; 'I' for Inactive)
REMARK    1  A    between atoms: C_1  and  C_2
REMARK    2  A    between atoms: C_2  and  C_3
REMARK    3  A    between atoms: C_2  and  O_4
REMARK    4  A    between atoms: O_4  and  C_5
REMARK    5  A    between atoms: C_5  and  C_7
REMARK    6  A    between atoms: C_7  and  N_8
REMARK                            x       y       z     vdW  Elec       q    Type
REMARK                         _______ _______ _______ _____ _____    ______ ____
ROOT
ATOM      1  N   UNL     1       5.111   5.159  18.160  0.00  0.00    +0.000 N 
ATOM      2  C   UNL     1       4.944   4.059  18.957  0.00  0.00    +0.000 C 
ATOM      3  O   UNL     1       5.770   3.462  19.619  0.00  0.00    +0.000 OA
ATOM      4  C   UNL     1       3.524   3.711  18.883  0.00  0.00    +0.000 A 
ATOM      5  C   UNL     1       2.800   2.719  19.513  0.00  0.00    +0.000 A 
ATOM      6  C   UNL     1       1.426   2.666  19.249  0.00  0.00    +0.000 A 
ATOM      7  C   UNL     1       0.820   3.582  18.363  0.00  0.00    +0.000 A 
ATOM      8  C   UNL     1       1.573   4.583  17.745  0.00  0.00    +0.000 A 
ATOM      9  C   UNL     1       2.918   4.628  18.040  0.00  0.00    +0.000 A 
ATOM     10  C   UNL     1       3.927   5.591  17.624  0.00  0.00    +0.000 C 
ATOM     11  O   UNL     1       3.708   6.599  16.981  0.00  0.00    +0.000 OA
ENDROOT
BRANCH   1  12
ATOM     12  C   UNL     1       6.366   5.852  17.978  0.00  0.00    +0.000 C 
BRANCH  12  13
ATOM     13  C   UNL     1       7.316   5.194  16.992  0.00  0.00    +0.000 C 
ATOM     14  O   UNL     1       8.076   4.289  17.342  0.00  0.00    +0.000 OA
BRANCH  13  15
ATOM     15  O   UNL     1       7.233   5.675  15.718  0.00  0.00    +0.000 OA
BRANCH  15  17
ATOM     16  C   UNL     1       5.518   4.395  14.561  0.00  0.00    +0.000 C 
ATOM     17  C   UNL     1       7.013   4.662  14.714  0.00  0.00    +0.000 C 
ATOM     18  C   UNL     1       7.600   5.130  13.386  0.00  0.00    +0.000 C 
ENDBRANCH  15  17
ENDBRANCH  13  15
ENDBRANCH  12  13
ENDBRANCH   1  12
TORSDOF 4
ENDMDL
MODEL 5
REMARK VINA RESULT:      -6.9      1.860      2.402
REMARK  Name = 
REMARK  6 active torsions:
REMARK  status: ('A' for Active; 'I' for Inactive)
REMARK    1  A    between atoms: C_1  and  C_2
REMARK    2  A    between atoms: C_2  and  C_3
REMARK    3  A    between atoms: C_2  and  O_4
REMARK    4  A    between atoms: O_4  and  C_5
REMARK    5  A    between atoms: C_5  and  C_7
REMARK    6  A    between atoms: C_7  and  N_8
REMARK                            x       y       z     vdW  Elec       q    Type
REMARK                         _______ _______ _______ _____ _____    ______ ____
ROOT
ATOM      1  N   UNL     1       4.184   3.612  17.769  0.00  0.00    +0.000 N 
ATOM      2  C   UNL     1       4.473   3.489  19.101  0.00  0.00    +0.000 C 
ATOM      3  O   UNL     1       5.546   3.588  19.663  0.00  0.00    +0.000 OA
ATOM      4  C   UNL     1       3.202   3.211  19.772  0.00  0.00    +0.000 A 
ATOM      5  C   UNL     1       2.902   3.036  21.107  0.00  0.00    +0.000 A 
ATOM      6  C   UNL     1       1.559   2.810  21.436  0.00  0.00    +0.000 A 
ATOM      7  C   UNL     1       0.566   2.750  20.434  0.00  0.00    +0.000 A 
ATOM      8  C   UNL     1       0.894   2.940  19.091  0.00  0.00    +0.000 A 
ATOM      9  C   UNL     1       2.218   3.184  18.797  0.00  0.00    +0.000 A 
ATOM     10  C   UNL     1       2.843   3.500  17.520  0.00  0.00    +0.000 C 
ATOM     11  O   UNL     1       2.246   3.681  16.477  0.00  0.00    +0.000 OA
ENDROOT
BRANCH   1  12
ATOM     12  C   UNL     1       5.158   3.925  16.748  0.00  0.00    +0.000 C 
BRANCH  12  13
ATOM     13  C   UNL     1       5.404   5.409  16.540  0.00  0.00    +0.000 C 
ATOM     14  O   UNL     1       5.187   5.948  15.453  0.00  0.00    +0.000 OA
BRANCH  13  15
ATOM     15  O   UNL     1       5.856   6.068  17.646  0.00  0.00    +0.000 OA
BRANCH  15  17
ATOM     16  C   UNL     1       7.550   7.802  17.441  0.00  0.00    +0.000 C 
ATOM     17  C   UNL     1       7.277   6.314  17.651  0.00  0.00    +0.000 C 
ATOM     18  C   UNL     1       7.866   5.857  18.983  0.00  0.00    +0.000 C 
ENDBRANCH  15  17
ENDBRANCH  13  15
ENDBRANCH  12  13
ENDBRANCH   1  12
TORSDOF 4
ENDMDL
MODEL 6
REMARK VINA RESULT:      -6.9      1.764      5.402
REMARK  Name = 
REMARK  6 active torsions:
REMARK  status: ('A' for Active; 'I' for Inactive)
REMARK    1  A    between atoms: C_1  and  C_2
REMARK    2  A    between atoms: C_2  and  C_3
REMARK    3  A    between atoms: C_2  and  O_4
REMARK    4  A    between atoms: O_4  and  C_5
REMARK    5  A    between atoms: C_5  and  C_7
REMARK    6  A    between atoms: C_7  and  N_8
REMARK                            x       y       z     vdW  Elec       q    Type
REMARK                         _______ _______ _______ _____ _____    ______ ____
ROOT
ATOM      1  N   UNL     1       4.674   4.213  17.547  0.00  0.00    +0.000 N 
ATOM      2  C   UNL     1       5.448   4.153  18.675  0.00  0.00    +0.000 C 
ATOM      3  O   UNL     1       5.406   3.351  19.588  0.00  0.00    +0.000 OA
ATOM      4  C   UNL     1       6.390   5.269  18.586  0.00  0.00    +0.000 A 
ATOM      5  C   UNL     1       7.415   5.658  19.424  0.00  0.00    +0.000 A 
ATOM      6  C   UNL     1       8.167   6.774  19.037  0.00  0.00    +0.000 A 
ATOM      7  C   UNL     1       7.872   7.472  17.847  0.00  0.00    +0.000 A 
ATOM      8  C   UNL     1       6.836   7.053  17.010  0.00  0.00    +0.000 A 
ATOM      9  C   UNL     1       6.126   5.938  17.403  0.00  0.00    +0.000 A 
ATOM     10  C   UNL     1       5.064   5.224  16.710  0.00  0.00    +0.000 C 
ATOM     11  O   UNL     1       4.673   5.471  15.585  0.00  0.00    +0.000 OA
ENDROOT
BRANCH   1  12
ATOM     12  C   UNL     1       3.633   3.266  17.219  0.00  0.00    +0.000 C 
BRANCH  12  13
ATOM     13  C   UNL     1       2.317   3.496  17.942  0.00  0.00    +0.000 C 
ATOM     14  O   UNL     1       1.401   4.131  17.418  0.00  0.00    +0.000 OA
BRANCH  13  15
ATOM     15  O   UNL     1       2.246   2.930  19.182  0.00  0.00    +0.000 OA
BRANCH  15  17
ATOM     16  C   UNL     1       1.239   2.873  21.396  0.00  0.00    +0.000 C 
ATOM     17  C   UNL     1       1.517   3.712  20.150  0.00  0.00    +0.000 C 
ATOM     18  C   UNL     1       2.334   4.946  20.523  0.00  0.00    +0.000 C 
ENDBRANCH  15  17
ENDBRANCH  13  15
ENDBRANCH  12  13
ENDBRANCH   1  12
TORSDOF 4
ENDMDL
MODEL 7
REMARK VINA RESULT:      -6.8      1.863      3.140
REMARK  Name = 
REMARK  6 active torsions:
REMARK  status: ('A' for Active; 'I' for Inactive)
REMARK    1  A    between atoms: C_1  and  C_2
REMARK    2  A    between atoms: C_2  and  C_3
REMARK    3  A    between atoms: C_2  and  O_4
REMARK    4  A    between atoms: O_4  and  C_5
REMARK    5  A    between atoms: C_5  and  C_7
REMARK    6  A    between atoms: C_7  and  N_8
REMARK                            x       y       z     vdW  Elec       q    Type
REMARK                         _______ _______ _______ _____ _____    ______ ____
ROOT
ATOM      1  N   UNL     1       4.231   5.417  18.423  0.00  0.00    +0.000 N 
ATOM      2  C   UNL     1       4.678   4.347  19.151  0.00  0.00    +0.000 C 
ATOM      3  O   UNL     1       5.806   3.906  19.248  0.00  0.00    +0.000 OA
ATOM      4  C   UNL     1       3.506   3.800  19.837  0.00  0.00    +0.000 A 
ATOM      5  C   UNL     1       3.384   2.750  20.724  0.00  0.00    +0.000 A 
ATOM      6  C   UNL     1       2.106   2.492  21.236  0.00  0.00    +0.000 A 
ATOM      7  C   UNL     1       0.995   3.267  20.841  0.00  0.00    +0.000 A 
ATOM      8  C   UNL     1       1.146   4.330  19.948  0.00  0.00    +0.000 A 
ATOM      9  C   UNL     1       2.418   4.578  19.479  0.00  0.00    +0.000 A 
ATOM     10  C   UNL     1       2.896   5.650  18.618  0.00  0.00    +0.000 C 
ATOM     11  O   UNL     1       2.224   6.583  18.224  0.00  0.00    +0.000 OA
ENDROOT
BRANCH   1  12
ATOM     12  C   UNL     1       5.078   6.268  17.619  0.00  0.00    +0.000 C 
BRANCH  12  13
ATOM     13  C   UNL     1       5.079   5.942  16.136  0.00  0.00    +0.000 C 
ATOM     14  O   UNL     1       5.285   6.814  15.289  0.00  0.00    +0.000 OA
BRANCH  13  15
ATOM     15  O   UNL     1       4.857   4.627  15.845  0.00  0.00    +0.000 OA
BRANCH  15  17
ATOM     16  C   UNL     1       6.165   3.951  13.909  0.00  0.00    +0.000 C 
ATOM     17  C   UNL     1       6.034   3.905  15.429  0.00  0.00    +0.000 C 
ATOM     18  C   UNL     1       7.266   4.527  16.079  0.00  0.00    +0.000 C 
ENDBRANCH  15  17
ENDBRANCH  13  15
ENDBRANCH  12  13
ENDBRANCH   1  12
TORSDOF 4
ENDMDL
MODEL 8
REMARK VINA RESULT:      -6.8      2.018      5.486
REMARK  Name = 
REMARK  6 active torsions:
REMARK  status: ('A' for Active; 'I' for Inactive)
REMARK    1  A    between atoms: C_1  and  C_2
REMARK    2  A    between atoms: C_2  and  C_3
REMARK    3  A    between atoms: C_2  and  O_4
REMARK    4  A    between atoms: O_4  and  C_5
REMARK    5  A    between atoms: C_5  and  C_7
REMARK    6  A    between atoms: C_7  and  N_8
REMARK                            x       y       z     vdW  Elec       q    Type
REMARK                         _______ _______ _______ _____ _____    ______ ____
ROOT
ATOM      1  N   UNL     1       4.485   3.504  17.832  0.00  0.00    +0.000 N 
ATOM      2  C   UNL     1       4.812   4.304  16.770  0.00  0.00    +0.000 C 
ATOM      3  O   UNL     1       4.334   4.323  15.652  0.00  0.00    +0.000 OA
ATOM      4  C   UNL     1       5.883   5.186  17.236  0.00  0.00    +0.000 A 
ATOM      5  C   UNL     1       6.556   6.207  16.598  0.00  0.00    +0.000 A 
ATOM      6  C   UNL     1       7.526   6.894  17.340  0.00  0.00    +0.000 A 
ATOM      7  C   UNL     1       7.805   6.537  18.676  0.00  0.00    +0.000 A 
ATOM      8  C   UNL     1       7.103   5.506  19.302  0.00  0.00    +0.000 A 
ATOM      9  C   UNL     1       6.138   4.863  18.558  0.00  0.00    +0.000 A 
ATOM     10  C   UNL     1       5.200   3.823  18.955  0.00  0.00    +0.000 C 
ATOM     11  O   UNL     1       5.068   3.396  20.086  0.00  0.00    +0.000 OA
ENDROOT
BRANCH   1  12
ATOM     12  C   UNL     1       3.441   2.505  17.811  0.00  0.00    +0.000 C 
BRANCH  12  13
ATOM     13  C   UNL     1       2.044   3.043  18.070  0.00  0.00    +0.000 C 
ATOM     14  O   UNL     1       1.489   3.797  17.267  0.00  0.00    +0.000 OA
BRANCH  13  15
ATOM     15  O   UNL     1       1.476   2.608  19.232  0.00  0.00    +0.000 OA
BRANCH  15  17
ATOM     16  C   UNL     1       1.148   4.681  20.463  0.00  0.00    +0.000 C 
ATOM     17  C   UNL     1       1.884   3.344  20.404  0.00  0.00    +0.000 C 
ATOM     18  C   UNL     1       1.574   2.521  21.651  0.00  0.00    +0.000 C 
ENDBRANCH  15  17
ENDBRANCH  13  15
ENDBRANCH  12  13
ENDBRANCH   1  12
TORSDOF 4
ENDMDL
MODEL 9
REMARK VINA RESULT:      -6.7      0.415      2.245
REMARK  Name = 
REMARK  6 active torsions:
REMARK  status: ('A' for Active; 'I' for Inactive)
REMARK    1  A    between atoms: C_1  and  C_2
REMARK    2  A    between atoms: C_2  and  C_3
REMARK    3  A    between atoms: C_2  and  O_4
REMARK    4  A    between atoms: O_4  and  C_5
REMARK    5  A    between atoms: C_5  and  C_7
REMARK    6  A    between atoms: C_7  and  N_8
REMARK                            x       y       z     vdW  Elec       q    Type
REMARK                         _______ _______ _______ _____ _____    ______ ____
ROOT
ATOM      1  N   UNL     1       4.258   5.044  17.011  0.00  0.00    +0.000 N 
ATOM      2  C   UNL     1       4.006   3.870  17.669  0.00  0.00    +0.000 C 
ATOM      3  O   UNL     1       4.379   2.746  17.396  0.00  0.00    +0.000 OA
ATOM      4  C   UNL     1       3.175   4.217  18.822  0.00  0.00    +0.000 A 
ATOM      5  C   UNL     1       2.664   3.436  19.839  0.00  0.00    +0.000 A 
ATOM      6  C   UNL     1       1.917   4.086  20.830  0.00  0.00    +0.000 A 
ATOM      7  C   UNL     1       1.689   5.477  20.772  0.00  0.00    +0.000 A 
ATOM      8  C   UNL     1       2.225   6.247  19.739  0.00  0.00    +0.000 A 
ATOM      9  C   UNL     1       2.975   5.587  18.790  0.00  0.00    +0.000 A 
ATOM     10  C   UNL     1       3.721   6.123  17.660  0.00  0.00    +0.000 C 
ATOM     11  O   UNL     1       3.863   7.305  17.413  0.00  0.00    +0.000 OA
ENDROOT
BRANCH   1  12
ATOM     12  C   UNL     1       5.079   5.156  15.826  0.00  0.00    +0.000 C 
BRANCH  12  13
ATOM     13  C   UNL     1       6.547   5.437  16.097  0.00  0.00    +0.000 C 
ATOM     14  O   UNL     1       7.405   4.567  15.942  0.00  0.00    +0.000 OA
BRANCH  13  15
ATOM     15  O   UNL     1       6.814   6.715  16.497  0.00  0.00    +0.000 OA
BRANCH  15  17
ATOM     16  C   UNL     1       8.028   8.279  17.910  0.00  0.00    +0.000 C 
ATOM     17  C   UNL     1       7.773   6.812  17.570  0.00  0.00    +0.000 C 
ATOM     18  C   UNL     1       7.239   6.076  18.795  0.00  0.00    +0.000 C 
ENDBRANCH  15  17
ENDBRANCH  13  15
ENDBRANCH  12  13
ENDBRANCH   1  12
TORSDOF 4
ENDMDL
