MODEL 1
REMARK VINA RESULT:      -6.9      0.000      0.000
REMARK  Name = 
REMARK  4 active torsions:
REMARK  status: ('A' for Active; 'I' for Inactive)
REMARK    1  A    between atoms: C_1  and  C_2
REMARK    2  A    between atoms: C_2  and  C_3
REMARK    3  A    between atoms: C_8  and  C_10
REMARK    4  A    between atoms: C_18  and  N_19
REMARK                            x       y       z     vdW  Elec       q    Type
REMARK                         _______ _______ _______ _____ _____    ______ ____
ROOT
ATOM      1  C   UNL     1       2.206   7.716  18.944  0.00  0.00    +0.000 A 
ATOM      2  S   UNL     1       1.764   9.243  18.283  0.00  0.00    +0.000 S 
ATOM      3  C   UNL     1       0.948   9.707  19.690  0.00  0.00    +0.000 A 
ATOM      4  N   UNL     1       0.348  10.911  19.755  0.00  0.00    +0.000 NA
ATOM      5  C   UNL     1      -0.270  11.151  20.923  0.00  0.00    +0.000 A 
ATOM      6  C   UNL     1      -0.316  10.283  22.002  0.00  0.00    +0.000 A 
ATOM      7  C   UNL     1       0.323   9.051  21.892  0.00  0.00    +0.000 A 
ATOM      8  C   UNL     1       0.990   8.737  20.686  0.00  0.00    +0.000 A 
ATOM      9  C   UNL     1       1.738   7.594  20.244  0.00  0.00    +0.000 A 
ENDROOT
BRANCH   1  15
ATOM     10  C   UNL     1       6.495   5.244  15.605  0.00  0.00    +0.000 A 
ATOM     11  N   UNL     1       7.169   6.268  16.092  0.00  0.00    +0.000 NA
ATOM     12  N   UNL     1       6.370   7.078  16.871  0.00  0.00    +0.000 NA
ATOM     13  C   UNL     1       5.147   6.609  16.985  0.00  0.00    +0.000 A 
ATOM     14  N   UNL     1       4.194   7.250  17.725  0.00  0.00    +0.000 N 
ATOM     15  C   UNL     1       2.977   6.758  18.146  0.00  0.00    +0.000 C 
ATOM     16  O   UNL     1       2.571   5.621  17.929  0.00  0.00    +0.000 OA
ATOM     17  S   UNL     1       4.844   5.204  16.078  0.00  0.00    +0.000 S 
ATOM     18  H   UNL     1       4.495   8.146  18.083  0.00  0.00    +0.000 HD
BRANCH  10  20
ATOM     19  C   UNL     1       6.167   3.883  13.551  0.00  0.00    +0.000 C 
ATOM     20  C   UNL     1       7.076   4.186  14.733  0.00  0.00    +0.000 C 
ENDBRANCH  10  20
ENDBRANCH   1  15
BRANCH   9  21
ATOM     21  N   UNL     1       1.958   6.514  21.027  0.00  0.00    +0.000 N 
ATOM     22  H   UNL     1       2.873   6.270  21.390  0.00  0.00    +0.000 HD
ATOM     23  H   UNL     1       1.282   5.747  21.068  0.00  0.00    +0.000 HD
ENDBRANCH   9  21
TORSDOF 3
ENDMDL
MODEL 2
REMARK VINA RESULT:      -6.8      1.919      7.835
REMARK  Name = 
REMARK  4 active torsions:
REMARK  status: ('A' for Active; 'I' for Inactive)
REMARK    1  A    between atoms: C_1  and  C_2
REMARK    2  A    between atoms: C_2  and  C_3
REMARK    3  A    between atoms: C_8  and  C_10
REMARK    4  A    between atoms: C_18  and  N_19
REMARK                            x       y       z     vdW  Elec       q    Type
REMARK                         _______ _______ _______ _____ _____    ______ ____
ROOT
ATOM      1  C   UNL     1       3.273   6.219  18.446  0.00  0.00    +0.000 A 
ATOM      2  S   UNL     1       4.082   7.287  17.364  0.00  0.00    +0.000 S 
ATOM      3  C   UNL     1       4.813   6.012  16.526  0.00  0.00    +0.000 A 
ATOM      4  N   UNL     1       5.630   6.271  15.487  0.00  0.00    +0.000 NA
ATOM      5  C   UNL     1       6.151   5.172  14.915  0.00  0.00    +0.000 A 
ATOM      6  C   UNL     1       5.902   3.867  15.307  0.00  0.00    +0.000 A 
ATOM      7  C   UNL     1       5.046   3.647  16.383  0.00  0.00    +0.000 A 
ATOM      8  C   UNL     1       4.467   4.763  17.029  0.00  0.00    +0.000 A 
ATOM      9  C   UNL     1       3.559   4.898  18.134  0.00  0.00    +0.000 A 
ENDROOT
BRANCH   1  15
ATOM     10  C   UNL     1      -0.035   9.909  21.778  0.00  0.00    +0.000 A 
ATOM     11  N   UNL     1      -0.008  10.603  20.655  0.00  0.00    +0.000 NA
ATOM     12  N   UNL     1       0.777   9.993  19.700  0.00  0.00    +0.000 NA
ATOM     13  C   UNL     1       1.264   8.845  20.115  0.00  0.00    +0.000 A 
ATOM     14  N   UNL     1       2.058   8.068  19.321  0.00  0.00    +0.000 N 
ATOM     15  C   UNL     1       2.419   6.752  19.512  0.00  0.00    +0.000 C 
ATOM     16  O   UNL     1       2.041   6.054  20.448  0.00  0.00    +0.000 OA
ATOM     17  S   UNL     1       0.891   8.463  21.729  0.00  0.00    +0.000 S 
ATOM     18  H   UNL     1       2.302   8.505  18.442  0.00  0.00    +0.000 HD
BRANCH  10  20
ATOM     19  C   UNL     1      -1.284  11.738  22.907  0.00  0.00    +0.000 C 
ATOM     20  C   UNL     1      -0.798  10.299  22.996  0.00  0.00    +0.000 C 
ENDBRANCH  10  20
ENDBRANCH   1  15
BRANCH   9  21
ATOM     21  N   UNL     1       3.042   3.838  18.793  0.00  0.00    +0.000 N 
ATOM     22  H   UNL     1       2.592   3.914  19.699  0.00  0.00    +0.000 HD
ATOM     23  H   UNL     1       3.314   2.883  18.549  0.00  0.00    +0.000 HD
ENDBRANCH   9  21
TORSDOF 3
ENDMDL
MODEL 3
REMARK VINA RESULT:      -6.8      2.046      2.795
REMARK  Name = 
REMARK  4 active torsions:
REMARK  status: ('A' for Active; 'I' for Inactive)
REMARK    1  A    between atoms: C_1  and  C_2
REMARK    2  A    between atoms: C_2  and  C_3
REMARK    3  A    between atoms: C_8  and  C_10
REMARK    4  A    between atoms: C_18  and  N_19
REMARK                            x       y       z     vdW  Elec       q    Type
REMARK                         _______ _______ _______ _____ _____    ______ ____
ROOT
ATOM      1  C   UNL     1       1.414   8.852  19.518  0.00  0.00    +0.000 A 
ATOM      2  S   UNL     1       1.252   8.284  21.136  0.00  0.00    +0.000 S 
ATOM      3  C   UNL     1       0.240   9.569  21.570  0.00  0.00    +0.000 A 
ATOM      4  N   UNL     1      -0.238   9.654  22.827  0.00  0.00    +0.000 NA
ATOM      5  C   UNL     1      -1.021  10.724  23.041  0.00  0.00    +0.000 A 
ATOM      6  C   UNL     1      -1.350  11.682  22.096  0.00  0.00    +0.000 A 
ATOM      7  C   UNL     1      -0.838  11.550  20.808  0.00  0.00    +0.000 A 
ATOM      8  C   UNL     1      -0.004  10.446  20.519  0.00  0.00    +0.000 A 
ATOM      9  C   UNL     1       0.671  10.007  19.330  0.00  0.00    +0.000 A 
ENDROOT
BRANCH   1  15
ATOM     10  C   UNL     1       4.815   4.658  16.968  0.00  0.00    +0.000 A 
ATOM     11  N   UNL     1       4.268   3.935  17.926  0.00  0.00    +0.000 NA
ATOM     12  N   UNL     1       3.460   4.698  18.742  0.00  0.00    +0.000 NA
ATOM     13  C   UNL     1       3.386   5.947  18.340  0.00  0.00    +0.000 A 
ATOM     14  N   UNL     1       2.628   6.873  18.997  0.00  0.00    +0.000 N 
ATOM     15  C   UNL     1       2.249   8.124  18.558  0.00  0.00    +0.000 C 
ATOM     16  O   UNL     1       2.528   8.591  17.458  0.00  0.00    +0.000 OA
ATOM     17  S   UNL     1       4.367   6.317  17.002  0.00  0.00    +0.000 S 
ATOM     18  H   UNL     1       2.221   6.527  19.855  0.00  0.00    +0.000 HD
BRANCH  10  20
ATOM     19  C   UNL     1       6.904   5.066  15.683  0.00  0.00    +0.000 C 
ATOM     20  C   UNL     1       5.732   4.125  15.923  0.00  0.00    +0.000 C 
ENDBRANCH  10  20
ENDBRANCH   1  15
BRANCH   9  21
ATOM     21  N   UNL     1       0.581  10.663  18.151  0.00  0.00    +0.000 N 
ATOM     22  H   UNL     1       0.050  10.313  17.361  0.00  0.00    +0.000 HD
ATOM     23  H   UNL     1       1.252  11.394  17.904  0.00  0.00    +0.000 HD
ENDBRANCH   9  21
TORSDOF 3
ENDMDL
MODEL 4
REMARK VINA RESULT:      -6.6      3.568      4.192
REMARK  Name = 
REMARK  4 active torsions:
REMARK  status: ('A' for Active; 'I' for Inactive)
REMARK    1  A    between atoms: C_1  and  C_2
REMARK    2  A    between atoms: C_2  and  C_3
REMARK    3  A    between atoms: C_8  and  C_10
REMARK    4  A    between atoms: C_18  and  N_19
REMARK                            x       y       z     vdW  Elec       q    Type
REMARK                         _______ _______ _______ _____ _____    ______ ____
ROOT
ATOM      1  C   UNL     1       1.378   8.762  20.062  0.00  0.00    +0.000 A 
ATOM      2  S   UNL     1       1.014   9.061  21.718  0.00  0.00    +0.000 S 
ATOM      3  C   UNL     1       0.361  10.585  21.382  0.00  0.00    +0.000 A 
ATOM      4  N   UNL     1      -0.122  11.345  22.384  0.00  0.00    +0.000 NA
ATOM      5  C   UNL     1      -0.602  12.534  21.984  0.00  0.00    +0.000 A 
ATOM      6  C   UNL     1      -0.634  12.990  20.675  0.00  0.00    +0.000 A 
ATOM      7  C   UNL     1      -0.128  12.168  19.673  0.00  0.00    +0.000 A 
ATOM      8  C   UNL     1       0.395  10.904  20.030  0.00  0.00    +0.000 A 
ATOM      9  C   UNL     1       0.973   9.829  19.273  0.00  0.00    +0.000 A 
ENDROOT
BRANCH   1  15
ATOM     10  C   UNL     1       3.454   3.163  20.097  0.00  0.00    +0.000 A 
ATOM     11  N   UNL     1       2.592   3.077  21.093  0.00  0.00    +0.000 NA
ATOM     12  N   UNL     1       1.998   4.292  21.358  0.00  0.00    +0.000 NA
ATOM     13  C   UNL     1       2.391   5.230  20.524  0.00  0.00    +0.000 A 
ATOM     14  N   UNL     1       1.915   6.508  20.600  0.00  0.00    +0.000 N 
ATOM     15  C   UNL     1       2.025   7.510  19.659  0.00  0.00    +0.000 C 
ATOM     16  O   UNL     1       2.567   7.383  18.566  0.00  0.00    +0.000 OA
ATOM     17  S   UNL     1       3.583   4.736  19.418  0.00  0.00    +0.000 S 
ATOM     18  H   UNL     1       1.322   6.672  21.402  0.00  0.00    +0.000 HD
BRANCH  10  20
ATOM     19  C   UNL     1       3.631   1.454  18.300  0.00  0.00    +0.000 C 
ATOM     20  C   UNL     1       4.252   2.024  19.567  0.00  0.00    +0.000 C 
ENDBRANCH  10  20
ENDBRANCH   1  15
BRANCH   9  21
ATOM     21  N   UNL     1       1.102   9.865  17.928  0.00  0.00    +0.000 N 
ATOM     22  H   UNL     1       1.178  10.729  17.402  0.00  0.00    +0.000 HD
ATOM     23  H   UNL     1       0.858   9.054  17.354  0.00  0.00    +0.000 HD
ENDBRANCH   9  21
TORSDOF 3
ENDMDL
MODEL 5
REMARK VINA RESULT:      -6.6      2.816      8.281
REMARK  Name = 
REMARK  4 active torsions:
REMARK  status: ('A' for Active; 'I' for Inactive)
REMARK    1  A    between atoms: C_1  and  C_2
REMARK    2  A    between atoms: C_2  and  C_3
REMARK    3  A    between atoms: C_8  and  C_10
REMARK    4  A    between atoms: C_18  and  N_19
REMARK                            x       y       z     vdW  Elec       q    Type
REMARK                         _______ _______ _______ _____ _____    ______ ____
ROOT
ATOM      1  C   UNL     1       2.246   6.978  19.480  0.00  0.00    +0.000 A 
ATOM      2  S   UNL     1       2.022   5.575  20.453  0.00  0.00    +0.000 S 
ATOM      3  C   UNL     1       2.951   4.612  19.419  0.00  0.00    +0.000 A 
ATOM      4  N   UNL     1       3.136   3.307  19.701  0.00  0.00    +0.000 NA
ATOM      5  C   UNL     1       3.885   2.654  18.797  0.00  0.00    +0.000 A 
ATOM      6  C   UNL     1       4.449   3.217  17.663  0.00  0.00    +0.000 A 
ATOM      7  C   UNL     1       4.235   4.570  17.415  0.00  0.00    +0.000 A 
ATOM      8  C   UNL     1       3.453   5.313  18.329  0.00  0.00    +0.000 A 
ATOM      9  C   UNL     1       3.049   6.690  18.386  0.00  0.00    +0.000 A 
ENDROOT
BRANCH   1  15
ATOM     10  C   UNL     1      -0.674  11.196  22.537  0.00  0.00    +0.000 A 
ATOM     11  N   UNL     1      -0.411  10.361  23.524  0.00  0.00    +0.000 NA
ATOM     12  N   UNL     1       0.220   9.222  23.072  0.00  0.00    +0.000 NA
ATOM     13  C   UNL     1       0.455   9.263  21.780  0.00  0.00    +0.000 A 
ATOM     14  N   UNL     1       1.085   8.241  21.128  0.00  0.00    +0.000 N 
ATOM     15  C   UNL     1       1.625   8.251  19.860  0.00  0.00    +0.000 C 
ATOM     16  O   UNL     1       1.641   9.226  19.116  0.00  0.00    +0.000 OA
ATOM     17  S   UNL     1      -0.157  10.640  20.995  0.00  0.00    +0.000 S 
ATOM     18  H   UNL     1       1.256   7.434  21.712  0.00  0.00    +0.000 HD
BRANCH  10  20
ATOM     19  C   UNL     1      -2.723  12.364  23.320  0.00  0.00    +0.000 C 
ATOM     20  C   UNL     1      -1.343  12.516  22.699  0.00  0.00    +0.000 C 
ENDBRANCH  10  20
ENDBRANCH   1  15
BRANCH   9  21
ATOM     21  N   UNL     1       3.422   7.603  17.462  0.00  0.00    +0.000 N 
ATOM     22  H   UNL     1       3.146   8.578  17.505  0.00  0.00    +0.000 HD
ATOM     23  H   UNL     1       3.764   7.312  16.543  0.00  0.00    +0.000 HD
ENDBRANCH   9  21
TORSDOF 3
ENDMDL
MODEL 6
REMARK VINA RESULT:      -6.5      0.998      1.075
REMARK  Name = 
REMARK  4 active torsions:
REMARK  status: ('A' for Active; 'I' for Inactive)
REMARK    1  A    between atoms: C_1  and  C_2
REMARK    2  A    between atoms: C_2  and  C_3
REMARK    3  A    between atoms: C_8  and  C_10
REMARK    4  A    between atoms: C_18  and  N_19
REMARK                            x       y       z     vdW  Elec       q    Type
REMARK                         _______ _______ _______ _____ _____    ______ ____
ROOT
ATOM      1  C   UNL     1       1.866   8.289  19.247  0.00  0.00    +0.000 A 
ATOM      2  S   UNL     1       1.369   9.572  18.212  0.00  0.00    +0.000 S 
ATOM      3  C   UNL     1       0.555  10.371  19.461  0.00  0.00    +0.000 A 
ATOM      4  N   UNL     1      -0.081  11.533  19.214  0.00  0.00    +0.000 NA
ATOM      5  C   UNL     1      -0.693  12.059  20.288  0.00  0.00    +0.000 A 
ATOM      6  C   UNL     1      -0.699  11.509  21.560  0.00  0.00    +0.000 A 
ATOM      7  C   UNL     1      -0.024  10.310  21.770  0.00  0.00    +0.000 A 
ATOM      8  C   UNL     1       0.639   9.704  20.678  0.00  0.00    +0.000 A 
ATOM      9  C   UNL     1       1.418   8.505  20.542  0.00  0.00    +0.000 A 
ENDROOT
BRANCH   1  15
ATOM     10  C   UNL     1       5.547   5.028  15.859  0.00  0.00    +0.000 A 
ATOM     11  N   UNL     1       5.907   6.235  15.465  0.00  0.00    +0.000 NA
ATOM     12  N   UNL     1       5.140   7.214  16.058  0.00  0.00    +0.000 NA
ATOM     13  C   UNL     1       4.272   6.717  16.911  0.00  0.00    +0.000 A 
ATOM     14  N   UNL     1       3.421   7.515  17.621  0.00  0.00    +0.000 N 
ATOM     15  C   UNL     1       2.658   7.174  18.719  0.00  0.00    +0.000 C 
ATOM     16  O   UNL     1       2.656   6.068  19.250  0.00  0.00    +0.000 OA
ATOM     17  S   UNL     1       4.251   5.019  16.988  0.00  0.00    +0.000 S 
ATOM     18  H   UNL     1       3.462   8.489  17.355  0.00  0.00    +0.000 HD
BRANCH  10  20
ATOM     19  C   UNL     1       6.294   3.711  13.888  0.00  0.00    +0.000 C 
ATOM     20  C   UNL     1       6.185   3.762  15.404  0.00  0.00    +0.000 C 
ENDBRANCH  10  20
ENDBRANCH   1  15
BRANCH   9  21
ATOM     21  N   UNL     1       1.680   7.679  21.579  0.00  0.00    +0.000 N 
ATOM     22  H   UNL     1       1.760   8.002  22.538  0.00  0.00    +0.000 HD
ATOM     23  H   UNL     1       2.077   6.749  21.425  0.00  0.00    +0.000 HD
ENDBRANCH   9  21
TORSDOF 3
ENDMDL
MODEL 7
REMARK VINA RESULT:      -6.2      1.824      1.907
REMARK  Name = 
REMARK  4 active torsions:
REMARK  status: ('A' for Active; 'I' for Inactive)
REMARK    1  A    between atoms: C_1  and  C_2
REMARK    2  A    between atoms: C_2  and  C_3
REMARK    3  A    between atoms: C_8  and  C_10
REMARK    4  A    between atoms: C_18  and  N_19
REMARK                            x       y       z     vdW  Elec       q    Type
REMARK                         _______ _______ _______ _____ _____    ______ ____
ROOT
ATOM      1  C   UNL     1       1.743   8.596  19.301  0.00  0.00    +0.000 A 
ATOM      2  S   UNL     1       1.073  10.126  18.881  0.00  0.00    +0.000 S 
ATOM      3  C   UNL     1       0.314  10.296  20.383  0.00  0.00    +0.000 A 
ATOM      4  N   UNL     1      -0.420  11.395  20.645  0.00  0.00    +0.000 NA
ATOM      5  C   UNL     1      -0.975  11.402  21.869  0.00  0.00    +0.000 A 
ATOM      6  C   UNL     1      -0.835  10.404  22.820  0.00  0.00    +0.000 A 
ATOM      7  C   UNL     1      -0.063   9.289  22.507  0.00  0.00    +0.000 A 
ATOM      8  C   UNL     1       0.546   9.221  21.233  0.00  0.00    +0.000 A 
ATOM      9  C   UNL     1       1.391   8.250  20.598  0.00  0.00    +0.000 A 
ENDROOT
BRANCH   1  15
ATOM     10  C   UNL     1       4.952   4.297  16.680  0.00  0.00    +0.000 A 
ATOM     11  N   UNL     1       4.322   3.571  17.584  0.00  0.00    +0.000 NA
ATOM     12  N   UNL     1       3.537   4.351  18.406  0.00  0.00    +0.000 NA
ATOM     13  C   UNL     1       3.561   5.619  18.059  0.00  0.00    +0.000 A 
ATOM     14  N   UNL     1       2.842   6.565  18.732  0.00  0.00    +0.000 N 
ATOM     15  C   UNL     1       2.563   7.856  18.338  0.00  0.00    +0.000 C 
ATOM     16  O   UNL     1       2.915   8.351  17.272  0.00  0.00    +0.000 OA
ATOM     17  S   UNL     1       4.615   5.979  16.775  0.00  0.00    +0.000 S 
ATOM     18  H   UNL     1       2.381   6.210  19.559  0.00  0.00    +0.000 HD
BRANCH  10  20
ATOM     19  C   UNL     1       5.970   4.681  14.445  0.00  0.00    +0.000 C 
ATOM     20  C   UNL     1       5.870   3.749  15.644  0.00  0.00    +0.000 C 
ENDBRANCH  10  20
ENDBRANCH   1  15
BRANCH   9  21
ATOM     21  N   UNL     1       1.797   7.116  21.212  0.00  0.00    +0.000 N 
ATOM     22  H   UNL     1       1.335   6.222  21.085  0.00  0.00    +0.000 HD
ATOM     23  H   UNL     1       2.406   7.151  22.033  0.00  0.00    +0.000 HD
ENDBRANCH   9  21
TORSDOF 3
ENDMDL
MODEL 8
REMARK VINA RESULT:      -6.2      2.176      7.971
REMARK  Name = 
REMARK  4 active torsions:
REMARK  status: ('A' for Active; 'I' for Inactive)
REMARK    1  A    between atoms: C_1  and  C_2
REMARK    2  A    between atoms: C_2  and  C_3
REMARK    3  A    between atoms: C_8  and  C_10
REMARK    4  A    between atoms: C_18  and  N_19
REMARK                            x       y       z     vdW  Elec       q    Type
REMARK                         _______ _______ _______ _____ _____    ______ ____
ROOT
ATOM      1  C   UNL     1       2.287   7.454  19.459  0.00  0.00    +0.000 A 
ATOM      2  S   UNL     1       2.919   7.967  17.941  0.00  0.00    +0.000 S 
ATOM      3  C   UNL     1       3.776   6.525  17.720  0.00  0.00    +0.000 A 
ATOM      4  N   UNL     1       4.519   6.348  16.611  0.00  0.00    +0.000 NA
ATOM      5  C   UNL     1       5.154   5.165  16.563  0.00  0.00    +0.000 A 
ATOM      6  C   UNL     1       5.084   4.175  17.530  0.00  0.00    +0.000 A 
ATOM      7  C   UNL     1       4.299   4.400  18.657  0.00  0.00    +0.000 A 
ATOM      8  C   UNL     1       3.606   5.627  18.768  0.00  0.00    +0.000 A 
ATOM      9  C   UNL     1       2.726   6.173  19.762  0.00  0.00    +0.000 A 
ENDROOT
BRANCH   1  15
ATOM     10  C   UNL     1      -1.364  11.922  20.998  0.00  0.00    +0.000 A 
ATOM     11  N   UNL     1      -1.471  12.002  19.686  0.00  0.00    +0.000 NA
ATOM     12  N   UNL     1      -0.647  11.097  19.052  0.00  0.00    +0.000 NA
ATOM     13  C   UNL     1       0.006  10.337  19.903  0.00  0.00    +0.000 A 
ATOM     14  N   UNL     1       0.867   9.362  19.487  0.00  0.00    +0.000 N 
ATOM     15  C   UNL     1       1.408   8.336  20.232  0.00  0.00    +0.000 C 
ATOM     16  O   UNL     1       1.163   8.129  21.416  0.00  0.00    +0.000 OA
ATOM     17  S   UNL     1      -0.253  10.726  21.537  0.00  0.00    +0.000 S 
ATOM     18  H   UNL     1       1.017   9.355  18.488  0.00  0.00    +0.000 HD
BRANCH  10  20
ATOM     19  C   UNL     1      -2.479  11.977  23.219  0.00  0.00    +0.000 C 
ATOM     20  C   UNL     1      -2.126  12.761  21.964  0.00  0.00    +0.000 C 
ENDBRANCH  10  20
ENDBRANCH   1  15
BRANCH   9  21
ATOM     21  N   UNL     1       2.368   5.497  20.877  0.00  0.00    +0.000 N 
ATOM     22  H   UNL     1       1.442   5.106  21.014  0.00  0.00    +0.000 HD
ATOM     23  H   UNL     1       2.911   5.579  21.739  0.00  0.00    +0.000 HD
ENDBRANCH   9  21
TORSDOF 3
ENDMDL
MODEL 9
REMARK VINA RESULT:      -6.1      3.077      4.106
REMARK  Name = 
REMARK  4 active torsions:
REMARK  status: ('A' for Active; 'I' for Inactive)
REMARK    1  A    between atoms: C_1  and  C_2
REMARK    2  A    between atoms: C_2  and  C_3
REMARK    3  A    between atoms: C_8  and  C_10
REMARK    4  A    between atoms: C_18  and  N_19
REMARK                            x       y       z     vdW  Elec       q    Type
REMARK                         _______ _______ _______ _____ _____    ______ ____
ROOT
ATOM      1  C   UNL     1       0.939   9.476  20.480  0.00  0.00    +0.000 A 
ATOM      2  S   UNL     1       0.102   9.219  21.963  0.00  0.00    +0.000 S 
ATOM      3  C   UNL     1      -0.312  10.853  22.105  0.00  0.00    +0.000 A 
ATOM      4  N   UNL     1      -1.030  11.275  23.165  0.00  0.00    +0.000 NA
ATOM      5  C   UNL     1      -1.283  12.594  23.161  0.00  0.00    +0.000 A 
ATOM      6  C   UNL     1      -0.878  13.488  22.183  0.00  0.00    +0.000 A 
ATOM      7  C   UNL     1      -0.143  13.006  21.104  0.00  0.00    +0.000 A 
ATOM      8  C   UNL     1       0.159  11.626  21.051  0.00  0.00    +0.000 A 
ATOM      9  C   UNL     1       0.870  10.810  20.106  0.00  0.00    +0.000 A 
ENDROOT
BRANCH   1  15
ATOM     10  C   UNL     1       3.398   4.154  19.343  0.00  0.00    +0.000 A 
ATOM     11  N   UNL     1       2.739   3.853  20.446  0.00  0.00    +0.000 NA
ATOM     12  N   UNL     1       2.114   4.958  20.983  0.00  0.00    +0.000 NA
ATOM     13  C   UNL     1       2.279   6.032  20.242  0.00  0.00    +0.000 A 
ATOM     14  N   UNL     1       1.731   7.235  20.584  0.00  0.00    +0.000 N 
ATOM     15  C   UNL     1       1.595   8.358  19.795  0.00  0.00    +0.000 C 
ATOM     16  O   UNL     1       1.938   8.431  18.620  0.00  0.00    +0.000 OA
ATOM     17  S   UNL     1       3.285   5.808  18.891  0.00  0.00    +0.000 S 
ATOM     18  H   UNL     1       1.281   7.233  21.489  0.00  0.00    +0.000 HD
BRANCH  10  20
ATOM     19  C   UNL     1       4.436   3.719  17.127  0.00  0.00    +0.000 C 
ATOM     20  C   UNL     1       4.170   3.179  18.524  0.00  0.00    +0.000 C 
ENDBRANCH  10  20
ENDBRANCH   1  15
BRANCH   9  21
ATOM     21  N   UNL     1       1.410  11.304  18.970  0.00  0.00    +0.000 N 
ATOM     22  H   UNL     1       1.782  12.246  18.898  0.00  0.00    +0.000 HD
ATOM     23  H   UNL     1       1.228  10.863  18.066  0.00  0.00    +0.000 HD
ENDBRANCH   9  21
TORSDOF 3
ENDMDL
