MODEL 1
REMARK VINA RESULT:      -7.8      0.000      0.000
REMARK  Name = 
REMARK  2 active torsions:
REMARK  status: ('A' for Active; 'I' for Inactive)
REMARK    1  A    between atoms: C_4  and  C_5
REMARK    2  A    between atoms: C_16  and  O_17
REMARK                            x       y       z     vdW  Elec       q    Type
REMARK                         _______ _______ _______ _____ _____    ______ ____
ROOT
ATOM      1  O   UNL     1       7.627   6.244  16.241  0.00  0.00    +0.000 OA
ATOM      2  C   UNL     1       6.830   5.456  15.760  0.00  0.00    +0.000 C 
ATOM      3  C   UNL     1       5.655   4.874  16.470  0.00  0.00    +0.000 C 
ATOM      4  C   UNL     1       5.411   5.219  17.740  0.00  0.00    +0.000 C 
ATOM      5  C   UNL     1       4.922   3.959  15.522  0.00  0.00    +0.000 C 
ATOM      6  C   UNL     1       5.735   4.039  14.262  0.00  0.00    +0.000 A 
ATOM      7  C   UNL     1       5.518   3.385  13.057  0.00  0.00    +0.000 A 
ATOM      8  C   UNL     1       6.413   3.610  12.003  0.00  0.00    +0.000 A 
ATOM      9  C   UNL     1       7.507   4.479  12.157  0.00  0.00    +0.000 A 
ATOM     10  C   UNL     1       7.716   5.133  13.369  0.00  0.00    +0.000 A 
ATOM     11  C   UNL     1       6.827   4.901  14.403  0.00  0.00    +0.000 A 
ENDROOT
BRANCH   4  12
ATOM     12  C   UNL     1       4.288   4.705  18.517  0.00  0.00    +0.000 A 
ATOM     13  C   UNL     1       3.028   5.297  18.395  0.00  0.00    +0.000 A 
ATOM     14  C   UNL     1       1.934   4.758  19.075  0.00  0.00    +0.000 A 
ATOM     15  C   UNL     1       2.105   3.646  19.900  0.00  0.00    +0.000 A 
ATOM     16  C   UNL     1       3.371   3.086  20.064  0.00  0.00    +0.000 A 
ATOM     17  C   UNL     1       4.462   3.612  19.371  0.00  0.00    +0.000 A 
ENDBRANCH   4  12
BRANCH  10  18
ATOM     18  O   UNL     1       8.766   5.978  13.536  0.00  0.00    +0.000 OA
ATOM     19  H   UNL     1       9.230   6.101  12.694  0.00  0.00    +0.000 HD
ENDBRANCH  10  18
TORSDOF 2
ENDMDL
MODEL 2
REMARK VINA RESULT:      -7.8      0.461      1.190
REMARK  Name = 
REMARK  2 active torsions:
REMARK  status: ('A' for Active; 'I' for Inactive)
REMARK    1  A    between atoms: C_4  and  C_5
REMARK    2  A    between atoms: C_16  and  O_17
REMARK                            x       y       z     vdW  Elec       q    Type
REMARK                         _______ _______ _______ _____ _____    ______ ____
ROOT
ATOM      1  O   UNL     1       7.688   6.324  16.328  0.00  0.00    +0.000 OA
ATOM      2  C   UNL     1       6.838   5.563  15.899  0.00  0.00    +0.000 C 
ATOM      3  C   UNL     1       5.659   5.065  16.665  0.00  0.00    +0.000 C 
ATOM      4  C   UNL     1       5.475   5.463  17.930  0.00  0.00    +0.000 C 
ATOM      5  C   UNL     1       4.851   4.158  15.773  0.00  0.00    +0.000 C 
ATOM      6  C   UNL     1       5.626   4.155  14.486  0.00  0.00    +0.000 A 
ATOM      7  C   UNL     1       5.337   3.473  13.312  0.00  0.00    +0.000 A 
ATOM      8  C   UNL     1       6.207   3.617  12.224  0.00  0.00    +0.000 A 
ATOM      9  C   UNL     1       7.347   4.434  12.313  0.00  0.00    +0.000 A 
ATOM     10  C   UNL     1       7.629   5.116  13.495  0.00  0.00    +0.000 A 
ATOM     11  C   UNL     1       6.764   4.964  14.563  0.00  0.00    +0.000 A 
ENDROOT
BRANCH   4  12
ATOM     12  C   UNL     1       4.354   5.033  18.758  0.00  0.00    +0.000 A 
ATOM     13  C   UNL     1       4.346   3.747  19.307  0.00  0.00    +0.000 A 
ATOM     14  C   UNL     1       3.315   3.360  20.164  0.00  0.00    +0.000 A 
ATOM     15  C   UNL     1       2.275   4.245  20.450  0.00  0.00    +0.000 A 
ATOM     16  C   UNL     1       2.254   5.509  19.862  0.00  0.00    +0.000 A 
ATOM     17  C   UNL     1       3.293   5.905  19.019  0.00  0.00    +0.000 A 
ENDBRANCH   4  12
BRANCH  10  18
ATOM     18  O   UNL     1       8.724   5.912  13.600  0.00  0.00    +0.000 OA
ATOM     19  H   UNL     1       8.702   6.397  14.440  0.00  0.00    +0.000 HD
ENDBRANCH  10  18
TORSDOF 2
ENDMDL
MODEL 3
REMARK VINA RESULT:      -7.2      4.651      6.765
REMARK  Name = 
REMARK  2 active torsions:
REMARK  status: ('A' for Active; 'I' for Inactive)
REMARK    1  A    between atoms: C_4  and  C_5
REMARK    2  A    between atoms: C_16  and  O_17
REMARK                            x       y       z     vdW  Elec       q    Type
REMARK                         _______ _______ _______ _____ _____    ______ ____
ROOT
ATOM      1  O   UNL     1       4.485   6.088  18.096  0.00  0.00    +0.000 OA
ATOM      2  C   UNL     1       3.622   5.831  18.918  0.00  0.00    +0.000 C 
ATOM      3  C   UNL     1       2.507   6.739  19.314  0.00  0.00    +0.000 C 
ATOM      4  C   UNL     1       2.402   7.946  18.743  0.00  0.00    +0.000 C 
ATOM      5  C   UNL     1       1.658   6.042  20.345  0.00  0.00    +0.000 C 
ATOM      6  C   UNL     1       2.343   4.716  20.522  0.00  0.00    +0.000 A 
ATOM      7  C   UNL     1       1.987   3.672  21.365  0.00  0.00    +0.000 A 
ATOM      8  C   UNL     1       2.778   2.516  21.367  0.00  0.00    +0.000 A 
ATOM      9  C   UNL     1       3.906   2.411  20.535  0.00  0.00    +0.000 A 
ATOM     10  C   UNL     1       4.255   3.463  19.691  0.00  0.00    +0.000 A 
ATOM     11  C   UNL     1       3.468   4.600  19.699  0.00  0.00    +0.000 A 
ENDROOT
BRANCH   4  12
ATOM     12  C   UNL     1       1.349   8.903  19.063  0.00  0.00    +0.000 A 
ATOM     13  C   UNL     1       0.614   9.500  18.035  0.00  0.00    +0.000 A 
ATOM     14  C   UNL     1      -0.447  10.354  18.339  0.00  0.00    +0.000 A 
ATOM     15  C   UNL     1      -0.755  10.637  19.670  0.00  0.00    +0.000 A 
ATOM     16  C   UNL     1       0.010  10.084  20.696  0.00  0.00    +0.000 A 
ATOM     17  C   UNL     1       1.059   9.215  20.394  0.00  0.00    +0.000 A 
ENDBRANCH   4  12
BRANCH  10  18
ATOM     18  O   UNL     1       5.339   3.379  18.878  0.00  0.00    +0.000 OA
ATOM     19  H   UNL     1       5.236   2.635  18.264  0.00  0.00    +0.000 HD
ENDBRANCH  10  18
TORSDOF 2
ENDMDL
MODEL 4
REMARK VINA RESULT:      -7.2      2.324      6.642
REMARK  Name = 
REMARK  2 active torsions:
REMARK  status: ('A' for Active; 'I' for Inactive)
REMARK    1  A    between atoms: C_4  and  C_5
REMARK    2  A    between atoms: C_16  and  O_17
REMARK                            x       y       z     vdW  Elec       q    Type
REMARK                         _______ _______ _______ _____ _____    ______ ____
ROOT
ATOM      1  O   UNL     1       4.326   2.925  18.295  0.00  0.00    +0.000 OA
ATOM      2  C   UNL     1       4.233   4.057  17.853  0.00  0.00    +0.000 C 
ATOM      3  C   UNL     1       4.834   4.539  16.575  0.00  0.00    +0.000 C 
ATOM      4  C   UNL     1       5.540   3.692  15.815  0.00  0.00    +0.000 C 
ATOM      5  C   UNL     1       4.476   5.991  16.390  0.00  0.00    +0.000 C 
ATOM      6  C   UNL     1       3.665   6.310  17.614  0.00  0.00    +0.000 A 
ATOM      7  C   UNL     1       3.082   7.519  17.966  0.00  0.00    +0.000 A 
ATOM      8  C   UNL     1       2.362   7.589  19.165  0.00  0.00    +0.000 A 
ATOM      9  C   UNL     1       2.230   6.463  19.996  0.00  0.00    +0.000 A 
ATOM     10  C   UNL     1       2.817   5.253  19.634  0.00  0.00    +0.000 A 
ATOM     11  C   UNL     1       3.527   5.196  18.448  0.00  0.00    +0.000 A 
ENDROOT
BRANCH   4  12
ATOM     12  C   UNL     1       6.164   4.068  14.552  0.00  0.00    +0.000 A 
ATOM     13  C   UNL     1       7.229   4.973  14.543  0.00  0.00    +0.000 A 
ATOM     14  C   UNL     1       7.881   5.274  13.346  0.00  0.00    +0.000 A 
ATOM     15  C   UNL     1       7.449   4.694  12.152  0.00  0.00    +0.000 A 
ATOM     16  C   UNL     1       6.354   3.832  12.151  0.00  0.00    +0.000 A 
ATOM     17  C   UNL     1       5.712   3.516  13.350  0.00  0.00    +0.000 A 
ENDBRANCH   4  12
BRANCH  10  18
ATOM     18  O   UNL     1       2.698   4.154  20.422  0.00  0.00    +0.000 OA
ATOM     19  H   UNL     1       3.570   3.886  20.752  0.00  0.00    +0.000 HD
ENDBRANCH  10  18
TORSDOF 2
ENDMDL
MODEL 5
REMARK VINA RESULT:      -7.1      2.331      6.590
REMARK  Name = 
REMARK  2 active torsions:
REMARK  status: ('A' for Active; 'I' for Inactive)
REMARK    1  A    between atoms: C_4  and  C_5
REMARK    2  A    between atoms: C_16  and  O_17
REMARK                            x       y       z     vdW  Elec       q    Type
REMARK                         _______ _______ _______ _____ _____    ______ ____
ROOT
ATOM      1  O   UNL     1       4.386   3.166  18.376  0.00  0.00    +0.000 OA
ATOM      2  C   UNL     1       4.300   4.268  17.862  0.00  0.00    +0.000 C 
ATOM      3  C   UNL     1       4.920   4.669  16.566  0.00  0.00    +0.000 C 
ATOM      4  C   UNL     1       5.638   3.776  15.872  0.00  0.00    +0.000 C 
ATOM      5  C   UNL     1       4.566   6.106  16.284  0.00  0.00    +0.000 C 
ATOM      6  C   UNL     1       3.736   6.500  17.473  0.00  0.00    +0.000 A 
ATOM      7  C   UNL     1       3.147   7.729  17.739  0.00  0.00    +0.000 A 
ATOM      8  C   UNL     1       2.409   7.874  18.921  0.00  0.00    +0.000 A 
ATOM      9  C   UNL     1       2.264   6.802  19.819  0.00  0.00    +0.000 A 
ATOM     10  C   UNL     1       2.857   5.572  19.542  0.00  0.00    +0.000 A 
ATOM     11  C   UNL     1       3.585   5.441  18.374  0.00  0.00    +0.000 A 
ENDROOT
BRANCH   4  12
ATOM     12  C   UNL     1       6.281   4.073  14.597  0.00  0.00    +0.000 A 
ATOM     13  C   UNL     1       5.862   3.417  13.436  0.00  0.00    +0.000 A 
ATOM     14  C   UNL     1       6.420   3.755  12.202  0.00  0.00    +0.000 A 
ATOM     15  C   UNL     1       7.419   4.727  12.131  0.00  0.00    +0.000 A 
ATOM     16  C   UNL     1       7.875   5.344  13.295  0.00  0.00    +0.000 A 
ATOM     17  C   UNL     1       7.306   5.021  14.527  0.00  0.00    +0.000 A 
ENDBRANCH   4  12
BRANCH  10  18
ATOM     18  O   UNL     1       2.725   4.524  20.396  0.00  0.00    +0.000 OA
ATOM     19  H   UNL     1       3.337   3.815  20.147  0.00  0.00    +0.000 HD
ENDBRANCH  10  18
TORSDOF 2
ENDMDL
MODEL 6
REMARK VINA RESULT:      -7.1      3.706      5.702
REMARK  Name = 
REMARK  2 active torsions:
REMARK  status: ('A' for Active; 'I' for Inactive)
REMARK    1  A    between atoms: C_4  and  C_5
REMARK    2  A    between atoms: C_16  and  O_17
REMARK                            x       y       z     vdW  Elec       q    Type
REMARK                         _______ _______ _______ _____ _____    ______ ____
ROOT
ATOM      1  O   UNL     1       4.640   6.121  16.984  0.00  0.00    +0.000 OA
ATOM      2  C   UNL     1       3.703   5.676  17.624  0.00  0.00    +0.000 C 
ATOM      3  C   UNL     1       2.634   6.491  18.271  0.00  0.00    +0.000 C 
ATOM      4  C   UNL     1       2.662   7.825  18.164  0.00  0.00    +0.000 C 
ATOM      5  C   UNL     1       1.661   5.561  18.950  0.00  0.00    +0.000 C 
ATOM      6  C   UNL     1       2.230   4.198  18.672  0.00  0.00    +0.000 A 
ATOM      7  C   UNL     1       1.736   2.964  19.072  0.00  0.00    +0.000 A 
ATOM      8  C   UNL     1       2.435   1.811  18.695  0.00  0.00    +0.000 A 
ATOM      9  C   UNL     1       3.610   1.895  17.928  0.00  0.00    +0.000 A 
ATOM     10  C   UNL     1       4.097   3.138  17.529  0.00  0.00    +0.000 A 
ATOM     11  C   UNL     1       3.399   4.270  17.909  0.00  0.00    +0.000 A 
ENDROOT
BRANCH   4  12
ATOM     12  C   UNL     1       1.663   8.705  18.760  0.00  0.00    +0.000 A 
ATOM     13  C   UNL     1       0.888   9.534  17.942  0.00  0.00    +0.000 A 
ATOM     14  C   UNL     1      -0.123  10.318  18.500  0.00  0.00    +0.000 A 
ATOM     15  C   UNL     1      -0.340  10.298  19.879  0.00  0.00    +0.000 A 
ATOM     16  C   UNL     1       0.466   9.513  20.701  0.00  0.00    +0.000 A 
ATOM     17  C   UNL     1       1.466   8.714  20.143  0.00  0.00    +0.000 A 
ENDBRANCH   4  12
BRANCH  10  18
ATOM     18  O   UNL     1       5.228   3.240  16.786  0.00  0.00    +0.000 OA
ATOM     19  H   UNL     1       5.737   2.417  16.840  0.00  0.00    +0.000 HD
ENDBRANCH  10  18
TORSDOF 2
ENDMDL
MODEL 7
REMARK VINA RESULT:      -7.1      3.437      6.539
REMARK  Name = 
REMARK  2 active torsions:
REMARK  status: ('A' for Active; 'I' for Inactive)
REMARK    1  A    between atoms: C_4  and  C_5
REMARK    2  A    between atoms: C_16  and  O_17
REMARK                            x       y       z     vdW  Elec       q    Type
REMARK                         _______ _______ _______ _____ _____    ______ ____
ROOT
ATOM      1  O   UNL     1       4.223   3.018  16.781  0.00  0.00    +0.000 OA
ATOM      2  C   UNL     1       3.995   3.755  17.725  0.00  0.00    +0.000 C 
ATOM      3  C   UNL     1       4.847   4.903  18.149  0.00  0.00    +0.000 C 
ATOM      4  C   UNL     1       5.961   5.190  17.465  0.00  0.00    +0.000 C 
ATOM      5  C   UNL     1       4.210   5.559  19.348  0.00  0.00    +0.000 C 
ATOM      6  C   UNL     1       2.980   4.731  19.587  0.00  0.00    +0.000 A 
ATOM      7  C   UNL     1       2.020   4.886  20.577  0.00  0.00    +0.000 A 
ATOM      8  C   UNL     1       0.945   3.989  20.611  0.00  0.00    +0.000 A 
ATOM      9  C   UNL     1       0.835   2.955  19.666  0.00  0.00    +0.000 A 
ATOM     10  C   UNL     1       1.802   2.808  18.674  0.00  0.00    +0.000 A 
ATOM     11  C   UNL     1       2.860   3.699  18.651  0.00  0.00    +0.000 A 
ENDROOT
BRANCH   4  12
ATOM     12  C   UNL     1       6.856   6.291  17.803  0.00  0.00    +0.000 A 
ATOM     13  C   UNL     1       6.781   7.493  17.093  0.00  0.00    +0.000 A 
ATOM     14  C   UNL     1       7.579   8.575  17.464  0.00  0.00    +0.000 A 
ATOM     15  C   UNL     1       8.476   8.449  18.526  0.00  0.00    +0.000 A 
ATOM     16  C   UNL     1       8.591   7.235  19.201  0.00  0.00    +0.000 A 
ATOM     17  C   UNL     1       7.780   6.157  18.843  0.00  0.00    +0.000 A 
ENDBRANCH   4  12
BRANCH  10  18
ATOM     18  O   UNL     1       1.713   1.817  17.750  0.00  0.00    +0.000 OA
ATOM     19  H   UNL     1       2.231   1.049  18.035  0.00  0.00    +0.000 HD
ENDBRANCH  10  18
TORSDOF 2
ENDMDL
MODEL 8
REMARK VINA RESULT:      -7.1      3.473      6.631
REMARK  Name = 
REMARK  2 active torsions:
REMARK  status: ('A' for Active; 'I' for Inactive)
REMARK    1  A    between atoms: C_4  and  C_5
REMARK    2  A    between atoms: C_16  and  O_17
REMARK                            x       y       z     vdW  Elec       q    Type
REMARK                         _______ _______ _______ _____ _____    ______ ____
ROOT
ATOM      1  O   UNL     1       4.229   2.858  16.824  0.00  0.00    +0.000 OA
ATOM      2  C   UNL     1       3.958   3.603  17.750  0.00  0.00    +0.000 C 
ATOM      3  C   UNL     1       4.770   4.777  18.180  0.00  0.00    +0.000 C 
ATOM      4  C   UNL     1       5.897   5.080  17.523  0.00  0.00    +0.000 C 
ATOM      5  C   UNL     1       4.085   5.436  19.350  0.00  0.00    +0.000 C 
ATOM      6  C   UNL     1       2.868   4.583  19.567  0.00  0.00    +0.000 A 
ATOM      7  C   UNL     1       1.877   4.731  20.528  0.00  0.00    +0.000 A 
ATOM      8  C   UNL     1       0.822   3.809  20.546  0.00  0.00    +0.000 A 
ATOM      9  C   UNL     1       0.763   2.759  19.614  0.00  0.00    +0.000 A 
ATOM     10  C   UNL     1       1.761   2.620  18.652  0.00  0.00    +0.000 A 
ATOM     11  C   UNL     1       2.798   3.535  18.645  0.00  0.00    +0.000 A 
ENDROOT
BRANCH   4  12
ATOM     12  C   UNL     1       6.757   6.206  17.868  0.00  0.00    +0.000 A 
ATOM     13  C   UNL     1       7.679   6.085  18.912  0.00  0.00    +0.000 A 
ATOM     14  C   UNL     1       8.558   7.132  19.193  0.00  0.00    +0.000 A 
ATOM     15  C   UNL     1       8.496   8.312  18.451  0.00  0.00    +0.000 A 
ATOM     16  C   UNL     1       7.542   8.455  17.445  0.00  0.00    +0.000 A 
ATOM     17  C   UNL     1       6.674   7.402  17.151  0.00  0.00    +0.000 A 
ENDBRANCH   4  12
BRANCH  10  18
ATOM     18  O   UNL     1       1.720   1.614  17.741  0.00  0.00    +0.000 OA
ATOM     19  H   UNL     1       1.485   1.966  16.868  0.00  0.00    +0.000 HD
ENDBRANCH  10  18
TORSDOF 2
ENDMDL
MODEL 9
REMARK VINA RESULT:      -7.1      4.644      6.844
REMARK  Name = 
REMARK  2 active torsions:
REMARK  status: ('A' for Active; 'I' for Inactive)
REMARK    1  A    between atoms: C_4  and  C_5
REMARK    2  A    between atoms: C_16  and  O_17
REMARK                            x       y       z     vdW  Elec       q    Type
REMARK                         _______ _______ _______ _____ _____    ______ ____
ROOT
ATOM      1  O   UNL     1       4.436   6.076  18.042  0.00  0.00    +0.000 OA
ATOM      2  C   UNL     1       3.594   5.830  18.888  0.00  0.00    +0.000 C 
ATOM      3  C   UNL     1       2.494   6.747  19.304  0.00  0.00    +0.000 C 
ATOM      4  C   UNL     1       2.379   7.948  18.725  0.00  0.00    +0.000 C 
ATOM      5  C   UNL     1       1.669   6.062  20.364  0.00  0.00    +0.000 C 
ATOM      6  C   UNL     1       2.353   4.736  20.536  0.00  0.00    +0.000 A 
ATOM      7  C   UNL     1       2.016   3.701  21.397  0.00  0.00    +0.000 A 
ATOM      8  C   UNL     1       2.802   2.542  21.390  0.00  0.00    +0.000 A 
ATOM      9  C   UNL     1       3.908   2.424  20.530  0.00  0.00    +0.000 A 
ATOM     10  C   UNL     1       4.238   3.467  19.667  0.00  0.00    +0.000 A 
ATOM     11  C   UNL     1       3.456   4.607  19.685  0.00  0.00    +0.000 A 
ENDROOT
BRANCH   4  12
ATOM     12  C   UNL     1       1.337   8.912  19.063  0.00  0.00    +0.000 A 
ATOM     13  C   UNL     1       1.073   9.211  20.403  0.00  0.00    +0.000 A 
ATOM     14  C   UNL     1       0.134  10.191  20.728  0.00  0.00    +0.000 A 
ATOM     15  C   UNL     1      -0.564  10.852  19.717  0.00  0.00    +0.000 A 
ATOM     16  C   UNL     1      -0.339  10.518  18.382  0.00  0.00    +0.000 A 
ATOM     17  C   UNL     1       0.613   9.552  18.054  0.00  0.00    +0.000 A 
ENDBRANCH   4  12
BRANCH  10  18
ATOM     18  O   UNL     1       5.301   3.371  18.827  0.00  0.00    +0.000 OA
ATOM     19  H   UNL     1       5.508   2.438  18.661  0.00  0.00    +0.000 HD
ENDBRANCH  10  18
TORSDOF 2
ENDMDL
