MODEL 1
REMARK VINA RESULT:      -8.3      0.000      0.000
REMARK  Name = 
REMARK  4 active torsions:
REMARK  status: ('A' for Active; 'I' for Inactive)
REMARK    1  A    between atoms: N_1  and  C_2
REMARK    2  A    between atoms: C_5  and  N_6
REMARK    3  A    between atoms: N_13  and  C_14
REMARK    4  A    between atoms: N_22  and  C_23
REMARK                            x       y       z     vdW  Elec       q    Type
REMARK                         _______ _______ _______ _____ _____    ______ ____
ROOT
ATOM      1  N   UNL     1       2.631   5.308  19.140  0.00  0.00    +0.000 N 
ATOM      2  C   UNL     1       2.438   6.676  18.809  0.00  0.00    +0.000 A 
ATOM      3  N   UNL     1       3.118   7.241  17.756  0.00  0.00    +0.000 NA
ATOM      4  C   UNL     1       2.989   8.567  17.455  0.00  0.00    +0.000 A 
ATOM      5  C   UNL     1       2.182   9.334  18.278  0.00  0.00    +0.000 A 
ATOM      6  N   UNL     1       1.943  10.648  18.244  0.00  0.00    +0.000 NA
ATOM      7  C   UNL     1       1.116  10.851  19.308  0.00  0.00    +0.000 A 
ATOM      8  N   UNL     1       0.627  12.142  19.649  0.00  0.00    +0.000 N 
ATOM      9  N   UNL     1       0.833   9.703  19.987  0.00  0.00    +0.000 N 
ATOM     10  C   UNL     1       1.517   8.763  19.309  0.00  0.00    +0.000 A 
ATOM     11  N   UNL     1       1.615   7.440  19.582  0.00  0.00    +0.000 NA
ATOM     12  H   UNL     1       1.945   4.861  19.764  0.00  0.00    +0.000 HD
ATOM     13  H   UNL     1      -0.276  12.224  20.138  0.00  0.00    +0.000 HD
ENDROOT
BRANCH   8  14
ATOM     14  C   UNL     1       1.341  13.331  19.301  0.00  0.00    +0.000 A 
ATOM     15  C   UNL     1       2.741  13.399  19.476  0.00  0.00    +0.000 A 
ATOM     16  C   UNL     1       3.436  14.571  19.172  0.00  0.00    +0.000 A 
ATOM     17  C   UNL     1       2.751  15.684  18.683  0.00  0.00    +0.000 A 
ATOM     18  F   UNL     1       3.433  16.818  18.387  0.00  0.00    +0.000 F 
ATOM     19  C   UNL     1       1.366  15.629  18.507  0.00  0.00    +0.000 A 
ATOM     20  C   UNL     1       0.658  14.463  18.827  0.00  0.00    +0.000 A 
ATOM     21  F   UNL     1      -0.686  14.430  18.650  0.00  0.00    +0.000 F 
ENDBRANCH   8  14
BRANCH   1  25
ATOM     22  C   UNL     1       2.922   1.713  18.645  0.00  0.00    +0.000 C 
ATOM     23  C   UNL     1       3.165   2.476  19.968  0.00  0.00    +0.000 C 
ATOM     24  C   UNL     1       4.240   3.574  19.801  0.00  0.00    +0.000 C 
ATOM     25  C   UNL     1       3.819   4.587  18.706  0.00  0.00    +0.000 C 
ATOM     26  C   UNL     1       3.582   3.835  17.376  0.00  0.00    +0.000 C 
ATOM     27  C   UNL     1       2.545   2.702  17.524  0.00  0.00    +0.000 C 
BRANCH  22  28
ATOM     28  N   UNL     1       4.077   0.889  18.267  0.00  0.00    +0.000 NA
ATOM     29  H   UNL     1       4.184   0.108  18.954  0.00  0.00    +0.000 HD
ATOM     30  H   UNL     1       4.967   1.432  18.246  0.00  0.00    +0.000 HD
ENDBRANCH  22  28
ENDBRANCH   1  25
BRANCH   9  31
ATOM     31  C   UNL     1       0.055   9.517  21.227  0.00  0.00    +0.000 C 
ATOM     32  C   UNL     1       0.927   9.284  22.457  0.00  0.00    +0.000 C 
ATOM     33  C   UNL     1      -0.067   9.505  23.590  0.00  0.00    +0.000 C 
ATOM     34  C   UNL     1      -1.001  10.628  23.108  0.00  0.00    +0.000 C 
ATOM     35  C   UNL     1      -0.697  10.790  21.617  0.00  0.00    +0.000 C 
ENDBRANCH   9  31
TORSDOF 4
ENDMDL
MODEL 2
REMARK VINA RESULT:      -8.2      4.189      8.692
REMARK  Name = 
REMARK  4 active torsions:
REMARK  status: ('A' for Active; 'I' for Inactive)
REMARK    1  A    between atoms: N_1  and  C_2
REMARK    2  A    between atoms: C_5  and  N_6
REMARK    3  A    between atoms: N_13  and  C_14
REMARK    4  A    between atoms: N_22  and  C_23
REMARK                            x       y       z     vdW  Elec       q    Type
REMARK                         _______ _______ _______ _____ _____    ______ ____
ROOT
ATOM      1  N   UNL     1      -0.448  10.420  19.283  0.00  0.00    +0.000 N 
ATOM      2  C   UNL     1       0.741   9.752  18.884  0.00  0.00    +0.000 A 
ATOM      3  N   UNL     1       1.648  10.377  18.059  0.00  0.00    +0.000 NA
ATOM      4  C   UNL     1       2.770   9.734  17.620  0.00  0.00    +0.000 A 
ATOM      5  C   UNL     1       2.941   8.414  17.999  0.00  0.00    +0.000 A 
ATOM      6  N   UNL     1       3.902   7.551  17.656  0.00  0.00    +0.000 NA
ATOM      7  C   UNL     1       3.539   6.399  18.287  0.00  0.00    +0.000 A 
ATOM      8  N   UNL     1       4.298   5.202  18.170  0.00  0.00    +0.000 N 
ATOM      9  N   UNL     1       2.392   6.529  19.012  0.00  0.00    +0.000 N 
ATOM     10  C   UNL     1       2.042   7.814  18.813  0.00  0.00    +0.000 A 
ATOM     11  N   UNL     1       0.950   8.465  19.281  0.00  0.00    +0.000 NA
ATOM     12  H   UNL     1      -0.977  10.030  20.075  0.00  0.00    +0.000 HD
ATOM     13  H   UNL     1       4.275   4.515  18.937  0.00  0.00    +0.000 HD
ENDROOT
BRANCH   8  14
ATOM     14  C   UNL     1       5.118   4.943  17.028  0.00  0.00    +0.000 A 
ATOM     15  C   UNL     1       4.554   4.397  15.853  0.00  0.00    +0.000 A 
ATOM     16  C   UNL     1       5.360   4.109  14.749  0.00  0.00    +0.000 A 
ATOM     17  C   UNL     1       6.730   4.368  14.796  0.00  0.00    +0.000 A 
ATOM     18  F   UNL     1       7.504   4.088  13.719  0.00  0.00    +0.000 F 
ATOM     19  C   UNL     1       7.299   4.906  15.952  0.00  0.00    +0.000 A 
ATOM     20  C   UNL     1       6.502   5.182  17.071  0.00  0.00    +0.000 A 
ATOM     21  F   UNL     1       7.074   5.704  18.184  0.00  0.00    +0.000 F 
ENDBRANCH   8  14
BRANCH   1  25
ATOM     22  C   UNL     1      -3.954  11.237  18.746  0.00  0.00    +0.000 C 
ATOM     23  C   UNL     1      -3.087  10.308  17.865  0.00  0.00    +0.000 C 
ATOM     24  C   UNL     1      -1.826  11.034  17.345  0.00  0.00    +0.000 C 
ATOM     25  C   UNL     1      -0.968  11.551  18.528  0.00  0.00    +0.000 C 
ATOM     26  C   UNL     1      -1.823  12.488  19.411  0.00  0.00    +0.000 C 
ATOM     27  C   UNL     1      -3.113  11.802  19.909  0.00  0.00    +0.000 C 
BRANCH  22  28
ATOM     28  N   UNL     1      -4.578  12.311  17.964  0.00  0.00    +0.000 NA
ATOM     29  H   UNL     1      -4.465  12.106  16.944  0.00  0.00    +0.000 HD
ATOM     30  H   UNL     1      -4.159  13.245  18.159  0.00  0.00    +0.000 HD
ENDBRANCH  22  28
ENDBRANCH   1  25
BRANCH   9  31
ATOM     31  C   UNL     1       1.636   5.506  19.759  0.00  0.00    +0.000 C 
ATOM     32  C   UNL     1       1.402   4.227  18.960  0.00  0.00    +0.000 C 
ATOM     33  C   UNL     1       0.967   3.255  20.049  0.00  0.00    +0.000 C 
ATOM     34  C   UNL     1       1.790   3.632  21.293  0.00  0.00    +0.000 C 
ATOM     35  C   UNL     1       2.428   4.982  20.957  0.00  0.00    +0.000 C 
ENDBRANCH   9  31
TORSDOF 4
ENDMDL
MODEL 3
REMARK VINA RESULT:      -8.2      4.325      8.615
REMARK  Name = 
REMARK  4 active torsions:
REMARK  status: ('A' for Active; 'I' for Inactive)
REMARK    1  A    between atoms: N_1  and  C_2
REMARK    2  A    between atoms: C_5  and  N_6
REMARK    3  A    between atoms: N_13  and  C_14
REMARK    4  A    between atoms: N_22  and  C_23
REMARK                            x       y       z     vdW  Elec       q    Type
REMARK                         _______ _______ _______ _____ _____    ______ ____
ROOT
ATOM      1  N   UNL     1      -0.631  10.413  19.172  0.00  0.00    +0.000 N 
ATOM      2  C   UNL     1       0.594   9.773  18.842  0.00  0.00    +0.000 A 
ATOM      3  N   UNL     1       1.515  10.403  18.039  0.00  0.00    +0.000 NA
ATOM      4  C   UNL     1       2.674   9.785  17.664  0.00  0.00    +0.000 A 
ATOM      5  C   UNL     1       2.868   8.481  18.087  0.00  0.00    +0.000 A 
ATOM      6  N   UNL     1       3.869   7.640  17.809  0.00  0.00    +0.000 NA
ATOM      7  C   UNL     1       3.515   6.495  18.456  0.00  0.00    +0.000 A 
ATOM      8  N   UNL     1       4.314   5.319  18.403  0.00  0.00    +0.000 N 
ATOM      9  N   UNL     1       2.334   6.608  19.128  0.00  0.00    +0.000 N 
ATOM     10  C   UNL     1       1.955   7.875  18.879  0.00  0.00    +0.000 A 
ATOM     11  N   UNL     1       0.824   8.504  19.283  0.00  0.00    +0.000 NA
ATOM     12  H   UNL     1      -1.181  10.028  19.952  0.00  0.00    +0.000 HD
ATOM     13  H   UNL     1       4.279   4.652  19.188  0.00  0.00    +0.000 HD
ENDROOT
BRANCH   8  14
ATOM     14  C   UNL     1       5.189   5.056  17.304  0.00  0.00    +0.000 A 
ATOM     15  C   UNL     1       6.454   5.681  17.234  0.00  0.00    +0.000 A 
ATOM     16  C   UNL     1       7.296   5.454  16.142  0.00  0.00    +0.000 A 
ATOM     17  C   UNL     1       6.895   4.598  15.116  0.00  0.00    +0.000 A 
ATOM     18  F   UNL     1       7.719   4.380  14.061  0.00  0.00    +0.000 F 
ATOM     19  C   UNL     1       5.646   3.975  15.174  0.00  0.00    +0.000 A 
ATOM     20  C   UNL     1       4.788   4.212  16.256  0.00  0.00    +0.000 A 
ATOM     21  F   UNL     1       3.579   3.598  16.294  0.00  0.00    +0.000 F 
ENDBRANCH   8  14
BRANCH   1  25
ATOM     22  C   UNL     1      -4.138  11.215  18.618  0.00  0.00    +0.000 C 
ATOM     23  C   UNL     1      -3.280  10.241  17.779  0.00  0.00    +0.000 C 
ATOM     24  C   UNL     1      -2.020  10.935  17.215  0.00  0.00    +0.000 C 
ATOM     25  C   UNL     1      -1.152  11.507  18.365  0.00  0.00    +0.000 C 
ATOM     26  C   UNL     1      -1.998  12.490  19.206  0.00  0.00    +0.000 C 
ATOM     27  C   UNL     1      -3.287  11.835  19.746  0.00  0.00    +0.000 C 
BRANCH  22  28
ATOM     28  N   UNL     1      -4.763  12.251  17.788  0.00  0.00    +0.000 NA
ATOM     29  H   UNL     1      -4.030  12.924  17.465  0.00  0.00    +0.000 HD
ATOM     30  H   UNL     1      -5.498  12.786  18.298  0.00  0.00    +0.000 HD
ENDBRANCH  22  28
ENDBRANCH   1  25
BRANCH   9  31
ATOM     31  C   UNL     1       1.578   5.582  19.871  0.00  0.00    +0.000 C 
ATOM     32  C   UNL     1       1.310   4.321  19.053  0.00  0.00    +0.000 C 
ATOM     33  C   UNL     1       0.883   3.335  20.133  0.00  0.00    +0.000 C 
ATOM     34  C   UNL     1       1.735   3.678  21.368  0.00  0.00    +0.000 C 
ATOM     35  C   UNL     1       2.386   5.024  21.044  0.00  0.00    +0.000 C 
ENDBRANCH   9  31
TORSDOF 4
ENDMDL
MODEL 4
REMARK VINA RESULT:      -8.1      3.946      8.862
REMARK  Name = 
REMARK  4 active torsions:
REMARK  status: ('A' for Active; 'I' for Inactive)
REMARK    1  A    between atoms: N_1  and  C_2
REMARK    2  A    between atoms: C_5  and  N_6
REMARK    3  A    between atoms: N_13  and  C_14
REMARK    4  A    between atoms: N_22  and  C_23
REMARK                            x       y       z     vdW  Elec       q    Type
REMARK                         _______ _______ _______ _____ _____    ______ ____
ROOT
ATOM      1  N   UNL     1      -0.452  10.323  19.544  0.00  0.00    +0.000 N 
ATOM      2  C   UNL     1       0.722   9.657  19.101  0.00  0.00    +0.000 A 
ATOM      3  N   UNL     1       1.563  10.256  18.193  0.00  0.00    +0.000 NA
ATOM      4  C   UNL     1       2.667   9.612  17.711  0.00  0.00    +0.000 A 
ATOM      5  C   UNL     1       2.885   8.313  18.138  0.00  0.00    +0.000 A 
ATOM      6  N   UNL     1       3.839   7.450  17.774  0.00  0.00    +0.000 NA
ATOM      7  C   UNL     1       3.538   6.323  18.477  0.00  0.00    +0.000 A 
ATOM      8  N   UNL     1       4.310   5.134  18.365  0.00  0.00    +0.000 N 
ATOM      9  N   UNL     1       2.436   6.469  19.268  0.00  0.00    +0.000 N 
ATOM     10  C   UNL     1       2.051   7.737  19.034  0.00  0.00    +0.000 A 
ATOM     11  N   UNL     1       0.979   8.392  19.541  0.00  0.00    +0.000 NA
ATOM     12  H   UNL     1      -0.922   9.962  20.386  0.00  0.00    +0.000 HD
ATOM     13  H   UNL     1       4.347   4.482  19.163  0.00  0.00    +0.000 HD
ENDROOT
BRANCH   8  14
ATOM     14  C   UNL     1       5.060   4.835  17.186  0.00  0.00    +0.000 A 
ATOM     15  C   UNL     1       4.414   4.322  16.039  0.00  0.00    +0.000 A 
ATOM     16  C   UNL     1       5.151   3.995  14.899  0.00  0.00    +0.000 A 
ATOM     17  C   UNL     1       6.533   4.183  14.881  0.00  0.00    +0.000 A 
ATOM     18  F   UNL     1       7.241   3.866  13.769  0.00  0.00    +0.000 F 
ATOM     19  C   UNL     1       7.184   4.688  16.009  0.00  0.00    +0.000 A 
ATOM     20  C   UNL     1       6.455   5.002  17.164  0.00  0.00    +0.000 A 
ATOM     21  F   UNL     1       7.105   5.492  18.249  0.00  0.00    +0.000 F 
ENDBRANCH   8  14
BRANCH   1  25
ATOM     22  C   UNL     1      -1.324  13.631  20.788  0.00  0.00    +0.000 C 
ATOM     23  C   UNL     1      -2.233  12.381  20.801  0.00  0.00    +0.000 C 
ATOM     24  C   UNL     1      -2.412  11.793  19.383  0.00  0.00    +0.000 C 
ATOM     25  C   UNL     1      -1.038  11.411  18.774  0.00  0.00    +0.000 C 
ATOM     26  C   UNL     1      -0.123  12.656  18.749  0.00  0.00    +0.000 C 
ATOM     27  C   UNL     1       0.037  13.290  20.146  0.00  0.00    +0.000 C 
BRANCH  22  28
ATOM     28  N   UNL     1      -1.964  14.768  20.115  0.00  0.00    +0.000 NA
ATOM     29  H   UNL     1      -1.441  15.644  20.346  0.00  0.00    +0.000 HD
ATOM     30  H   UNL     1      -2.959  14.895  20.400  0.00  0.00    +0.000 HD
ENDBRANCH  22  28
ENDBRANCH   1  25
BRANCH   9  31
ATOM     31  C   UNL     1       1.748   5.469  20.106  0.00  0.00    +0.000 C 
ATOM     32  C   UNL     1       1.329   4.220  19.335  0.00  0.00    +0.000 C 
ATOM     33  C   UNL     1       1.012   3.249  20.464  0.00  0.00    +0.000 C 
ATOM     34  C   UNL     1       2.031   3.558  21.575  0.00  0.00    +0.000 C 
ATOM     35  C   UNL     1       2.682   4.881  21.165  0.00  0.00    +0.000 C 
ENDBRANCH   9  31
TORSDOF 4
ENDMDL
MODEL 5
REMARK VINA RESULT:      -8.1      3.985      8.796
REMARK  Name = 
REMARK  4 active torsions:
REMARK  status: ('A' for Active; 'I' for Inactive)
REMARK    1  A    between atoms: N_1  and  C_2
REMARK    2  A    between atoms: C_5  and  N_6
REMARK    3  A    between atoms: N_13  and  C_14
REMARK    4  A    between atoms: N_22  and  C_23
REMARK                            x       y       z     vdW  Elec       q    Type
REMARK                         _______ _______ _______ _____ _____    ______ ____
ROOT
ATOM      1  N   UNL     1      -0.508  10.342  19.577  0.00  0.00    +0.000 N 
ATOM      2  C   UNL     1       0.671   9.681  19.138  0.00  0.00    +0.000 A 
ATOM      3  N   UNL     1       1.499  10.274  18.214  0.00  0.00    +0.000 NA
ATOM      4  C   UNL     1       2.608   9.634  17.738  0.00  0.00    +0.000 A 
ATOM      5  C   UNL     1       2.844   8.346  18.186  0.00  0.00    +0.000 A 
ATOM      6  N   UNL     1       3.806   7.488  17.832  0.00  0.00    +0.000 NA
ATOM      7  C   UNL     1       3.523   6.371  18.557  0.00  0.00    +0.000 A 
ATOM      8  N   UNL     1       4.308   5.189  18.462  0.00  0.00    +0.000 N 
ATOM      9  N   UNL     1       2.424   6.518  19.352  0.00  0.00    +0.000 N 
ATOM     10  C   UNL     1       2.023   7.777  19.098  0.00  0.00    +0.000 A 
ATOM     11  N   UNL     1       0.946   8.428  19.599  0.00  0.00    +0.000 NA
ATOM     12  H   UNL     1      -0.969   9.990  20.428  0.00  0.00    +0.000 HD
ATOM     13  H   UNL     1       4.359   4.552  19.271  0.00  0.00    +0.000 HD
ENDROOT
BRANCH   8  14
ATOM     14  C   UNL     1       5.055   4.878  17.284  0.00  0.00    +0.000 A 
ATOM     15  C   UNL     1       6.352   5.407  17.100  0.00  0.00    +0.000 A 
ATOM     16  C   UNL     1       7.069   5.135  15.933  0.00  0.00    +0.000 A 
ATOM     17  C   UNL     1       6.512   4.328  14.942  0.00  0.00    +0.000 A 
ATOM     18  F   UNL     1       7.215   4.065  13.813  0.00  0.00    +0.000 F 
ATOM     19  C   UNL     1       5.229   3.799  15.111  0.00  0.00    +0.000 A 
ATOM     20  C   UNL     1       4.495   4.082  16.270  0.00  0.00    +0.000 A 
ATOM     21  F   UNL     1       3.252   3.560  16.416  0.00  0.00    +0.000 F 
ENDBRANCH   8  14
BRANCH   1  25
ATOM     22  C   UNL     1      -1.383  13.672  20.758  0.00  0.00    +0.000 C 
ATOM     23  C   UNL     1      -2.284  12.417  20.812  0.00  0.00    +0.000 C 
ATOM     24  C   UNL     1      -2.479  11.796  19.410  0.00  0.00    +0.000 C 
ATOM     25  C   UNL     1      -1.112  11.408  18.791  0.00  0.00    +0.000 C 
ATOM     26  C   UNL     1      -0.206  12.658  18.724  0.00  0.00    +0.000 C 
ATOM     27  C   UNL     1      -0.029  13.325  20.105  0.00  0.00    +0.000 C 
BRANCH  22  28
ATOM     28  N   UNL     1      -2.040  14.789  20.069  0.00  0.00    +0.000 NA
ATOM     29  H   UNL     1      -1.958  15.652  20.655  0.00  0.00    +0.000 HD
ATOM     30  H   UNL     1      -3.051  14.611  19.887  0.00  0.00    +0.000 HD
ENDBRANCH  22  28
ENDBRANCH   1  25
BRANCH   9  31
ATOM     31  C   UNL     1       1.753   5.525  20.213  0.00  0.00    +0.000 C 
ATOM     32  C   UNL     1       1.241   4.309  19.445  0.00  0.00    +0.000 C 
ATOM     33  C   UNL     1       0.960   3.325  20.574  0.00  0.00    +0.000 C 
ATOM     34  C   UNL     1       2.056   3.574  21.623  0.00  0.00    +0.000 C 
ATOM     35  C   UNL     1       2.729   4.881  21.198  0.00  0.00    +0.000 C 
ENDBRANCH   9  31
TORSDOF 4
ENDMDL
MODEL 6
REMARK VINA RESULT:      -8.1      4.107      8.826
REMARK  Name = 
REMARK  4 active torsions:
REMARK  status: ('A' for Active; 'I' for Inactive)
REMARK    1  A    between atoms: N_1  and  C_2
REMARK    2  A    between atoms: C_5  and  N_6
REMARK    3  A    between atoms: N_13  and  C_14
REMARK    4  A    between atoms: N_22  and  C_23
REMARK                            x       y       z     vdW  Elec       q    Type
REMARK                         _______ _______ _______ _____ _____    ______ ____
ROOT
ATOM      1  N   UNL     1       0.448   9.316  19.872  0.00  0.00    +0.000 N 
ATOM      2  C   UNL     1       1.543   8.774  19.146  0.00  0.00    +0.000 A 
ATOM      3  N   UNL     1       2.209   9.538  18.216  0.00  0.00    +0.000 NA
ATOM      4  C   UNL     1       3.228   9.019  17.468  0.00  0.00    +0.000 A 
ATOM      5  C   UNL     1       3.537   7.682  17.649  0.00  0.00    +0.000 A 
ATOM      6  N   UNL     1       4.431   6.925  17.006  0.00  0.00    +0.000 NA
ATOM      7  C   UNL     1       4.272   5.694  17.568  0.00  0.00    +0.000 A 
ATOM      8  N   UNL     1       5.035   4.569  17.151  0.00  0.00    +0.000 N 
ATOM      9  N   UNL     1       3.316   5.673  18.540  0.00  0.00    +0.000 N 
ATOM     10  C   UNL     1       2.875   6.945  18.569  0.00  0.00    +0.000 A 
ATOM     11  N   UNL     1       1.891   7.471  19.339  0.00  0.00    +0.000 NA
ATOM     12  H   UNL     1       0.131   8.814  20.713  0.00  0.00    +0.000 HD
ATOM     13  H   UNL     1       5.218   3.808  17.821  0.00  0.00    +0.000 HD
ENDROOT
BRANCH   8  14
ATOM     14  C   UNL     1       5.583   4.481  15.833  0.00  0.00    +0.000 A 
ATOM     15  C   UNL     1       4.845   3.877  14.792  0.00  0.00    +0.000 A 
ATOM     16  C   UNL     1       5.393   3.757  13.512  0.00  0.00    +0.000 A 
ATOM     17  C   UNL     1       6.674   4.244  13.252  0.00  0.00    +0.000 A 
ATOM     18  F   UNL     1       7.197   4.126  12.007  0.00  0.00    +0.000 F 
ATOM     19  C   UNL     1       7.414   4.842  14.274  0.00  0.00    +0.000 A 
ATOM     20  C   UNL     1       6.880   4.950  15.564  0.00  0.00    +0.000 A 
ATOM     21  F   UNL     1       7.615   5.535  16.543  0.00  0.00    +0.000 F 
ENDBRANCH   8  14
BRANCH   1  25
ATOM     22  C   UNL     1       0.064  12.505  21.586  0.00  0.00    +0.000 C 
ATOM     23  C   UNL     1      -0.857  11.272  21.732  0.00  0.00    +0.000 C 
ATOM     24  C   UNL     1      -1.427  10.823  20.367  0.00  0.00    +0.000 C 
ATOM     25  C   UNL     1      -0.279  10.480  19.384  0.00  0.00    +0.000 C 
ATOM     26  C   UNL     1       0.645  11.709  19.223  0.00  0.00    +0.000 C 
ATOM     27  C   UNL     1       1.193  12.206  20.578  0.00  0.00    +0.000 C 
BRANCH  22  28
ATOM     28  N   UNL     1      -0.686  13.709  21.210  0.00  0.00    +0.000 NA
ATOM     29  H   UNL     1      -1.294  13.494  20.386  0.00  0.00    +0.000 HD
ATOM     30  H   UNL     1      -0.064  14.507  20.960  0.00  0.00    +0.000 HD
ENDBRANCH  22  28
ENDBRANCH   1  25
BRANCH   9  31
ATOM     31  C   UNL     1       2.796   4.532  19.316  0.00  0.00    +0.000 C 
ATOM     32  C   UNL     1       2.346   4.915  20.724  0.00  0.00    +0.000 C 
ATOM     33  C   UNL     1       1.536   3.692  21.135  0.00  0.00    +0.000 C 
ATOM     34  C   UNL     1       0.833   3.211  19.854  0.00  0.00    +0.000 C 
ATOM     35  C   UNL     1       1.500   3.984  18.715  0.00  0.00    +0.000 C 
ENDBRANCH   9  31
TORSDOF 4
ENDMDL
MODEL 7
REMARK VINA RESULT:      -8.0      3.071      4.670
REMARK  Name = 
REMARK  4 active torsions:
REMARK  status: ('A' for Active; 'I' for Inactive)
REMARK    1  A    between atoms: N_1  and  C_2
REMARK    2  A    between atoms: C_5  and  N_6
REMARK    3  A    between atoms: N_13  and  C_14
REMARK    4  A    between atoms: N_22  and  C_23
REMARK                            x       y       z     vdW  Elec       q    Type
REMARK                         _______ _______ _______ _____ _____    ______ ____
ROOT
ATOM      1  N   UNL     1       1.973   6.903  19.273  0.00  0.00    +0.000 N 
ATOM      2  C   UNL     1       1.615   8.074  19.995  0.00  0.00    +0.000 A 
ATOM      3  N   UNL     1       1.976   8.217  21.314  0.00  0.00    +0.000 NA
ATOM      4  C   UNL     1       1.595   9.308  22.041  0.00  0.00    +0.000 A 
ATOM      5  C   UNL     1       0.793  10.247  21.414  0.00  0.00    +0.000 A 
ATOM      6  N   UNL     1       0.236  11.354  21.913  0.00  0.00    +0.000 NA
ATOM      7  C   UNL     1      -0.472  11.858  20.863  0.00  0.00    +0.000 A 
ATOM      8  N   UNL     1      -1.244  13.047  20.974  0.00  0.00    +0.000 N 
ATOM      9  N   UNL     1      -0.360  11.100  19.735  0.00  0.00    +0.000 N 
ATOM     10  C   UNL     1       0.449  10.094  20.115  0.00  0.00    +0.000 A 
ATOM     11  N   UNL     1       0.860   9.030  19.383  0.00  0.00    +0.000 NA
ATOM     12  H   UNL     1       1.902   6.929  18.247  0.00  0.00    +0.000 HD
ATOM     13  H   UNL     1      -1.403  13.623  20.134  0.00  0.00    +0.000 HD
ENDROOT
BRANCH   8  14
ATOM     14  C   UNL     1      -1.777  13.481  22.227  0.00  0.00    +0.000 A 
ATOM     15  C   UNL     1      -1.026  14.335  23.065  0.00  0.00    +0.000 A 
ATOM     16  C   UNL     1      -1.529  14.731  24.306  0.00  0.00    +0.000 A 
ATOM     17  C   UNL     1      -2.785  14.292  24.724  0.00  0.00    +0.000 A 
ATOM     18  F   UNL     1      -3.268  14.683  25.929  0.00  0.00    +0.000 F 
ATOM     19  C   UNL     1      -3.537  13.446  23.905  0.00  0.00    +0.000 A 
ATOM     20  C   UNL     1      -3.032  13.029  22.666  0.00  0.00    +0.000 A 
ATOM     21  F   UNL     1      -3.778  12.208  21.885  0.00  0.00    +0.000 F 
ENDBRANCH   8  14
BRANCH   1  25
ATOM     22  C   UNL     1       3.034   3.784  17.725  0.00  0.00    +0.000 C 
ATOM     23  C   UNL     1       1.576   4.212  18.013  0.00  0.00    +0.000 C 
ATOM     24  C   UNL     1       1.364   4.536  19.509  0.00  0.00    +0.000 C 
ATOM     25  C   UNL     1       2.320   5.669  19.963  0.00  0.00    +0.000 C 
ATOM     26  C   UNL     1       3.781   5.248  19.688  0.00  0.00    +0.000 C 
ATOM     27  C   UNL     1       4.012   4.875  18.208  0.00  0.00    +0.000 C 
BRANCH  22  28
ATOM     28  N   UNL     1       3.350   2.480  18.320  0.00  0.00    +0.000 NA
ATOM     29  H   UNL     1       2.468   1.928  18.432  0.00  0.00    +0.000 HD
ATOM     30  H   UNL     1       3.806   2.564  19.253  0.00  0.00    +0.000 HD
ENDBRANCH  22  28
ENDBRANCH   1  25
BRANCH   9  31
ATOM     31  C   UNL     1      -1.031  11.260  18.431  0.00  0.00    +0.000 C 
ATOM     32  C   UNL     1      -1.198   9.945  17.674  0.00  0.00    +0.000 C 
ATOM     33  C   UNL     1      -2.212  10.328  16.604  0.00  0.00    +0.000 C 
ATOM     34  C   UNL     1      -3.165  11.332  17.278  0.00  0.00    +0.000 C 
ATOM     35  C   UNL     1      -2.483  11.709  18.595  0.00  0.00    +0.000 C 
ENDBRANCH   9  31
TORSDOF 4
ENDMDL
MODEL 8
REMARK VINA RESULT:      -8.0      2.950      4.703
REMARK  Name = 
REMARK  4 active torsions:
REMARK  status: ('A' for Active; 'I' for Inactive)
REMARK    1  A    between atoms: N_1  and  C_2
REMARK    2  A    between atoms: C_5  and  N_6
REMARK    3  A    between atoms: N_13  and  C_14
REMARK    4  A    between atoms: N_22  and  C_23
REMARK                            x       y       z     vdW  Elec       q    Type
REMARK                         _______ _______ _______ _____ _____    ______ ____
ROOT
ATOM      1  N   UNL     1       2.051   6.889  19.186  0.00  0.00    +0.000 N 
ATOM      2  C   UNL     1       1.672   8.037  19.932  0.00  0.00    +0.000 A 
ATOM      3  N   UNL     1       2.019   8.153  21.258  0.00  0.00    +0.000 NA
ATOM      4  C   UNL     1       1.616   9.221  22.008  0.00  0.00    +0.000 A 
ATOM      5  C   UNL     1       0.808  10.164  21.396  0.00  0.00    +0.000 A 
ATOM      6  N   UNL     1       0.232  11.252  21.916  0.00  0.00    +0.000 NA
ATOM      7  C   UNL     1      -0.473  11.771  20.872  0.00  0.00    +0.000 A 
ATOM      8  N   UNL     1      -1.262  12.947  21.004  0.00  0.00    +0.000 N 
ATOM      9  N   UNL     1      -0.341  11.043  19.727  0.00  0.00    +0.000 N 
ATOM     10  C   UNL     1       0.478  10.038  20.091  0.00  0.00    +0.000 A 
ATOM     11  N   UNL     1       0.910   8.998  19.337  0.00  0.00    +0.000 NA
ATOM     12  H   UNL     1       1.990   6.939  18.160  0.00  0.00    +0.000 HD
ATOM     13  H   UNL     1      -1.421  13.541  20.177  0.00  0.00    +0.000 HD
ENDROOT
BRANCH   8  14
ATOM     14  C   UNL     1      -1.812  13.344  22.262  0.00  0.00    +0.000 A 
ATOM     15  C   UNL     1      -3.064  12.843  22.684  0.00  0.00    +0.000 A 
ATOM     16  C   UNL     1      -3.620  13.258  23.896  0.00  0.00    +0.000 A 
ATOM     17  C   UNL     1      -2.937  14.165  24.706  0.00  0.00    +0.000 A 
ATOM     18  F   UNL     1      -3.483  14.560  25.882  0.00  0.00    +0.000 F 
ATOM     19  C   UNL     1      -1.699  14.669  24.299  0.00  0.00    +0.000 A 
ATOM     20  C   UNL     1      -1.142  14.272  23.076  0.00  0.00    +0.000 A 
ATOM     21  F   UNL     1       0.062  14.773  22.699  0.00  0.00    +0.000 F 
ENDBRANCH   8  14
BRANCH   1  25
ATOM     22  C   UNL     1       3.088   3.797  17.569  0.00  0.00    +0.000 C 
ATOM     23  C   UNL     1       1.636   4.220  17.885  0.00  0.00    +0.000 C 
ATOM     24  C   UNL     1       1.446   4.518  19.390  0.00  0.00    +0.000 C 
ATOM     25  C   UNL     1       2.408   5.643  19.849  0.00  0.00    +0.000 C 
ATOM     26  C   UNL     1       3.866   5.227  19.544  0.00  0.00    +0.000 C 
ATOM     27  C   UNL     1       4.074   4.880  18.055  0.00  0.00    +0.000 C 
BRANCH  22  28
ATOM     28  N   UNL     1       3.413   2.483  18.136  0.00  0.00    +0.000 NA
ATOM     29  H   UNL     1       3.785   2.608  19.105  0.00  0.00    +0.000 HD
ATOM     30  H   UNL     1       4.125   1.968  17.574  0.00  0.00    +0.000 HD
ENDBRANCH  22  28
ENDBRANCH   1  25
BRANCH   9  31
ATOM     31  C   UNL     1      -1.002  11.225  18.421  0.00  0.00    +0.000 C 
ATOM     32  C   UNL     1      -1.217   9.916  17.666  0.00  0.00    +0.000 C 
ATOM     33  C   UNL     1      -2.213  10.335  16.593  0.00  0.00    +0.000 C 
ATOM     34  C   UNL     1      -3.129  11.375  17.262  0.00  0.00    +0.000 C 
ATOM     35  C   UNL     1      -2.437  11.729  18.580  0.00  0.00    +0.000 C 
ENDBRANCH   9  31
TORSDOF 4
ENDMDL
MODEL 9
REMARK VINA RESULT:      -8.0      3.563      5.391
REMARK  Name = 
REMARK  4 active torsions:
REMARK  status: ('A' for Active; 'I' for Inactive)
REMARK    1  A    between atoms: N_1  and  C_2
REMARK    2  A    between atoms: C_5  and  N_6
REMARK    3  A    between atoms: N_13  and  C_14
REMARK    4  A    between atoms: N_22  and  C_23
REMARK                            x       y       z     vdW  Elec       q    Type
REMARK                         _______ _______ _______ _____ _____    ______ ____
ROOT
ATOM      1  N   UNL     1       2.094   7.680  18.693  0.00  0.00    +0.000 N 
ATOM      2  C   UNL     1       1.342   8.715  19.311  0.00  0.00    +0.000 A 
ATOM      3  N   UNL     1       1.471   8.962  20.657  0.00  0.00    +0.000 NA
ATOM      4  C   UNL     1       0.718   9.916  21.281  0.00  0.00    +0.000 A 
ATOM      5  C   UNL     1      -0.214  10.596  20.517  0.00  0.00    +0.000 A 
ATOM      6  N   UNL     1      -1.109  11.515  20.891  0.00  0.00    +0.000 NA
ATOM      7  C   UNL     1      -1.778  11.799  19.739  0.00  0.00    +0.000 A 
ATOM      8  N   UNL     1      -2.848  12.735  19.698  0.00  0.00    +0.000 N 
ATOM      9  N   UNL     1      -1.318  11.090  18.669  0.00  0.00    +0.000 N 
ATOM     10  C   UNL     1      -0.327  10.345  19.193  0.00  0.00    +0.000 A 
ATOM     11  N   UNL     1       0.448   9.426  18.566  0.00  0.00    +0.000 NA
ATOM     12  H   UNL     1       2.157   7.677  17.665  0.00  0.00    +0.000 HD
ATOM     13  H   UNL     1      -3.042  13.239  18.820  0.00  0.00    +0.000 HD
ENDROOT
BRANCH   8  14
ATOM     14  C   UNL     1      -3.641  13.019  20.853  0.00  0.00    +0.000 A 
ATOM     15  C   UNL     1      -3.101  13.766  21.923  0.00  0.00    +0.000 A 
ATOM     16  C   UNL     1      -3.861  14.013  23.069  0.00  0.00    +0.000 A 
ATOM     17  C   UNL     1      -5.167  13.530  23.159  0.00  0.00    +0.000 A 
ATOM     18  F   UNL     1      -5.900  13.777  24.273  0.00  0.00    +0.000 F 
ATOM     19  C   UNL     1      -5.712  12.789  22.107  0.00  0.00    +0.000 A 
ATOM     20  C   UNL     1      -4.950  12.521  20.962  0.00  0.00    +0.000 A 
ATOM     21  F   UNL     1      -5.497  11.800  19.952  0.00  0.00    +0.000 F 
ENDBRANCH   8  14
BRANCH   1  25
ATOM     22  C   UNL     1       3.164   4.437  17.432  0.00  0.00    +0.000 C 
ATOM     23  C   UNL     1       1.742   4.807  17.912  0.00  0.00    +0.000 C 
ATOM     24  C   UNL     1       1.753   5.342  19.362  0.00  0.00    +0.000 C 
ATOM     25  C   UNL     1       2.663   6.591  19.475  0.00  0.00    +0.000 C 
ATOM     26  C   UNL     1       4.090   6.231  19.005  0.00  0.00    +0.000 C 
ATOM     27  C   UNL     1       4.104   5.652  17.574  0.00  0.00    +0.000 C 
BRANCH  22  28
ATOM     28  N   UNL     1       3.694   3.264  18.136  0.00  0.00    +0.000 NA
ATOM     29  H   UNL     1       4.737   3.332  18.184  0.00  0.00    +0.000 HD
ATOM     30  H   UNL     1       3.444   2.367  17.667  0.00  0.00    +0.000 HD
ENDBRANCH  22  28
ENDBRANCH   1  25
BRANCH   9  31
ATOM     31  C   UNL     1      -1.826  11.051  17.284  0.00  0.00    +0.000 C 
ATOM     32  C   UNL     1      -1.931   9.636  16.720  0.00  0.00    +0.000 C 
ATOM     33  C   UNL     1      -2.803   9.855  15.491  0.00  0.00    +0.000 C 
ATOM     34  C   UNL     1      -3.806  10.954  15.885  0.00  0.00    +0.000 C 
ATOM     35  C   UNL     1      -3.277  11.526  17.202  0.00  0.00    +0.000 C 
ENDBRANCH   9  31
TORSDOF 4
ENDMDL
