MODEL 1
REMARK VINA RESULT:      -6.8      0.000      0.000
REMARK  Name = 
REMARK  3 active torsions:
REMARK  status: ('A' for Active; 'I' for Inactive)
REMARK    1  A    between atoms: C_2  and  C_12
REMARK    2  A    between atoms: N_3  and  C_4
REMARK    3  A    between atoms: C_4  and  N_6
REMARK                            x       y       z     vdW  Elec       q    Type
REMARK                         _______ _______ _______ _____ _____    ______ ____
ROOT
ATOM      1  O   UNL     1       3.489   6.163  17.461  0.00  0.00    +0.000 OA
ATOM      2  C   UNL     1       3.589   4.947  17.573  0.00  0.00    +0.000 C 
ATOM      3  N   UNL     1       4.678   4.177  17.176  0.00  0.00    +0.000 N 
ATOM      4  H   UNL     1       4.634   3.203  17.410  0.00  0.00    +0.000 HD
ENDROOT
BRANCH   2   5
ATOM      5  C   UNL     1       2.542   4.224  18.351  0.00  0.00    +0.000 A 
ATOM      6  C   UNL     1       1.995   2.999  17.945  0.00  0.00    +0.000 A 
ATOM      7  C   UNL     1       1.030   2.376  18.739  0.00  0.00    +0.000 A 
ATOM      8  C   UNL     1       0.605   2.969  19.931  0.00  0.00    +0.000 A 
ATOM      9  C   UNL     1       1.141   4.192  20.332  0.00  0.00    +0.000 A 
ATOM     10  C   UNL     1       2.104   4.817  19.544  0.00  0.00    +0.000 A 
ENDBRANCH   2   5
BRANCH   3  11
ATOM     11  C   UNL     1       5.790   4.536  16.410  0.00  0.00    +0.000 C 
ATOM     12  S   UNL     1       6.039   3.994  14.839  0.00  0.00    +0.000 S 
BRANCH  11  13
ATOM     13  N   UNL     1       6.689   5.372  17.109  0.00  0.00    +0.000 N 
ATOM     14  C   UNL     1       7.576   4.852  18.176  0.00  0.00    +0.000 C 
ATOM     15  C   UNL     1       7.865   5.926  19.231  0.00  0.00    +0.000 C 
ATOM     16  O   UNL     1       8.378   7.129  18.641  0.00  0.00    +0.000 OA
ATOM     17  C   UNL     1       7.455   7.652  17.679  0.00  0.00    +0.000 C 
ATOM     18  C   UNL     1       7.210   6.642  16.559  0.00  0.00    +0.000 C 
ENDBRANCH  11  13
ENDBRANCH   3  11
TORSDOF 3
ENDMDL
MODEL 2
REMARK VINA RESULT:      -6.7      0.243      1.194
REMARK  Name = 
REMARK  3 active torsions:
REMARK  status: ('A' for Active; 'I' for Inactive)
REMARK    1  A    between atoms: C_2  and  C_12
REMARK    2  A    between atoms: N_3  and  C_4
REMARK    3  A    between atoms: C_4  and  N_6
REMARK                            x       y       z     vdW  Elec       q    Type
REMARK                         _______ _______ _______ _____ _____    ______ ____
ROOT
ATOM      1  O   UNL     1       3.408   6.392  17.705  0.00  0.00    +0.000 OA
ATOM      2  C   UNL     1       3.490   5.171  17.747  0.00  0.00    +0.000 C 
ATOM      3  N   UNL     1       4.538   4.405  17.245  0.00  0.00    +0.000 N 
ATOM      4  H   UNL     1       4.488   3.420  17.430  0.00  0.00    +0.000 HD
ENDROOT
BRANCH   2   5
ATOM      5  C   UNL     1       2.478   4.424  18.549  0.00  0.00    +0.000 A 
ATOM      6  C   UNL     1       2.043   4.842  19.814  0.00  0.00    +0.000 A 
ATOM      7  C   UNL     1       1.078   4.096  20.494  0.00  0.00    +0.000 A 
ATOM      8  C   UNL     1       0.548   2.936  19.923  0.00  0.00    +0.000 A 
ATOM      9  C   UNL     1       0.986   2.514  18.668  0.00  0.00    +0.000 A 
ATOM     10  C   UNL     1       1.948   3.254  17.986  0.00  0.00    +0.000 A 
ENDBRANCH   2   5
BRANCH   3  11
ATOM     11  C   UNL     1       5.609   4.786  16.432  0.00  0.00    +0.000 C 
ATOM     12  S   UNL     1       5.732   4.358  14.812  0.00  0.00    +0.000 S 
BRANCH  11  13
ATOM     13  N   UNL     1       6.584   5.536  17.128  0.00  0.00    +0.000 N 
ATOM     14  C   UNL     1       7.470   4.920  18.144  0.00  0.00    +0.000 C 
ATOM     15  C   UNL     1       7.864   5.933  19.225  0.00  0.00    +0.000 C 
ATOM     16  O   UNL     1       8.434   7.122  18.659  0.00  0.00    +0.000 OA
ATOM     17  C   UNL     1       7.516   7.739  17.749  0.00  0.00    +0.000 C 
ATOM     18  C   UNL     1       7.168   6.788  16.604  0.00  0.00    +0.000 C 
ENDBRANCH  11  13
ENDBRANCH   3  11
TORSDOF 3
ENDMDL
MODEL 3
REMARK VINA RESULT:      -6.5      3.035      4.034
REMARK  Name = 
REMARK  3 active torsions:
REMARK  status: ('A' for Active; 'I' for Inactive)
REMARK    1  A    between atoms: C_2  and  C_12
REMARK    2  A    between atoms: N_3  and  C_4
REMARK    3  A    between atoms: C_4  and  N_6
REMARK                            x       y       z     vdW  Elec       q    Type
REMARK                         _______ _______ _______ _____ _____    ______ ____
ROOT
ATOM      1  O   UNL     1       3.349   5.706  20.108  0.00  0.00    +0.000 OA
ATOM      2  C   UNL     1       3.012   6.187  19.034  0.00  0.00    +0.000 C 
ATOM      3  N   UNL     1       3.107   5.564  17.794  0.00  0.00    +0.000 N 
ATOM      4  H   UNL     1       2.713   6.066  17.019  0.00  0.00    +0.000 HD
ENDROOT
BRANCH   2   5
ATOM      5  C   UNL     1       2.276   7.485  19.044  0.00  0.00    +0.000 A 
ATOM      6  C   UNL     1       2.123   8.287  17.906  0.00  0.00    +0.000 A 
ATOM      7  C   UNL     1       1.406   9.482  17.994  0.00  0.00    +0.000 A 
ATOM      8  C   UNL     1       0.844   9.882  19.210  0.00  0.00    +0.000 A 
ATOM      9  C   UNL     1       1.003   9.089  20.345  0.00  0.00    +0.000 A 
ATOM     10  C   UNL     1       1.718   7.897  20.263  0.00  0.00    +0.000 A 
ENDBRANCH   2   5
BRANCH   3  11
ATOM     11  C   UNL     1       3.756   4.377  17.441  0.00  0.00    +0.000 C 
ATOM     12  S   UNL     1       3.065   2.858  17.631  0.00  0.00    +0.000 S 
BRANCH  11  13
ATOM     13  N   UNL     1       5.060   4.596  16.940  0.00  0.00    +0.000 N 
ATOM     14  C   UNL     1       5.316   4.848  15.503  0.00  0.00    +0.000 C 
ATOM     15  C   UNL     1       6.697   4.330  15.085  0.00  0.00    +0.000 C 
ATOM     16  O   UNL     1       7.739   4.856  15.920  0.00  0.00    +0.000 OA
ATOM     17  C   UNL     1       7.505   4.517  17.292  0.00  0.00    +0.000 C 
ATOM     18  C   UNL     1       6.174   5.095  17.773  0.00  0.00    +0.000 C 
ENDBRANCH  11  13
ENDBRANCH   3  11
TORSDOF 3
ENDMDL
MODEL 4
REMARK VINA RESULT:      -6.5      3.064      4.172
REMARK  Name = 
REMARK  3 active torsions:
REMARK  status: ('A' for Active; 'I' for Inactive)
REMARK    1  A    between atoms: C_2  and  C_12
REMARK    2  A    between atoms: N_3  and  C_4
REMARK    3  A    between atoms: C_4  and  N_6
REMARK                            x       y       z     vdW  Elec       q    Type
REMARK                         _______ _______ _______ _____ _____    ______ ____
ROOT
ATOM      1  O   UNL     1       2.776   5.450  20.170  0.00  0.00    +0.000 OA
ATOM      2  C   UNL     1       2.757   6.108  19.138  0.00  0.00    +0.000 C 
ATOM      3  N   UNL     1       3.109   5.652  17.872  0.00  0.00    +0.000 N 
ATOM      4  H   UNL     1       2.963   6.296  17.117  0.00  0.00    +0.000 HD
ENDROOT
BRANCH   2   5
ATOM      5  C   UNL     1       2.147   7.468  19.182  0.00  0.00    +0.000 A 
ATOM      6  C   UNL     1       1.582   8.017  20.341  0.00  0.00    +0.000 A 
ATOM      7  C   UNL     1       1.045   9.306  20.305  0.00  0.00    +0.000 A 
ATOM      8  C   UNL     1       1.064  10.047  19.120  0.00  0.00    +0.000 A 
ATOM      9  C   UNL     1       1.618   9.499  17.964  0.00  0.00    +0.000 A 
ATOM     10  C   UNL     1       2.155   8.214  17.995  0.00  0.00    +0.000 A 
ENDBRANCH   2   5
BRANCH   3  11
ATOM     11  C   UNL     1       3.731   4.458  17.496  0.00  0.00    +0.000 C 
ATOM     12  S   UNL     1       2.999   2.953  17.643  0.00  0.00    +0.000 S 
BRANCH  11  13
ATOM     13  N   UNL     1       5.045   4.653  17.014  0.00  0.00    +0.000 N 
ATOM     14  C   UNL     1       5.325   4.901  15.580  0.00  0.00    +0.000 C 
ATOM     15  C   UNL     1       6.703   4.359  15.181  0.00  0.00    +0.000 C 
ATOM     16  O   UNL     1       7.742   4.867  16.031  0.00  0.00    +0.000 OA
ATOM     17  C   UNL     1       7.484   4.533  17.400  0.00  0.00    +0.000 C 
ATOM     18  C   UNL     1       6.156   5.134  17.862  0.00  0.00    +0.000 C 
ENDBRANCH  11  13
ENDBRANCH   3  11
TORSDOF 3
ENDMDL
MODEL 5
REMARK VINA RESULT:      -6.5      2.946      3.854
REMARK  Name = 
REMARK  3 active torsions:
REMARK  status: ('A' for Active; 'I' for Inactive)
REMARK    1  A    between atoms: C_2  and  C_12
REMARK    2  A    between atoms: N_3  and  C_4
REMARK    3  A    between atoms: C_4  and  N_6
REMARK                            x       y       z     vdW  Elec       q    Type
REMARK                         _______ _______ _______ _____ _____    ______ ____
ROOT
ATOM      1  O   UNL     1       3.290   5.429  20.160  0.00  0.00    +0.000 OA
ATOM      2  C   UNL     1       3.032   5.956  19.085  0.00  0.00    +0.000 C 
ATOM      3  N   UNL     1       3.167   5.364  17.833  0.00  0.00    +0.000 N 
ATOM      4  H   UNL     1       2.838   5.906  17.054  0.00  0.00    +0.000 HD
ENDROOT
BRANCH   2   5
ATOM      5  C   UNL     1       2.353   7.284  19.097  0.00  0.00    +0.000 A 
ATOM      6  C   UNL     1       2.266   8.109  17.968  0.00  0.00    +0.000 A 
ATOM      7  C   UNL     1       1.598   9.332  18.056  0.00  0.00    +0.000 A 
ATOM      8  C   UNL     1       1.021   9.738  19.263  0.00  0.00    +0.000 A 
ATOM      9  C   UNL     1       1.114   8.921  20.389  0.00  0.00    +0.000 A 
ATOM     10  C   UNL     1       1.779   7.701  20.306  0.00  0.00    +0.000 A 
ENDBRANCH   2   5
BRANCH   3  11
ATOM     11  C   UNL     1       3.785   4.161  17.477  0.00  0.00    +0.000 C 
ATOM     12  S   UNL     1       3.051   2.662  17.663  0.00  0.00    +0.000 S 
BRANCH  11  13
ATOM     13  N   UNL     1       5.094   4.345  16.979  0.00  0.00    +0.000 N 
ATOM     14  C   UNL     1       6.256   4.532  17.879  0.00  0.00    +0.000 C 
ATOM     15  C   UNL     1       7.332   5.405  17.223  0.00  0.00    +0.000 C 
ATOM     16  O   UNL     1       7.720   4.897  15.938  0.00  0.00    +0.000 OA
ATOM     17  C   UNL     1       6.587   4.813  15.066  0.00  0.00    +0.000 C 
ATOM     18  C   UNL     1       5.526   3.877  15.645  0.00  0.00    +0.000 C 
ENDBRANCH  11  13
ENDBRANCH   3  11
TORSDOF 3
ENDMDL
MODEL 6
REMARK VINA RESULT:      -6.5      2.961      6.166
REMARK  Name = 
REMARK  3 active torsions:
REMARK  status: ('A' for Active; 'I' for Inactive)
REMARK    1  A    between atoms: C_2  and  C_12
REMARK    2  A    between atoms: N_3  and  C_4
REMARK    3  A    between atoms: C_4  and  N_6
REMARK                            x       y       z     vdW  Elec       q    Type
REMARK                         _______ _______ _______ _____ _____    ______ ____
ROOT
ATOM      1  O   UNL     1       5.509   6.426  15.887  0.00  0.00    +0.000 OA
ATOM      2  C   UNL     1       5.893   5.267  15.788  0.00  0.00    +0.000 C 
ATOM      3  N   UNL     1       5.875   4.312  16.799  0.00  0.00    +0.000 N 
ATOM      4  H   UNL     1       6.153   3.386  16.532  0.00  0.00    +0.000 HD
ENDROOT
BRANCH   2   5
ATOM      5  C   UNL     1       6.258   4.760  14.434  0.00  0.00    +0.000 A 
ATOM      6  C   UNL     1       5.544   3.750  13.775  0.00  0.00    +0.000 A 
ATOM      7  C   UNL     1       5.940   3.342  12.500  0.00  0.00    +0.000 A 
ATOM      8  C   UNL     1       7.046   3.932  11.880  0.00  0.00    +0.000 A 
ATOM      9  C   UNL     1       7.763   4.931  12.537  0.00  0.00    +0.000 A 
ATOM     10  C   UNL     1       7.371   5.341  13.809  0.00  0.00    +0.000 A 
ENDBRANCH   2   5
BRANCH   3  11
ATOM     11  C   UNL     1       5.619   4.465  18.165  0.00  0.00    +0.000 C 
ATOM     12  S   UNL     1       6.612   5.347  19.193  0.00  0.00    +0.000 S 
BRANCH  11  13
ATOM     13  N   UNL     1       4.460   3.775  18.585  0.00  0.00    +0.000 N 
ATOM     14  C   UNL     1       3.549   4.327  19.615  0.00  0.00    +0.000 C 
ATOM     15  C   UNL     1       2.868   3.208  20.412  0.00  0.00    +0.000 C 
ATOM     16  O   UNL     1       2.206   2.268  19.553  0.00  0.00    +0.000 OA
ATOM     17  C   UNL     1       3.134   1.689  18.629  0.00  0.00    +0.000 C 
ATOM     18  C   UNL     1       3.769   2.768  17.752  0.00  0.00    +0.000 C 
ENDBRANCH  11  13
ENDBRANCH   3  11
TORSDOF 3
ENDMDL
MODEL 7
REMARK VINA RESULT:      -6.5      2.917      6.429
REMARK  Name = 
REMARK  3 active torsions:
REMARK  status: ('A' for Active; 'I' for Inactive)
REMARK    1  A    between atoms: C_2  and  C_12
REMARK    2  A    between atoms: N_3  and  C_4
REMARK    3  A    between atoms: C_4  and  N_6
REMARK                            x       y       z     vdW  Elec       q    Type
REMARK                         _______ _______ _______ _____ _____    ______ ____
ROOT
ATOM      1  O   UNL     1       5.612   6.381  15.823  0.00  0.00    +0.000 OA
ATOM      2  C   UNL     1       5.725   5.174  15.650  0.00  0.00    +0.000 C 
ATOM      3  N   UNL     1       5.329   4.181  16.541  0.00  0.00    +0.000 N 
ATOM      4  H   UNL     1       5.421   3.237  16.213  0.00  0.00    +0.000 HD
ENDROOT
BRANCH   2   5
ATOM      5  C   UNL     1       6.165   4.693  14.308  0.00  0.00    +0.000 A 
ATOM      6  C   UNL     1       5.467   3.724  13.575  0.00  0.00    +0.000 A 
ATOM      7  C   UNL     1       5.936   3.339  12.317  0.00  0.00    +0.000 A 
ATOM      8  C   UNL     1       7.096   3.912  11.789  0.00  0.00    +0.000 A 
ATOM      9  C   UNL     1       7.796   4.870  12.521  0.00  0.00    +0.000 A 
ATOM     10  C   UNL     1       7.333   5.257  13.776  0.00  0.00    +0.000 A 
ENDBRANCH   2   5
BRANCH   3  11
ATOM     11  C   UNL     1       4.910   4.292  17.869  0.00  0.00    +0.000 C 
ATOM     12  S   UNL     1       5.821   5.047  19.061  0.00  0.00    +0.000 S 
BRANCH  11  13
ATOM     13  N   UNL     1       3.660   3.675  18.102  0.00  0.00    +0.000 N 
ATOM     14  C   UNL     1       2.382   4.329  17.735  0.00  0.00    +0.000 C 
ATOM     15  C   UNL     1       1.250   3.904  18.678  0.00  0.00    +0.000 C 
ATOM     16  O   UNL     1       1.125   2.477  18.752  0.00  0.00    +0.000 OA
ATOM     17  C   UNL     1       2.352   1.885  19.195  0.00  0.00    +0.000 C 
ATOM     18  C   UNL     1       3.490   2.212  18.228  0.00  0.00    +0.000 C 
ENDBRANCH  11  13
ENDBRANCH   3  11
TORSDOF 3
ENDMDL
MODEL 8
REMARK VINA RESULT:      -6.4      2.864      6.259
REMARK  Name = 
REMARK  3 active torsions:
REMARK  status: ('A' for Active; 'I' for Inactive)
REMARK    1  A    between atoms: C_2  and  C_12
REMARK    2  A    between atoms: N_3  and  C_4
REMARK    3  A    between atoms: C_4  and  N_6
REMARK                            x       y       z     vdW  Elec       q    Type
REMARK                         _______ _______ _______ _____ _____    ______ ____
ROOT
ATOM      1  O   UNL     1       5.607   6.594  15.761  0.00  0.00    +0.000 OA
ATOM      2  C   UNL     1       5.837   5.395  15.660  0.00  0.00    +0.000 C 
ATOM      3  N   UNL     1       5.586   4.431  16.632  0.00  0.00    +0.000 N 
ATOM      4  H   UNL     1       5.760   3.481  16.361  0.00  0.00    +0.000 HD
ENDROOT
BRANCH   2   5
ATOM      5  C   UNL     1       6.264   4.870  14.331  0.00  0.00    +0.000 A 
ATOM      6  C   UNL     1       7.417   5.312  13.668  0.00  0.00    +0.000 A 
ATOM      7  C   UNL     1       7.759   4.758  12.433  0.00  0.00    +0.000 A 
ATOM      8  C   UNL     1       6.956   3.770  11.854  0.00  0.00    +0.000 A 
ATOM      9  C   UNL     1       5.804   3.336  12.508  0.00  0.00    +0.000 A 
ATOM     10  C   UNL     1       5.459   3.886  13.740  0.00  0.00    +0.000 A 
ENDBRANCH   2   5
BRANCH   3  11
ATOM     11  C   UNL     1       5.217   4.590  17.970  0.00  0.00    +0.000 C 
ATOM     12  S   UNL     1       6.228   5.265  19.129  0.00  0.00    +0.000 S 
BRANCH  11  13
ATOM     13  N   UNL     1       3.922   4.095  18.243  0.00  0.00    +0.000 N 
ATOM     14  C   UNL     1       3.703   2.884  19.068  0.00  0.00    +0.000 C 
ATOM     15  C   UNL     1       2.432   2.141  18.638  0.00  0.00    +0.000 C 
ATOM     16  O   UNL     1       1.286   3.005  18.632  0.00  0.00    +0.000 OA
ATOM     17  C   UNL     1       1.498   4.119  17.756  0.00  0.00    +0.000 C 
ATOM     18  C   UNL     1       2.708   4.938  18.206  0.00  0.00    +0.000 C 
ENDBRANCH  11  13
ENDBRANCH   3  11
TORSDOF 3
ENDMDL
MODEL 9
REMARK VINA RESULT:      -6.3      0.631      1.323
REMARK  Name = 
REMARK  3 active torsions:
REMARK  status: ('A' for Active; 'I' for Inactive)
REMARK    1  A    between atoms: C_2  and  C_12
REMARK    2  A    between atoms: N_3  and  C_4
REMARK    3  A    between atoms: C_4  and  N_6
REMARK                            x       y       z     vdW  Elec       q    Type
REMARK                         _______ _______ _______ _____ _____    ______ ____
ROOT
ATOM      1  O   UNL     1       3.071   6.450  17.860  0.00  0.00    +0.000 OA
ATOM      2  C   UNL     1       3.262   5.241  17.849  0.00  0.00    +0.000 C 
ATOM      3  N   UNL     1       4.391   4.597  17.353  0.00  0.00    +0.000 N 
ATOM      4  H   UNL     1       4.425   3.604  17.490  0.00  0.00    +0.000 HD
ENDROOT
BRANCH   2   5
ATOM      5  C   UNL     1       2.294   4.369  18.575  0.00  0.00    +0.000 A 
ATOM      6  C   UNL     1       1.708   3.232  18.003  0.00  0.00    +0.000 A 
ATOM      7  C   UNL     1       0.823   2.458  18.755  0.00  0.00    +0.000 A 
ATOM      8  C   UNL     1       0.516   2.812  20.072  0.00  0.00    +0.000 A 
ATOM      9  C   UNL     1       1.092   3.948  20.640  0.00  0.00    +0.000 A 
ATOM     10  C   UNL     1       1.975   4.723  19.894  0.00  0.00    +0.000 A 
ENDBRANCH   2   5
BRANCH   3  11
ATOM     11  C   UNL     1       5.451   5.111  16.601  0.00  0.00    +0.000 C 
ATOM     12  S   UNL     1       5.663   4.784  14.967  0.00  0.00    +0.000 S 
BRANCH  11  13
ATOM     13  N   UNL     1       6.334   5.902  17.369  0.00  0.00    +0.000 N 
ATOM     14  C   UNL     1       6.488   7.357  17.137  0.00  0.00    +0.000 C 
ATOM     15  C   UNL     1       7.902   7.831  17.491  0.00  0.00    +0.000 C 
ATOM     16  O   UNL     1       8.272   7.455  18.826  0.00  0.00    +0.000 OA
ATOM     17  C   UNL     1       8.197   6.034  18.989  0.00  0.00    +0.000 C 
ATOM     18  C   UNL     1       6.776   5.534  18.731  0.00  0.00    +0.000 C 
ENDBRANCH  11  13
ENDBRANCH   3  11
TORSDOF 3
ENDMDL
