MODEL 1
REMARK VINA RESULT:      -8.7      0.000      0.000
REMARK  Name = 
REMARK  9 active torsions:
REMARK  status: ('A' for Active; 'I' for Inactive)
REMARK    1  A    between atoms: C_1  and  C_2
REMARK    2  A    between atoms: C_4  and  C_5
REMARK    3  A    between atoms: C_5  and  N_6
REMARK    4  A    between atoms: C_5  and  C_23
REMARK    5  A    between atoms: C_7  and  C_9
REMARK    6  A    between atoms: C_9  and  C_10
REMARK    7  A    between atoms: C_10  and  N_11
REMARK    8  A    between atoms: C_14  and  C_15
REMARK    9  A    between atoms: C_31  and  C_32
REMARK                            x       y       z     vdW  Elec       q    Type
REMARK                         _______ _______ _______ _____ _____    ______ ____
ROOT
ATOM      1  N   UNL     1       1.098   9.523  19.422  0.00  0.00    +0.000 N 
ATOM      2  C   UNL     1       1.428   8.548  20.341  0.00  0.00    +0.000 C 
ATOM      3  O   UNL     1       1.279   8.676  21.548  0.00  0.00    +0.000 OA
ATOM      4  H   UNL     1       1.113   9.296  18.438  0.00  0.00    +0.000 HD
ENDROOT
BRANCH   1   5
ATOM      5  C   UNL     1       0.468  10.772  19.815  0.00  0.00    +0.000 C 
BRANCH   5   9
ATOM      6  C   UNL     1      -4.255  12.544  19.614  0.00  0.00    +0.000 C 
ATOM      7  C   UNL     1      -3.116  11.775  19.015  0.00  0.00    +0.000 A 
ATOM      8  C   UNL     1      -1.896  11.675  19.674  0.00  0.00    +0.000 A 
ATOM      9  C   UNL     1      -0.878  10.894  19.114  0.00  0.00    +0.000 A 
ATOM     10  C   UNL     1      -1.143  10.230  17.909  0.00  0.00    +0.000 A 
ATOM     11  C   UNL     1      -2.367  10.424  17.281  0.00  0.00    +0.000 A 
ATOM     12  C   UNL     1      -2.643   9.818  15.939  0.00  0.00    +0.000 C 
ATOM     13  N   UNL     1      -3.351  11.179  17.822  0.00  0.00    +0.000 NA
ENDBRANCH   5   9
BRANCH   5  14
ATOM     14  C   UNL     1       1.445  11.938  19.617  0.00  0.00    +0.000 A 
ATOM     15  C   UNL     1       2.086  12.220  18.398  0.00  0.00    +0.000 A 
ATOM     16  C   UNL     1       2.936  13.323  18.266  0.00  0.00    +0.000 A 
ATOM     17  C   UNL     1       3.141  14.175  19.346  0.00  0.00    +0.000 A 
ATOM     18 CL   UNL     1       4.155  15.553  19.169  0.00  0.00    +0.000 Cl
ATOM     19  C   UNL     1       2.515  13.926  20.564  0.00  0.00    +0.000 A 
ATOM     20  C   UNL     1       1.675  12.815  20.697  0.00  0.00    +0.000 A 
ENDBRANCH   5  14
ENDBRANCH   1   5
BRANCH   2  21
ATOM     21  C   UNL     1       2.045   7.333  19.681  0.00  0.00    +0.000 C 
BRANCH  21  22
ATOM     22  C   UNL     1       1.853   6.062  20.508  0.00  0.00    +0.000 C 
BRANCH  22  23
ATOM     23  N   UNL     1       2.042   4.817  19.720  0.00  0.00    +0.000 NA
ATOM     24  C   UNL     1       1.979   5.082  18.274  0.00  0.00    +0.000 C 
ATOM     25  C   UNL     1       2.296   3.849  17.426  0.00  0.00    +0.000 C 
ATOM     26  C   UNL     1       3.683   3.267  17.757  0.00  0.00    +0.000 C 
ATOM     27  C   UNL     1       3.649   2.953  19.266  0.00  0.00    +0.000 C 
ATOM     28  C   UNL     1       3.327   4.198  20.100  0.00  0.00    +0.000 C 
BRANCH  26  29
ATOM     29  C   UNL     1       4.873   4.114  17.287  0.00  0.00    +0.000 A 
ATOM     30  C   UNL     1       5.977   4.359  18.125  0.00  0.00    +0.000 A 
ATOM     31  C   UNL     1       7.067   5.119  17.695  0.00  0.00    +0.000 A 
ATOM     32  C   UNL     1       7.094   5.639  16.407  0.00  0.00    +0.000 A 
ATOM     33  C   UNL     1       6.038   5.379  15.544  0.00  0.00    +0.000 A 
ATOM     34  C   UNL     1       4.947   4.616  15.976  0.00  0.00    +0.000 A 
ENDBRANCH  26  29
ENDBRANCH  22  23
ENDBRANCH  21  22
ENDBRANCH   2  21
TORSDOF 7
ENDMDL
MODEL 2
REMARK VINA RESULT:      -8.7      0.985      1.022
REMARK  Name = 
REMARK  9 active torsions:
REMARK  status: ('A' for Active; 'I' for Inactive)
REMARK    1  A    between atoms: C_1  and  C_2
REMARK    2  A    between atoms: C_4  and  C_5
REMARK    3  A    between atoms: C_5  and  N_6
REMARK    4  A    between atoms: C_5  and  C_23
REMARK    5  A    between atoms: C_7  and  C_9
REMARK    6  A    between atoms: C_9  and  C_10
REMARK    7  A    between atoms: C_10  and  N_11
REMARK    8  A    between atoms: C_14  and  C_15
REMARK    9  A    between atoms: C_31  and  C_32
REMARK                            x       y       z     vdW  Elec       q    Type
REMARK                         _______ _______ _______ _____ _____    ______ ____
ROOT
ATOM      1  N   UNL     1       0.740   9.963  18.718  0.00  0.00    +0.000 N 
ATOM      2  C   UNL     1       1.192   9.049  19.647  0.00  0.00    +0.000 C 
ATOM      3  O   UNL     1       1.029   9.172  20.854  0.00  0.00    +0.000 OA
ATOM      4  H   UNL     1       0.783   9.728  17.737  0.00  0.00    +0.000 HD
ENDROOT
BRANCH   1   5
ATOM      5  C   UNL     1      -0.042  11.128  19.098  0.00  0.00    +0.000 C 
BRANCH   5   9
ATOM      6  C   UNL     1      -4.984  12.147  18.946  0.00  0.00    +0.000 C 
ATOM      7  C   UNL     1      -3.738  11.599  18.318  0.00  0.00    +0.000 A 
ATOM      8  C   UNL     1      -2.518  11.656  18.982  0.00  0.00    +0.000 A 
ATOM      9  C   UNL     1      -1.390  11.075  18.391  0.00  0.00    +0.000 A 
ATOM     10  C   UNL     1      -1.546  10.444  17.151  0.00  0.00    +0.000 A 
ATOM     11  C   UNL     1      -2.785  10.477  16.522  0.00  0.00    +0.000 A 
ATOM     12  C   UNL     1      -2.961   9.909  15.147  0.00  0.00    +0.000 C 
ATOM     13  N   UNL     1      -3.875  11.039  17.092  0.00  0.00    +0.000 NA
ENDBRANCH   5   9
BRANCH   5  14
ATOM     14  C   UNL     1       0.783  12.404  18.893  0.00  0.00    +0.000 A 
ATOM     15  C   UNL     1       2.098  12.411  18.396  0.00  0.00    +0.000 A 
ATOM     16  C   UNL     1       2.787  13.612  18.190  0.00  0.00    +0.000 A 
ATOM     17  C   UNL     1       2.164  14.825  18.459  0.00  0.00    +0.000 A 
ATOM     18 CL   UNL     1       2.999  16.299  18.166  0.00  0.00    +0.000 Cl
ATOM     19  C   UNL     1       0.860  14.851  18.945  0.00  0.00    +0.000 A 
ATOM     20  C   UNL     1       0.177  13.649  19.161  0.00  0.00    +0.000 A 
ENDBRANCH   5  14
ENDBRANCH   1   5
BRANCH   2  21
ATOM     21  C   UNL     1       1.957   7.914  19.001  0.00  0.00    +0.000 C 
BRANCH  21  22
ATOM     22  C   UNL     1       2.434   6.880  20.020  0.00  0.00    +0.000 C 
BRANCH  22  23
ATOM     23  N   UNL     1       2.423   5.491  19.493  0.00  0.00    +0.000 NA
ATOM     24  C   UNL     1       2.239   5.472  18.033  0.00  0.00    +0.000 C 
ATOM     25  C   UNL     1       2.350   4.068  17.436  0.00  0.00    +0.000 C 
ATOM     26  C   UNL     1       3.703   3.410  17.766  0.00  0.00    +0.000 C 
ATOM     27  C   UNL     1       3.792   3.405  19.306  0.00  0.00    +0.000 C 
ATOM     28  C   UNL     1       3.676   4.817  19.888  0.00  0.00    +0.000 C 
BRANCH  26  29
ATOM     29  C   UNL     1       4.912   4.007  17.038  0.00  0.00    +0.000 A 
ATOM     30  C   UNL     1       6.112   4.292  17.717  0.00  0.00    +0.000 A 
ATOM     31  C   UNL     1       7.220   4.824  17.053  0.00  0.00    +0.000 A 
ATOM     32  C   UNL     1       7.167   5.068  15.686  0.00  0.00    +0.000 A 
ATOM     33  C   UNL     1       6.011   4.758  14.982  0.00  0.00    +0.000 A 
ATOM     34  C   UNL     1       4.902   4.224  15.648  0.00  0.00    +0.000 A 
ENDBRANCH  26  29
ENDBRANCH  22  23
ENDBRANCH  21  22
ENDBRANCH   2  21
TORSDOF 7
ENDMDL
MODEL 3
REMARK VINA RESULT:      -8.6      0.171      1.683
REMARK  Name = 
REMARK  9 active torsions:
REMARK  status: ('A' for Active; 'I' for Inactive)
REMARK    1  A    between atoms: C_1  and  C_2
REMARK    2  A    between atoms: C_4  and  C_5
REMARK    3  A    between atoms: C_5  and  N_6
REMARK    4  A    between atoms: C_5  and  C_23
REMARK    5  A    between atoms: C_7  and  C_9
REMARK    6  A    between atoms: C_9  and  C_10
REMARK    7  A    between atoms: C_10  and  N_11
REMARK    8  A    between atoms: C_14  and  C_15
REMARK    9  A    between atoms: C_31  and  C_32
REMARK                            x       y       z     vdW  Elec       q    Type
REMARK                         _______ _______ _______ _____ _____    ______ ____
ROOT
ATOM      1  N   UNL     1       0.926   9.559  19.471  0.00  0.00    +0.000 N 
ATOM      2  C   UNL     1       1.412   8.662  20.400  0.00  0.00    +0.000 C 
ATOM      3  O   UNL     1       1.395   8.861  21.607  0.00  0.00    +0.000 OA
ATOM      4  H   UNL     1       0.841   9.269  18.507  0.00  0.00    +0.000 HD
ENDROOT
BRANCH   1   5
ATOM      5  C   UNL     1       0.275  10.799  19.861  0.00  0.00    +0.000 C 
BRANCH   5   9
ATOM      6  C   UNL     1      -2.652   9.773  15.879  0.00  0.00    +0.000 C 
ATOM      7  C   UNL     1      -2.440  10.399  17.224  0.00  0.00    +0.000 A 
ATOM      8  C   UNL     1      -1.226  10.272  17.889  0.00  0.00    +0.000 A 
ATOM      9  C   UNL     1      -1.044  10.926  19.113  0.00  0.00    +0.000 A 
ATOM     10  C   UNL     1      -2.101  11.699  19.611  0.00  0.00    +0.000 A 
ATOM     11  C   UNL     1      -3.305  11.732  18.918  0.00  0.00    +0.000 A 
ATOM     12  C   UNL     1      -4.490  12.458  19.476  0.00  0.00    +0.000 C 
ATOM     13  N   UNL     1      -3.481  11.099  17.735  0.00  0.00    +0.000 NA
ENDBRANCH   5   9
BRANCH   5  14
ATOM     14  C   UNL     1       1.253  11.971  19.719  0.00  0.00    +0.000 A 
ATOM     15  C   UNL     1       1.594  12.835  20.774  0.00  0.00    +0.000 A 
ATOM     16  C   UNL     1       2.526  13.863  20.596  0.00  0.00    +0.000 A 
ATOM     17  C   UNL     1       3.148  14.030  19.364  0.00  0.00    +0.000 A 
ATOM     18 CL   UNL     1       4.323  15.269  19.159  0.00  0.00    +0.000 Cl
ATOM     19  C   UNL     1       2.838  13.186  18.302  0.00  0.00    +0.000 A 
ATOM     20  C   UNL     1       1.897  12.166  18.479  0.00  0.00    +0.000 A 
ENDBRANCH   5  14
ENDBRANCH   1   5
BRANCH   2  21
ATOM     21  C   UNL     1       2.018   7.439  19.745  0.00  0.00    +0.000 C 
BRANCH  21  22
ATOM     22  C   UNL     1       1.777   6.166  20.556  0.00  0.00    +0.000 C 
BRANCH  22  23
ATOM     23  N   UNL     1       1.966   4.923  19.765  0.00  0.00    +0.000 NA
ATOM     24  C   UNL     1       1.937   5.198  18.319  0.00  0.00    +0.000 C 
ATOM     25  C   UNL     1       2.256   3.966  17.471  0.00  0.00    +0.000 C 
ATOM     26  C   UNL     1       3.628   3.363  17.827  0.00  0.00    +0.000 C 
ATOM     27  C   UNL     1       3.556   3.041  19.333  0.00  0.00    +0.000 C 
ATOM     28  C   UNL     1       3.234   4.285  20.168  0.00  0.00    +0.000 C 
BRANCH  26  29
ATOM     29  C   UNL     1       4.838   4.197  17.388  0.00  0.00    +0.000 A 
ATOM     30  C   UNL     1       5.913   4.446  18.260  0.00  0.00    +0.000 A 
ATOM     31  C   UNL     1       7.023   5.194  17.859  0.00  0.00    +0.000 A 
ATOM     32  C   UNL     1       7.098   5.696  16.565  0.00  0.00    +0.000 A 
ATOM     33  C   UNL     1       6.071   5.431  15.670  0.00  0.00    +0.000 A 
ATOM     34  C   UNL     1       4.961   4.681  16.073  0.00  0.00    +0.000 A 
ENDBRANCH  26  29
ENDBRANCH  22  23
ENDBRANCH  21  22
ENDBRANCH   2  21
TORSDOF 7
ENDMDL
MODEL 4
REMARK VINA RESULT:      -8.6      1.589      2.535
REMARK  Name = 
REMARK  9 active torsions:
REMARK  status: ('A' for Active; 'I' for Inactive)
REMARK    1  A    between atoms: C_1  and  C_2
REMARK    2  A    between atoms: C_4  and  C_5
REMARK    3  A    between atoms: C_5  and  N_6
REMARK    4  A    between atoms: C_5  and  C_23
REMARK    5  A    between atoms: C_7  and  C_9
REMARK    6  A    between atoms: C_9  and  C_10
REMARK    7  A    between atoms: C_10  and  N_11
REMARK    8  A    between atoms: C_14  and  C_15
REMARK    9  A    between atoms: C_31  and  C_32
REMARK                            x       y       z     vdW  Elec       q    Type
REMARK                         _______ _______ _______ _____ _____    ______ ____
ROOT
ATOM      1  N   UNL     1      -0.580  10.176  20.196  0.00  0.00    +0.000 N 
ATOM      2  C   UNL     1       0.072   9.904  21.381  0.00  0.00    +0.000 C 
ATOM      3  O   UNL     1       0.420  10.765  22.177  0.00  0.00    +0.000 OA
ATOM      4  H   UNL     1      -0.963   9.411  19.660  0.00  0.00    +0.000 HD
ENDROOT
BRANCH   1   5
ATOM      5  C   UNL     1      -0.979  11.524  19.827  0.00  0.00    +0.000 C 
BRANCH   5   9
ATOM      6  C   UNL     1      -2.906  10.368  15.307  0.00  0.00    +0.000 C 
ATOM      7  C   UNL     1      -3.066  10.860  16.713  0.00  0.00    +0.000 A 
ATOM      8  C   UNL     1      -1.979  10.922  17.577  0.00  0.00    +0.000 A 
ATOM      9  C   UNL     1      -2.154  11.449  18.862  0.00  0.00    +0.000 A 
ATOM     10  C   UNL     1      -3.430  11.907  19.218  0.00  0.00    +0.000 A 
ATOM     11  C   UNL     1      -4.480  11.759  18.321  0.00  0.00    +0.000 A 
ATOM     12  C   UNL     1      -5.877  12.137  18.709  0.00  0.00    +0.000 C 
ATOM     13  N   UNL     1      -4.310  11.250  17.079  0.00  0.00    +0.000 NA
ENDBRANCH   5   9
BRANCH   5  14
ATOM     14  C   UNL     1       0.241  12.321  19.351  0.00  0.00    +0.000 A 
ATOM     15  C   UNL     1       1.391  11.730  18.797  0.00  0.00    +0.000 A 
ATOM     16  C   UNL     1       2.458  12.512  18.341  0.00  0.00    +0.000 A 
ATOM     17  C   UNL     1       2.382  13.899  18.411  0.00  0.00    +0.000 A 
ATOM     18 CL   UNL     1       3.678  14.858  17.812  0.00  0.00    +0.000 Cl
ATOM     19  C   UNL     1       1.254  14.513  18.946  0.00  0.00    +0.000 A 
ATOM     20  C   UNL     1       0.194  13.729  19.413  0.00  0.00    +0.000 A 
ENDBRANCH   5  14
ENDBRANCH   1   5
BRANCH   2  21
ATOM     21  C   UNL     1       0.354   8.425  21.546  0.00  0.00    +0.000 C 
BRANCH  21  22
ATOM     22  C   UNL     1       1.759   8.045  21.080  0.00  0.00    +0.000 C 
BRANCH  22  23
ATOM     23  N   UNL     1       1.763   7.240  19.832  0.00  0.00    +0.000 NA
ATOM     24  C   UNL     1       2.443   7.951  18.736  0.00  0.00    +0.000 C 
ATOM     25  C   UNL     1       2.581   7.103  17.471  0.00  0.00    +0.000 C 
ATOM     26  C   UNL     1       3.335   5.787  17.741  0.00  0.00    +0.000 C 
ATOM     27  C   UNL     1       2.530   5.072  18.845  0.00  0.00    +0.000 C 
ATOM     28  C   UNL     1       2.398   5.935  20.104  0.00  0.00    +0.000 C 
BRANCH  26  29
ATOM     29  C   UNL     1       4.836   5.942  18.015  0.00  0.00    +0.000 A 
ATOM     30  C   UNL     1       5.640   6.797  17.238  0.00  0.00    +0.000 A 
ATOM     31  C   UNL     1       7.005   6.950  17.494  0.00  0.00    +0.000 A 
ATOM     32  C   UNL     1       7.601   6.267  18.548  0.00  0.00    +0.000 A 
ATOM     33  C   UNL     1       6.824   5.449  19.356  0.00  0.00    +0.000 A 
ATOM     34  C   UNL     1       5.456   5.298  19.100  0.00  0.00    +0.000 A 
ENDBRANCH  26  29
ENDBRANCH  22  23
ENDBRANCH  21  22
ENDBRANCH   2  21
TORSDOF 7
ENDMDL
MODEL 5
REMARK VINA RESULT:      -8.5      1.368      2.220
REMARK  Name = 
REMARK  9 active torsions:
REMARK  status: ('A' for Active; 'I' for Inactive)
REMARK    1  A    between atoms: C_1  and  C_2
REMARK    2  A    between atoms: C_4  and  C_5
REMARK    3  A    between atoms: C_5  and  N_6
REMARK    4  A    between atoms: C_5  and  C_23
REMARK    5  A    between atoms: C_7  and  C_9
REMARK    6  A    between atoms: C_9  and  C_10
REMARK    7  A    between atoms: C_10  and  N_11
REMARK    8  A    between atoms: C_14  and  C_15
REMARK    9  A    between atoms: C_31  and  C_32
REMARK                            x       y       z     vdW  Elec       q    Type
REMARK                         _______ _______ _______ _____ _____    ______ ____
ROOT
ATOM      1  N   UNL     1       0.400  10.305  18.448  0.00  0.00    +0.000 N 
ATOM      2  C   UNL     1       0.839   9.340  19.331  0.00  0.00    +0.000 C 
ATOM      3  O   UNL     1       0.573   9.343  20.525  0.00  0.00    +0.000 OA
ATOM      4  H   UNL     1       0.536  10.162  17.458  0.00  0.00    +0.000 HD
ENDROOT
BRANCH   1   5
ATOM      5  C   UNL     1      -0.488  11.380  18.858  0.00  0.00    +0.000 C 
BRANCH   5   9
ATOM      6  C   UNL     1      -3.038  10.122  14.686  0.00  0.00    +0.000 C 
ATOM      7  C   UNL     1      -2.997  10.638  16.093  0.00  0.00    +0.000 A 
ATOM      8  C   UNL     1      -1.797  10.727  16.788  0.00  0.00    +0.000 A 
ATOM      9  C   UNL     1      -1.790  11.275  18.076  0.00  0.00    +0.000 A 
ATOM     10  C   UNL     1      -3.006  11.727  18.606  0.00  0.00    +0.000 A 
ATOM     11  C   UNL     1      -4.174  11.552  17.874  0.00  0.00    +0.000 A 
ATOM     12  C   UNL     1      -5.504  11.923  18.456  0.00  0.00    +0.000 C 
ATOM     13  N   UNL     1      -4.180  11.022  16.630  0.00  0.00    +0.000 NA
ENDBRANCH   5   9
BRANCH   5  14
ATOM     14  C   UNL     1       0.245  12.724  18.781  0.00  0.00    +0.000 A 
ATOM     15  C   UNL     1       1.612  12.851  18.480  0.00  0.00    +0.000 A 
ATOM     16  C   UNL     1       2.218  14.109  18.382  0.00  0.00    +0.000 A 
ATOM     17  C   UNL     1       1.460  15.260  18.562  0.00  0.00    +0.000 A 
ATOM     18 CL   UNL     1       2.199  16.805  18.401  0.00  0.00    +0.000 Cl
ATOM     19  C   UNL     1       0.102  15.167  18.853  0.00  0.00    +0.000 A 
ATOM     20  C   UNL     1      -0.499  13.909  18.963  0.00  0.00    +0.000 A 
ENDBRANCH   5  14
ENDBRANCH   1   5
BRANCH   2  21
ATOM     21  C   UNL     1       1.729   8.317  18.658  0.00  0.00    +0.000 C 
BRANCH  21  22
ATOM     22  C   UNL     1       2.473   7.441  19.665  0.00  0.00    +0.000 C 
BRANCH  22  23
ATOM     23  N   UNL     1       2.395   5.991  19.349  0.00  0.00    +0.000 NA
ATOM     24  C   UNL     1       2.244   5.764  17.903  0.00  0.00    +0.000 C 
ATOM     25  C   UNL     1       2.288   4.283  17.524  0.00  0.00    +0.000 C 
ATOM     26  C   UNL     1       3.593   3.610  17.991  0.00  0.00    +0.000 C 
ATOM     27  C   UNL     1       3.645   3.831  19.516  0.00  0.00    +0.000 C 
ATOM     28  C   UNL     1       3.597   5.319  19.879  0.00  0.00    +0.000 C 
BRANCH  26  29
ATOM     29  C   UNL     1       4.852   4.027  17.221  0.00  0.00    +0.000 A 
ATOM     30  C   UNL     1       4.833   4.208  15.825  0.00  0.00    +0.000 A 
ATOM     31  C   UNL     1       5.975   4.601  15.123  0.00  0.00    +0.000 A 
ATOM     32  C   UNL     1       7.164   4.844  15.799  0.00  0.00    +0.000 A 
ATOM     33  C   UNL     1       7.202   4.714  17.181  0.00  0.00    +0.000 A 
ATOM     34  C   UNL     1       6.056   4.322  17.884  0.00  0.00    +0.000 A 
ENDBRANCH  26  29
ENDBRANCH  22  23
ENDBRANCH  21  22
ENDBRANCH   2  21
TORSDOF 7
ENDMDL
MODEL 6
REMARK VINA RESULT:      -8.5      1.472      3.054
REMARK  Name = 
REMARK  9 active torsions:
REMARK  status: ('A' for Active; 'I' for Inactive)
REMARK    1  A    between atoms: C_1  and  C_2
REMARK    2  A    between atoms: C_4  and  C_5
REMARK    3  A    between atoms: C_5  and  N_6
REMARK    4  A    between atoms: C_5  and  C_23
REMARK    5  A    between atoms: C_7  and  C_9
REMARK    6  A    between atoms: C_9  and  C_10
REMARK    7  A    between atoms: C_10  and  N_11
REMARK    8  A    between atoms: C_14  and  C_15
REMARK    9  A    between atoms: C_31  and  C_32
REMARK                            x       y       z     vdW  Elec       q    Type
REMARK                         _______ _______ _______ _____ _____    ______ ____
ROOT
ATOM      1  N   UNL     1       1.324   9.567  18.222  0.00  0.00    +0.000 N 
ATOM      2  C   UNL     1       1.897   8.406  18.697  0.00  0.00    +0.000 C 
ATOM      3  O   UNL     1       1.900   8.086  19.878  0.00  0.00    +0.000 OA
ATOM      4  H   UNL     1       1.232   9.697  17.225  0.00  0.00    +0.000 HD
ENDROOT
BRANCH   1   5
ATOM      5  C   UNL     1       0.602  10.484  19.089  0.00  0.00    +0.000 C 
BRANCH   5   9
ATOM      6  C   UNL     1      -4.053  12.391  19.500  0.00  0.00    +0.000 C 
ATOM      7  C   UNL     1      -3.018  11.608  18.750  0.00  0.00    +0.000 A 
ATOM      8  C   UNL     1      -1.732  11.456  19.255  0.00  0.00    +0.000 A 
ATOM      9  C   UNL     1      -0.813  10.663  18.558  0.00  0.00    +0.000 A 
ATOM     10  C   UNL     1      -1.240  10.041  17.377  0.00  0.00    +0.000 A 
ATOM     11  C   UNL     1      -2.523  10.287  16.905  0.00  0.00    +0.000 A 
ATOM     12  C   UNL     1      -2.976   9.728  15.591  0.00  0.00    +0.000 C 
ATOM     13  N   UNL     1      -3.412  11.054  17.578  0.00  0.00    +0.000 NA
ENDBRANCH   5   9
BRANCH   5  14
ATOM     14  C   UNL     1       1.419  11.765  19.294  0.00  0.00    +0.000 A 
ATOM     15  C   UNL     1       1.567  12.406  20.536  0.00  0.00    +0.000 A 
ATOM     16  C   UNL     1       2.360  13.551  20.670  0.00  0.00    +0.000 A 
ATOM     17  C   UNL     1       3.036  14.061  19.567  0.00  0.00    +0.000 A 
ATOM     18 CL   UNL     1       4.042  15.444  19.744  0.00  0.00    +0.000 Cl
ATOM     19  C   UNL     1       2.915  13.444  18.325  0.00  0.00    +0.000 A 
ATOM     20  C   UNL     1       2.111  12.307  18.191  0.00  0.00    +0.000 A 
ENDBRANCH   5  14
ENDBRANCH   1   5
BRANCH   2  21
ATOM     21  C   UNL     1       2.565   7.611  17.596  0.00  0.00    +0.000 C 
BRANCH  21  22
ATOM     22  C   UNL     1       4.090   7.677  17.674  0.00  0.00    +0.000 C 
BRANCH  22  23
ATOM     23  N   UNL     1       4.731   6.340  17.755  0.00  0.00    +0.000 NA
ATOM     24  C   UNL     1       4.823   5.873  19.148  0.00  0.00    +0.000 C 
ATOM     25  C   UNL     1       5.360   4.445  19.264  0.00  0.00    +0.000 C 
ATOM     26  C   UNL     1       4.504   3.443  18.467  0.00  0.00    +0.000 C 
ATOM     27  C   UNL     1       4.511   3.960  17.015  0.00  0.00    +0.000 C 
ATOM     28  C   UNL     1       3.973   5.392  16.916  0.00  0.00    +0.000 C 
BRANCH  26  29
ATOM     29  C   UNL     1       3.118   3.159  19.058  0.00  0.00    +0.000 A 
ATOM     30  C   UNL     1       2.827   3.420  20.410  0.00  0.00    +0.000 A 
ATOM     31  C   UNL     1       1.561   3.174  20.948  0.00  0.00    +0.000 A 
ATOM     32  C   UNL     1       0.543   2.678  20.143  0.00  0.00    +0.000 A 
ATOM     33  C   UNL     1       0.789   2.450  18.796  0.00  0.00    +0.000 A 
ATOM     34  C   UNL     1       2.057   2.698  18.258  0.00  0.00    +0.000 A 
ENDBRANCH  26  29
ENDBRANCH  22  23
ENDBRANCH  21  22
ENDBRANCH   2  21
TORSDOF 7
ENDMDL
MODEL 7
REMARK VINA RESULT:      -8.4      0.632      1.011
REMARK  Name = 
REMARK  9 active torsions:
REMARK  status: ('A' for Active; 'I' for Inactive)
REMARK    1  A    between atoms: C_1  and  C_2
REMARK    2  A    between atoms: C_4  and  C_5
REMARK    3  A    between atoms: C_5  and  N_6
REMARK    4  A    between atoms: C_5  and  C_23
REMARK    5  A    between atoms: C_7  and  C_9
REMARK    6  A    between atoms: C_9  and  C_10
REMARK    7  A    between atoms: C_10  and  N_11
REMARK    8  A    between atoms: C_14  and  C_15
REMARK    9  A    between atoms: C_31  and  C_32
REMARK                            x       y       z     vdW  Elec       q    Type
REMARK                         _______ _______ _______ _____ _____    ______ ____
ROOT
ATOM      1  N   UNL     1       1.156   9.807  19.661  0.00  0.00    +0.000 N 
ATOM      2  C   UNL     1       1.280   8.748  20.537  0.00  0.00    +0.000 C 
ATOM      3  O   UNL     1       0.908   8.785  21.702  0.00  0.00    +0.000 OA
ATOM      4  H   UNL     1       1.351   9.659  18.681  0.00  0.00    +0.000 HD
ENDROOT
BRANCH   1   5
ATOM      5  C   UNL     1       0.496  11.047  20.037  0.00  0.00    +0.000 C 
BRANCH   5   9
ATOM      6  C   UNL     1      -4.280  12.676  19.905  0.00  0.00    +0.000 C 
ATOM      7  C   UNL     1      -3.135  11.920  19.302  0.00  0.00    +0.000 A 
ATOM      8  C   UNL     1      -1.896  11.877  19.930  0.00  0.00    +0.000 A 
ATOM      9  C   UNL     1      -0.871  11.106  19.369  0.00  0.00    +0.000 A 
ATOM     10  C   UNL     1      -1.149  10.393  18.195  0.00  0.00    +0.000 A 
ATOM     11  C   UNL     1      -2.394  10.531  17.595  0.00  0.00    +0.000 A 
ATOM     12  C   UNL     1      -2.688   9.870  16.283  0.00  0.00    +0.000 C 
ATOM     13  N   UNL     1      -3.384  11.276  18.136  0.00  0.00    +0.000 NA
ENDBRANCH   5   9
BRANCH   5  14
ATOM     14  C   UNL     1       1.429  12.236  19.781  0.00  0.00    +0.000 A 
ATOM     15  C   UNL     1       2.117  12.443  18.573  0.00  0.00    +0.000 A 
ATOM     16  C   UNL     1       2.923  13.570  18.382  0.00  0.00    +0.000 A 
ATOM     17  C   UNL     1       3.037  14.521  19.390  0.00  0.00    +0.000 A 
ATOM     18 CL   UNL     1       3.996  15.926  19.138  0.00  0.00    +0.000 Cl
ATOM     19  C   UNL     1       2.362  14.348  20.595  0.00  0.00    +0.000 A 
ATOM     20  C   UNL     1       1.567  13.214  20.788  0.00  0.00    +0.000 A 
ENDBRANCH   5  14
ENDBRANCH   1   5
BRANCH   2  21
ATOM     21  C   UNL     1       1.979   7.565  19.901  0.00  0.00    +0.000 C 
BRANCH  21  22
ATOM     22  C   UNL     1       1.543   6.235  20.514  0.00  0.00    +0.000 C 
BRANCH  22  23
ATOM     23  N   UNL     1       1.986   5.055  19.727  0.00  0.00    +0.000 NA
ATOM     24  C   UNL     1       2.129   5.386  18.299  0.00  0.00    +0.000 C 
ATOM     25  C   UNL     1       2.706   4.233  17.476  0.00  0.00    +0.000 C 
ATOM     26  C   UNL     1       4.075   3.774  18.011  0.00  0.00    +0.000 C 
ATOM     27  C   UNL     1       3.830   3.383  19.482  0.00  0.00    +0.000 C 
ATOM     28  C   UNL     1       3.250   4.547  20.293  0.00  0.00    +0.000 C 
BRANCH  26  29
ATOM     29  C   UNL     1       5.229   4.755  17.773  0.00  0.00    +0.000 A 
ATOM     30  C   UNL     1       5.090   5.857  16.908  0.00  0.00    +0.000 A 
ATOM     31  C   UNL     1       6.135   6.760  16.700  0.00  0.00    +0.000 A 
ATOM     32  C   UNL     1       7.344   6.599  17.367  0.00  0.00    +0.000 A 
ATOM     33  C   UNL     1       7.495   5.545  18.258  0.00  0.00    +0.000 A 
ATOM     34  C   UNL     1       6.447   4.642  18.467  0.00  0.00    +0.000 A 
ENDBRANCH  26  29
ENDBRANCH  22  23
ENDBRANCH  21  22
ENDBRANCH   2  21
TORSDOF 7
ENDMDL
MODEL 8
REMARK VINA RESULT:      -8.4      1.354      2.242
REMARK  Name = 
REMARK  9 active torsions:
REMARK  status: ('A' for Active; 'I' for Inactive)
REMARK    1  A    between atoms: C_1  and  C_2
REMARK    2  A    between atoms: C_4  and  C_5
REMARK    3  A    between atoms: C_5  and  N_6
REMARK    4  A    between atoms: C_5  and  C_23
REMARK    5  A    between atoms: C_7  and  C_9
REMARK    6  A    between atoms: C_9  and  C_10
REMARK    7  A    between atoms: C_10  and  N_11
REMARK    8  A    between atoms: C_14  and  C_15
REMARK    9  A    between atoms: C_31  and  C_32
REMARK                            x       y       z     vdW  Elec       q    Type
REMARK                         _______ _______ _______ _____ _____    ______ ____
ROOT
ATOM      1  N   UNL     1       0.031  10.084  18.665  0.00  0.00    +0.000 N 
ATOM      2  C   UNL     1       0.723   9.272  19.540  0.00  0.00    +0.000 C 
ATOM      3  O   UNL     1       0.594   9.322  20.756  0.00  0.00    +0.000 OA
ATOM      4  H   UNL     1       0.079   9.892  17.674  0.00  0.00    +0.000 HD
ENDROOT
BRANCH   1   5
ATOM      5  C   UNL     1      -0.976  11.028  19.119  0.00  0.00    +0.000 C 
BRANCH   5   9
ATOM      6  C   UNL     1      -2.884   9.970  14.566  0.00  0.00    +0.000 C 
ATOM      7  C   UNL     1      -3.033  10.504  15.959  0.00  0.00    +0.000 A 
ATOM      8  C   UNL     1      -1.968  10.479  16.852  0.00  0.00    +0.000 A 
ATOM      9  C   UNL     1      -2.127  11.046  18.122  0.00  0.00    +0.000 A 
ATOM     10  C   UNL     1      -3.361  11.632  18.433  0.00  0.00    +0.000 A 
ATOM     11  C   UNL     1      -4.397  11.566  17.510  0.00  0.00    +0.000 A 
ATOM     12  C   UNL     1      -5.760  12.084  17.851  0.00  0.00    +0.000 C 
ATOM     13  N   UNL     1      -4.244  11.018  16.282  0.00  0.00    +0.000 NA
ENDBRANCH   5   9
BRANCH   5  14
ATOM     14  C   UNL     1      -0.325  12.381  19.430  0.00  0.00    +0.000 A 
ATOM     15  C   UNL     1      -0.554  13.104  20.614  0.00  0.00    +0.000 A 
ATOM     16  C   UNL     1       0.102  14.315  20.861  0.00  0.00    +0.000 A 
ATOM     17  C   UNL     1       1.015  14.811  19.938  0.00  0.00    +0.000 A 
ATOM     18 CL   UNL     1       1.849  16.279  20.264  0.00  0.00    +0.000 Cl
ATOM     19  C   UNL     1       1.268  14.115  18.760  0.00  0.00    +0.000 A 
ATOM     20  C   UNL     1       0.603  12.911  18.509  0.00  0.00    +0.000 A 
ENDBRANCH   5  14
ENDBRANCH   1   5
BRANCH   2  21
ATOM     21  C   UNL     1       1.694   8.360  18.821  0.00  0.00    +0.000 C 
BRANCH  21  22
ATOM     22  C   UNL     1       2.450   7.443  19.782  0.00  0.00    +0.000 C 
BRANCH  22  23
ATOM     23  N   UNL     1       2.366   6.008  19.410  0.00  0.00    +0.000 NA
ATOM     24  C   UNL     1       2.223   5.838  17.955  0.00  0.00    +0.000 C 
ATOM     25  C   UNL     1       2.261   4.372  17.519  0.00  0.00    +0.000 C 
ATOM     26  C   UNL     1       3.558   3.673  17.968  0.00  0.00    +0.000 C 
ATOM     27  C   UNL     1       3.602   3.834  19.501  0.00  0.00    +0.000 C 
ATOM     28  C   UNL     1       3.560   5.308  19.921  0.00  0.00    +0.000 C 
BRANCH  26  29
ATOM     29  C   UNL     1       4.825   4.112  17.223  0.00  0.00    +0.000 A 
ATOM     30  C   UNL     1       6.040   4.321  17.901  0.00  0.00    +0.000 A 
ATOM     31  C   UNL     1       7.199   4.708  17.223  0.00  0.00    +0.000 A 
ATOM     32  C   UNL     1       7.180   4.876  15.843  0.00  0.00    +0.000 A 
ATOM     33  C   UNL     1       6.005   4.636  15.143  0.00  0.00    +0.000 A 
ATOM     34  C   UNL     1       4.846   4.248  15.824  0.00  0.00    +0.000 A 
ENDBRANCH  26  29
ENDBRANCH  22  23
ENDBRANCH  21  22
ENDBRANCH   2  21
TORSDOF 7
ENDMDL
MODEL 9
REMARK VINA RESULT:      -8.4      1.473      2.967
REMARK  Name = 
REMARK  9 active torsions:
REMARK  status: ('A' for Active; 'I' for Inactive)
REMARK    1  A    between atoms: C_1  and  C_2
REMARK    2  A    between atoms: C_4  and  C_5
REMARK    3  A    between atoms: C_5  and  N_6
REMARK    4  A    between atoms: C_5  and  C_23
REMARK    5  A    between atoms: C_7  and  C_9
REMARK    6  A    between atoms: C_9  and  C_10
REMARK    7  A    between atoms: C_10  and  N_11
REMARK    8  A    between atoms: C_14  and  C_15
REMARK    9  A    between atoms: C_31  and  C_32
REMARK                            x       y       z     vdW  Elec       q    Type
REMARK                         _______ _______ _______ _____ _____    ______ ____
ROOT
ATOM      1  N   UNL     1       1.539   9.795  18.448  0.00  0.00    +0.000 N 
ATOM      2  C   UNL     1       1.889   8.529  18.867  0.00  0.00    +0.000 C 
ATOM      3  O   UNL     1       1.747   8.132  20.016  0.00  0.00    +0.000 OA
ATOM      4  H   UNL     1       1.550  10.006  17.460  0.00  0.00    +0.000 HD
ENDROOT
BRANCH   1   5
ATOM      5  C   UNL     1       0.895  10.752  19.332  0.00  0.00    +0.000 C 
BRANCH   5   9
ATOM      6  C   UNL     1      -3.711  12.679  20.072  0.00  0.00    +0.000 C 
ATOM      7  C   UNL     1      -2.747  11.856  19.273  0.00  0.00    +0.000 A 
ATOM      8  C   UNL     1      -1.419  11.732  19.662  0.00  0.00    +0.000 A 
ATOM      9  C   UNL     1      -0.565  10.901  18.927  0.00  0.00    +0.000 A 
ATOM     10  C   UNL     1      -1.098  10.214  17.829  0.00  0.00    +0.000 A 
ATOM     11  C   UNL     1      -2.421  10.433  17.467  0.00  0.00    +0.000 A 
ATOM     12  C   UNL     1      -2.992   9.800  16.235  0.00  0.00    +0.000 C 
ATOM     13  N   UNL     1      -3.246  11.236  18.177  0.00  0.00    +0.000 NA
ENDBRANCH   5   9
BRANCH   5  14
ATOM     14  C   UNL     1       1.718  12.044  19.396  0.00  0.00    +0.000 A 
ATOM     15  C   UNL     1       2.304  12.652  18.272  0.00  0.00    +0.000 A 
ATOM     16  C   UNL     1       3.009  13.855  18.386  0.00  0.00    +0.000 A 
ATOM     17  C   UNL     1       3.121  14.481  19.623  0.00  0.00    +0.000 A 
ATOM     18 CL   UNL     1       3.954  15.980  19.752  0.00  0.00    +0.000 Cl
ATOM     19  C   UNL     1       2.546  13.907  20.752  0.00  0.00    +0.000 A 
ATOM     20  C   UNL     1       1.851  12.698  20.639  0.00  0.00    +0.000 A 
ENDBRANCH   5  14
ENDBRANCH   1   5
BRANCH   2  21
ATOM     21  C   UNL     1       2.519   7.716  17.756  0.00  0.00    +0.000 C 
BRANCH  21  22
ATOM     22  C   UNL     1       4.035   7.600  17.906  0.00  0.00    +0.000 C 
BRANCH  22  23
ATOM     23  N   UNL     1       4.536   6.213  17.736  0.00  0.00    +0.000 NA
ATOM     24  C   UNL     1       5.052   5.669  19.004  0.00  0.00    +0.000 C 
ATOM     25  C   UNL     1       5.459   4.198  18.900  0.00  0.00    +0.000 C 
ATOM     26  C   UNL     1       4.292   3.312  18.426  0.00  0.00    +0.000 C 
ATOM     27  C   UNL     1       3.854   3.900  17.070  0.00  0.00    +0.000 C 
ATOM     28  C   UNL     1       3.452   5.374  17.190  0.00  0.00    +0.000 C 
BRANCH  26  29
ATOM     29  C   UNL     1       3.169   3.112  19.451  0.00  0.00    +0.000 A 
ATOM     30  C   UNL     1       3.445   2.725  20.776  0.00  0.00    +0.000 A 
ATOM     31  C   UNL     1       2.425   2.555  21.716  0.00  0.00    +0.000 A 
ATOM     32  C   UNL     1       1.101   2.788  21.363  0.00  0.00    +0.000 A 
ATOM     33  C   UNL     1       0.803   3.211  20.074  0.00  0.00    +0.000 A 
ATOM     34  C   UNL     1       1.826   3.382  19.134  0.00  0.00    +0.000 A 
ENDBRANCH  26  29
ENDBRANCH  22  23
ENDBRANCH  21  22
ENDBRANCH   2  21
TORSDOF 7
ENDMDL
