MODEL 1
REMARK VINA RESULT:      -6.1      0.000      0.000
REMARK  Name = 
REMARK  4 active torsions:
REMARK  status: ('A' for Active; 'I' for Inactive)
REMARK    1  A    between atoms: C_1  and  S_2
REMARK    2  A    between atoms: S_2  and  C_5
REMARK    3  A    between atoms: C_8  and  C_9
REMARK    4  A    between atoms: C_15  and  C_16
REMARK                            x       y       z     vdW  Elec       q    Type
REMARK                         _______ _______ _______ _____ _____    ______ ____
ROOT
ATOM      1  C   UNL     1       8.843  15.238  19.068  0.00  0.00    +0.000 A 
ATOM      2  C   UNL     1       9.415  16.485  18.863  0.00  0.00    +0.000 A 
ATOM      3 BR   UNL     1       8.727  18.167  19.379  0.00  0.00    +0.000 Br
ATOM      4  S   UNL     1      10.913  16.433  18.082  0.00  0.00    +0.000 S 
ATOM      5  C   UNL     1      10.883  14.739  18.013  0.00  0.00    +0.000 A 
ATOM      6 BR   UNL     1      12.299  13.874  17.111  0.00  0.00    +0.000 Br
ATOM      7  C   UNL     1       9.770  14.171  18.622  0.00  0.00    +0.000 A 
ENDROOT
BRANCH   7   8
ATOM      8  C   UNL     1       9.571  12.707  18.734  0.00  0.00    +0.000 A 
ATOM      9  C   UNL     1       9.982  11.989  19.874  0.00  0.00    +0.000 A 
ATOM     10  C   UNL     1       9.771  10.610  19.979  0.00  0.00    +0.000 A 
ATOM     11  C   UNL     1       9.074   9.948  18.980  0.00  0.00    +0.000 A 
ATOM     12  F   UNL     1       8.826   8.638  19.101  0.00  0.00    +0.000 F 
ATOM     13  C   UNL     1       8.621  10.633  17.863  0.00  0.00    +0.000 A 
ATOM     14  C   UNL     1       8.903  11.997  17.724  0.00  0.00    +0.000 A 
ENDBRANCH   7   8
BRANCH   1  18
ATOM     15  C   UNL     1       4.983  14.763  20.889  0.00  0.00    +0.000 A 
ATOM     16  C   UNL     1       5.074  15.067  19.533  0.00  0.00    +0.000 A 
ATOM     17  C   UNL     1       6.334  15.178  18.933  0.00  0.00    +0.000 A 
ATOM     18  C   UNL     1       7.517  15.077  19.699  0.00  0.00    +0.000 A 
ATOM     19  C   UNL     1       7.397  14.788  21.062  0.00  0.00    +0.000 A 
ATOM     20  C   UNL     1       6.139  14.607  21.656  0.00  0.00    +0.000 A 
BRANCH  15  22
ATOM     21  C   UNL     1       2.502  16.047  20.986  0.00  0.00    +0.000 C 
ATOM     22  S   UNL     1       3.388  14.670  21.663  0.00  0.00    +0.000 S 
ATOM     23  O   UNL     1       3.588  14.913  23.079  0.00  0.00    +0.000 OA
ATOM     24  O   UNL     1       2.742  13.450  21.207  0.00  0.00    +0.000 OA
ENDBRANCH  15  22
ENDBRANCH   1  18
TORSDOF 3
ENDMDL
MODEL 2
REMARK VINA RESULT:      -6.1      0.896      1.646
REMARK  Name = 
REMARK  4 active torsions:
REMARK  status: ('A' for Active; 'I' for Inactive)
REMARK    1  A    between atoms: C_1  and  S_2
REMARK    2  A    between atoms: S_2  and  C_5
REMARK    3  A    between atoms: C_8  and  C_9
REMARK    4  A    between atoms: C_15  and  C_16
REMARK                            x       y       z     vdW  Elec       q    Type
REMARK                         _______ _______ _______ _____ _____    ______ ____
ROOT
ATOM      1  C   UNL     1       8.846  15.188  18.442  0.00  0.00    +0.000 A 
ATOM      2  C   UNL     1       9.491  16.379  18.143  0.00  0.00    +0.000 A 
ATOM      3 BR   UNL     1       8.861  18.136  18.436  0.00  0.00    +0.000 Br
ATOM      4  S   UNL     1      11.026  16.177  17.463  0.00  0.00    +0.000 S 
ATOM      5  C   UNL     1      10.913  14.488  17.570  0.00  0.00    +0.000 A 
ATOM      6 BR   UNL     1      12.332  13.469  16.852  0.00  0.00    +0.000 Br
ATOM      7  C   UNL     1       9.741  14.039  18.167  0.00  0.00    +0.000 A 
ENDROOT
BRANCH   7   8
ATOM      8  C   UNL     1       9.463  12.606  18.420  0.00  0.00    +0.000 A 
ATOM      9  C   UNL     1       8.634  11.851  17.566  0.00  0.00    +0.000 A 
ATOM     10  C   UNL     1       8.395  10.493  17.803  0.00  0.00    +0.000 A 
ATOM     11  C   UNL     1       9.044   9.857  18.849  0.00  0.00    +0.000 A 
ATOM     12  F   UNL     1       8.855   8.546  19.048  0.00  0.00    +0.000 F 
ATOM     13  C   UNL     1       9.895  10.563  19.685  0.00  0.00    +0.000 A 
ATOM     14  C   UNL     1      10.073  11.938  19.494  0.00  0.00    +0.000 A 
ENDBRANCH   7   8
BRANCH   1  18
ATOM     15  C   UNL     1       4.881  15.100  20.088  0.00  0.00    +0.000 A 
ATOM     16  C   UNL     1       5.978  15.221  20.936  0.00  0.00    +0.000 A 
ATOM     17  C   UNL     1       7.267  15.293  20.393  0.00  0.00    +0.000 A 
ATOM     18  C   UNL     1       7.480  15.154  19.005  0.00  0.00    +0.000 A 
ATOM     19  C   UNL     1       6.362  15.015  18.176  0.00  0.00    +0.000 A 
ATOM     20  C   UNL     1       5.064  15.011  18.706  0.00  0.00    +0.000 A 
BRANCH  15  22
ATOM     21  C   UNL     1       2.229  14.568  19.380  0.00  0.00    +0.000 C 
ATOM     22  S   UNL     1       3.250  14.958  20.775  0.00  0.00    +0.000 S 
ATOM     23  O   UNL     1       2.875  16.273  21.257  0.00  0.00    +0.000 OA
ATOM     24  O   UNL     1       3.243  13.813  21.672  0.00  0.00    +0.000 OA
ENDBRANCH  15  22
ENDBRANCH   1  18
TORSDOF 3
ENDMDL
MODEL 3
REMARK VINA RESULT:      -6.1      2.339      2.851
REMARK  Name = 
REMARK  4 active torsions:
REMARK  status: ('A' for Active; 'I' for Inactive)
REMARK    1  A    between atoms: C_1  and  S_2
REMARK    2  A    between atoms: S_2  and  C_5
REMARK    3  A    between atoms: C_8  and  C_9
REMARK    4  A    between atoms: C_15  and  C_16
REMARK                            x       y       z     vdW  Elec       q    Type
REMARK                         _______ _______ _______ _____ _____    ______ ____
ROOT
ATOM      1  C   UNL     1      10.180  14.386  20.606  0.00  0.00    +0.000 A 
ATOM      2  C   UNL     1      11.086  15.428  20.739  0.00  0.00    +0.000 A 
ATOM      3 BR   UNL     1      11.208  16.676  22.152  0.00  0.00    +0.000 Br
ATOM      4  S   UNL     1      12.206  15.530  19.476  0.00  0.00    +0.000 S 
ATOM      5  C   UNL     1      11.553  14.165  18.711  0.00  0.00    +0.000 A 
ATOM      6 BR   UNL     1      12.276  13.669  17.038  0.00  0.00    +0.000 Br
ATOM      7  C   UNL     1      10.512  13.569  19.414  0.00  0.00    +0.000 A 
ENDROOT
BRANCH   7   8
ATOM      8  C   UNL     1       9.839  12.330  18.962  0.00  0.00    +0.000 A 
ATOM      9  C   UNL     1      10.061  11.092  19.599  0.00  0.00    +0.000 A 
ATOM     10  C   UNL     1       9.403   9.931  19.177  0.00  0.00    +0.000 A 
ATOM     11  C   UNL     1       8.458  10.010  18.167  0.00  0.00    +0.000 A 
ATOM     12  F   UNL     1       7.791   8.911  17.795  0.00  0.00    +0.000 F 
ATOM     13  C   UNL     1       8.188  11.220  17.546  0.00  0.00    +0.000 A 
ATOM     14  C   UNL     1       8.903  12.365  17.916  0.00  0.00    +0.000 A 
ENDBRANCH   7   8
BRANCH   1  18
ATOM     15  C   UNL     1       7.028  13.718  23.444  0.00  0.00    +0.000 A 
ATOM     16  C   UNL     1       6.882  14.701  22.468  0.00  0.00    +0.000 A 
ATOM     17  C   UNL     1       7.893  14.886  21.518  0.00  0.00    +0.000 A 
ATOM     18  C   UNL     1       9.099  14.155  21.586  0.00  0.00    +0.000 A 
ATOM     19  C   UNL     1       9.228  13.187  22.587  0.00  0.00    +0.000 A 
ATOM     20  C   UNL     1       8.191  12.948  23.501  0.00  0.00    +0.000 A 
BRANCH  15  22
ATOM     21  C   UNL     1       6.580  13.957  26.193  0.00  0.00    +0.000 C 
ATOM     22  S   UNL     1       5.770  13.514  24.681  0.00  0.00    +0.000 S 
ATOM     23  O   UNL     1       5.452  12.100  24.735  0.00  0.00    +0.000 OA
ATOM     24  O   UNL     1       4.729  14.496  24.423  0.00  0.00    +0.000 OA
ENDBRANCH  15  22
ENDBRANCH   1  18
TORSDOF 3
ENDMDL
MODEL 4
REMARK VINA RESULT:      -6.1      2.528      3.346
REMARK  Name = 
REMARK  4 active torsions:
REMARK  status: ('A' for Active; 'I' for Inactive)
REMARK    1  A    between atoms: C_1  and  S_2
REMARK    2  A    between atoms: S_2  and  C_5
REMARK    3  A    between atoms: C_8  and  C_9
REMARK    4  A    between atoms: C_15  and  C_16
REMARK                            x       y       z     vdW  Elec       q    Type
REMARK                         _______ _______ _______ _____ _____    ______ ____
ROOT
ATOM      1  C   UNL     1      10.004  14.159  20.653  0.00  0.00    +0.000 A 
ATOM      2  C   UNL     1      10.882  15.230  20.739  0.00  0.00    +0.000 A 
ATOM      3 BR   UNL     1      11.086  16.441  22.174  0.00  0.00    +0.000 Br
ATOM      4  S   UNL     1      11.880  15.410  19.386  0.00  0.00    +0.000 S 
ATOM      5  C   UNL     1      11.209  14.043  18.638  0.00  0.00    +0.000 A 
ATOM      6 BR   UNL     1      11.796  13.623  16.893  0.00  0.00    +0.000 Br
ATOM      7  C   UNL     1      10.255  13.390  19.412  0.00  0.00    +0.000 A 
ENDROOT
BRANCH   7   8
ATOM      8  C   UNL     1       9.588  12.140  18.982  0.00  0.00    +0.000 A 
ATOM      9  C   UNL     1       8.718  12.108  17.873  0.00  0.00    +0.000 A 
ATOM     10  C   UNL     1       8.109  10.917  17.463  0.00  0.00    +0.000 A 
ATOM     11  C   UNL     1       8.424   9.731  18.108  0.00  0.00    +0.000 A 
ATOM     12  F   UNL     1       7.881   8.582  17.686  0.00  0.00    +0.000 F 
ATOM     13  C   UNL     1       9.305   9.722  19.178  0.00  0.00    +0.000 A 
ATOM     14  C   UNL     1       9.853  10.926  19.636  0.00  0.00    +0.000 A 
ENDBRANCH   7   8
BRANCH   1  18
ATOM     15  C   UNL     1       7.165  13.288  23.755  0.00  0.00    +0.000 A 
ATOM     16  C   UNL     1       8.320  12.520  23.641  0.00  0.00    +0.000 A 
ATOM     17  C   UNL     1       9.264  12.834  22.656  0.00  0.00    +0.000 A 
ATOM     18  C   UNL     1       9.023  13.860  21.717  0.00  0.00    +0.000 A 
ATOM     19  C   UNL     1       7.846  14.606  21.843  0.00  0.00    +0.000 A 
ATOM     20  C   UNL     1       6.928  14.342  22.869  0.00  0.00    +0.000 A 
BRANCH  15  22
ATOM     21  C   UNL     1       6.835  12.879  26.500  0.00  0.00    +0.000 C 
ATOM     22  S   UNL     1       5.942  12.862  24.970  0.00  0.00    +0.000 S 
ATOM     23  O   UNL     1       5.532  11.497  24.700  0.00  0.00    +0.000 OA
ATOM     24  O   UNL     1       4.961  13.935  25.009  0.00  0.00    +0.000 OA
ENDBRANCH  15  22
ENDBRANCH   1  18
TORSDOF 3
ENDMDL
MODEL 5
REMARK VINA RESULT:      -5.9      0.788      1.317
REMARK  Name = 
REMARK  4 active torsions:
REMARK  status: ('A' for Active; 'I' for Inactive)
REMARK    1  A    between atoms: C_1  and  S_2
REMARK    2  A    between atoms: S_2  and  C_5
REMARK    3  A    between atoms: C_8  and  C_9
REMARK    4  A    between atoms: C_15  and  C_16
REMARK                            x       y       z     vdW  Elec       q    Type
REMARK                         _______ _______ _______ _____ _____    ______ ____
ROOT
ATOM      1  C   UNL     1       8.673  15.287  18.367  0.00  0.00    +0.000 A 
ATOM      2  C   UNL     1       9.247  16.527  18.127  0.00  0.00    +0.000 A 
ATOM      3 BR   UNL     1       8.488  18.228  18.439  0.00  0.00    +0.000 Br
ATOM      4  S   UNL     1      10.819  16.448  17.510  0.00  0.00    +0.000 S 
ATOM      5  C   UNL     1      10.818  14.753  17.568  0.00  0.00    +0.000 A 
ATOM      6 BR   UNL     1      12.332  13.853  16.886  0.00  0.00    +0.000 Br
ATOM      7  C   UNL     1       9.656  14.209  18.102  0.00  0.00    +0.000 A 
ENDROOT
BRANCH   7   8
ATOM      8  C   UNL     1       9.465  12.754  18.304  0.00  0.00    +0.000 A 
ATOM      9  C   UNL     1      10.138  12.054  19.325  0.00  0.00    +0.000 A 
ATOM     10  C   UNL     1       9.935  10.683  19.521  0.00  0.00    +0.000 A 
ATOM     11  C   UNL     1       8.997  10.015  18.750  0.00  0.00    +0.000 A 
ATOM     12  F   UNL     1       8.765   8.715  18.969  0.00  0.00    +0.000 F 
ATOM     13  C   UNL     1       8.290  10.683  17.763  0.00  0.00    +0.000 A 
ATOM     14  C   UNL     1       8.552  12.036  17.516  0.00  0.00    +0.000 A 
ENDBRANCH   7   8
BRANCH   1  18
ATOM     15  C   UNL     1       4.658  14.885  19.834  0.00  0.00    +0.000 A 
ATOM     16  C   UNL     1       5.707  15.062  20.733  0.00  0.00    +0.000 A 
ATOM     17  C   UNL     1       7.009  15.236  20.248  0.00  0.00    +0.000 A 
ATOM     18  C   UNL     1       7.291  15.145  18.868  0.00  0.00    +0.000 A 
ATOM     19  C   UNL     1       6.221  14.949  17.988  0.00  0.00    +0.000 A 
ATOM     20  C   UNL     1       4.905  14.842  18.461  0.00  0.00    +0.000 A 
BRANCH  15  22
ATOM     21  C   UNL     1       2.414  16.243  20.801  0.00  0.00    +0.000 C 
ATOM     22  S   UNL     1       3.013  14.614  20.446  0.00  0.00    +0.000 S 
ATOM     23  O   UNL     1       3.139  13.895  21.700  0.00  0.00    +0.000 OA
ATOM     24  O   UNL     1       2.218  14.068  19.358  0.00  0.00    +0.000 OA
ENDBRANCH  15  22
ENDBRANCH   1  18
TORSDOF 3
ENDMDL
MODEL 6
REMARK VINA RESULT:      -5.9      0.685      1.268
REMARK  Name = 
REMARK  4 active torsions:
REMARK  status: ('A' for Active; 'I' for Inactive)
REMARK    1  A    between atoms: C_1  and  S_2
REMARK    2  A    between atoms: S_2  and  C_5
REMARK    3  A    between atoms: C_8  and  C_9
REMARK    4  A    between atoms: C_15  and  C_16
REMARK                            x       y       z     vdW  Elec       q    Type
REMARK                         _______ _______ _______ _____ _____    ______ ____
ROOT
ATOM      1  C   UNL     1       9.038  15.303  18.826  0.00  0.00    +0.000 A 
ATOM      2  C   UNL     1       9.682  16.489  18.505  0.00  0.00    +0.000 A 
ATOM      3 BR   UNL     1       9.121  18.249  18.902  0.00  0.00    +0.000 Br
ATOM      4  S   UNL     1      11.148  16.276  17.689  0.00  0.00    +0.000 S 
ATOM      5  C   UNL     1      11.006  14.587  17.759  0.00  0.00    +0.000 A 
ATOM      6 BR   UNL     1      12.333  13.561  16.892  0.00  0.00    +0.000 Br
ATOM      7  C   UNL     1       9.880  14.145  18.443  0.00  0.00    +0.000 A 
ENDROOT
BRANCH   7   8
ATOM      8  C   UNL     1       9.591  12.711  18.679  0.00  0.00    +0.000 A 
ATOM      9  C   UNL     1       9.037  11.892  17.675  0.00  0.00    +0.000 A 
ATOM     10  C   UNL     1       8.787  10.534  17.902  0.00  0.00    +0.000 A 
ATOM     11  C   UNL     1       9.163   9.963  19.107  0.00  0.00    +0.000 A 
ATOM     12  F   UNL     1       8.971   8.653  19.309  0.00  0.00    +0.000 F 
ATOM     13  C   UNL     1       9.746  10.733  20.102  0.00  0.00    +0.000 A 
ATOM     14  C   UNL     1       9.923  12.107  19.902  0.00  0.00    +0.000 A 
ENDBRANCH   7   8
BRANCH   1  18
ATOM     15  C   UNL     1       5.218  15.230  20.786  0.00  0.00    +0.000 A 
ATOM     16  C   UNL     1       5.281  15.349  19.401  0.00  0.00    +0.000 A 
ATOM     17  C   UNL     1       6.527  15.329  18.761  0.00  0.00    +0.000 A 
ATOM     18  C   UNL     1       7.726  15.281  19.504  0.00  0.00    +0.000 A 
ATOM     19  C   UNL     1       7.635  15.179  20.897  0.00  0.00    +0.000 A 
ATOM     20  C   UNL     1       6.390  15.130  21.539  0.00  0.00    +0.000 A 
BRANCH  15  22
ATOM     21  C   UNL     1       2.535  14.510  20.475  0.00  0.00    +0.000 C 
ATOM     22  S   UNL     1       3.644  15.306  21.604  0.00  0.00    +0.000 S 
ATOM     23  O   UNL     1       3.275  16.706  21.689  0.00  0.00    +0.000 OA
ATOM     24  O   UNL     1       3.727  14.490  22.805  0.00  0.00    +0.000 OA
ENDBRANCH  15  22
ENDBRANCH   1  18
TORSDOF 3
ENDMDL
MODEL 7
REMARK VINA RESULT:      -5.9      9.971     12.838
REMARK  Name = 
REMARK  4 active torsions:
REMARK  status: ('A' for Active; 'I' for Inactive)
REMARK    1  A    between atoms: C_1  and  S_2
REMARK    2  A    between atoms: S_2  and  C_5
REMARK    3  A    between atoms: C_8  and  C_9
REMARK    4  A    between atoms: C_15  and  C_16
REMARK                            x       y       z     vdW  Elec       q    Type
REMARK                         _______ _______ _______ _____ _____    ______ ____
ROOT
ATOM      1  C   UNL     1      -3.669  14.268  21.006  0.00  0.00    +0.000 A 
ATOM      2  C   UNL     1      -3.389  15.612  21.208  0.00  0.00    +0.000 A 
ATOM      3 BR   UNL     1      -1.777  16.371  21.836  0.00  0.00    +0.000 Br
ATOM      4  S   UNL     1      -4.662  16.647  20.803  0.00  0.00    +0.000 S 
ATOM      5  C   UNL     1      -5.635  15.349  20.306  0.00  0.00    +0.000 A 
ATOM      6 BR   UNL     1      -7.403  15.737  19.766  0.00  0.00    +0.000 Br
ATOM      7  C   UNL     1      -5.005  14.112  20.384  0.00  0.00    +0.000 A 
ENDROOT
BRANCH   7   8
ATOM      8  C   UNL     1      -5.646  12.852  19.942  0.00  0.00    +0.000 A 
ATOM      9  C   UNL     1      -5.239  12.187  18.769  0.00  0.00    +0.000 A 
ATOM     10  C   UNL     1      -5.837  10.985  18.371  0.00  0.00    +0.000 A 
ATOM     11  C   UNL     1      -6.792  10.396  19.185  0.00  0.00    +0.000 A 
ATOM     12  F   UNL     1      -7.329   9.222  18.832  0.00  0.00    +0.000 F 
ATOM     13  C   UNL     1      -7.187  11.006  20.365  0.00  0.00    +0.000 A 
ATOM     14  C   UNL     1      -6.644  12.246  20.721  0.00  0.00    +0.000 A 
ENDBRANCH   7   8
BRANCH   1  18
ATOM     15  C   UNL     1      -0.858  11.172  21.981  0.00  0.00    +0.000 A 
ATOM     16  C   UNL     1      -1.785  11.587  22.933  0.00  0.00    +0.000 A 
ATOM     17  C   UNL     1      -2.728  12.567  22.598  0.00  0.00    +0.000 A 
ATOM     18  C   UNL     1      -2.698  13.205  21.339  0.00  0.00    +0.000 A 
ATOM     19  C   UNL     1      -1.746  12.781  20.407  0.00  0.00    +0.000 A 
ATOM     20  C   UNL     1      -0.842  11.753  20.711  0.00  0.00    +0.000 A 
BRANCH  15  22
ATOM     21  C   UNL     1      -0.067   8.541  21.461  0.00  0.00    +0.000 C 
ATOM     22  S   UNL     1       0.371   9.967  22.418  0.00  0.00    +0.000 S 
ATOM     23  O   UNL     1       0.175   9.648  23.820  0.00  0.00    +0.000 OA
ATOM     24  O   UNL     1       1.657  10.450  21.943  0.00  0.00    +0.000 OA
ENDBRANCH  15  22
ENDBRANCH   1  18
TORSDOF 3
ENDMDL
MODEL 8
REMARK VINA RESULT:      -5.8      8.130     11.600
REMARK  Name = 
REMARK  4 active torsions:
REMARK  status: ('A' for Active; 'I' for Inactive)
REMARK    1  A    between atoms: C_1  and  S_2
REMARK    2  A    between atoms: S_2  and  C_5
REMARK    3  A    between atoms: C_8  and  C_9
REMARK    4  A    between atoms: C_15  and  C_16
REMARK                            x       y       z     vdW  Elec       q    Type
REMARK                         _______ _______ _______ _____ _____    ______ ____
ROOT
ATOM      1  C   UNL     1      -3.430  12.652  20.314  0.00  0.00    +0.000 A 
ATOM      2  C   UNL     1      -4.235  13.117  21.344  0.00  0.00    +0.000 A 
ATOM      3 BR   UNL     1      -3.735  14.227  22.788  0.00  0.00    +0.000 Br
ATOM      4  S   UNL     1      -5.848  12.623  21.229  0.00  0.00    +0.000 S 
ATOM      5  C   UNL     1      -5.551  11.795  19.779  0.00  0.00    +0.000 A 
ATOM      6 BR   UNL     1      -6.978  10.818  19.020  0.00  0.00    +0.000 Br
ATOM      7  C   UNL     1      -4.244  11.915  19.320  0.00  0.00    +0.000 A 
ENDROOT
BRANCH   7   8
ATOM      8  C   UNL     1      -3.781  11.326  18.042  0.00  0.00    +0.000 A 
ATOM      9  C   UNL     1      -4.368  11.676  16.810  0.00  0.00    +0.000 A 
ATOM     10  C   UNL     1      -3.909  11.129  15.606  0.00  0.00    +0.000 A 
ATOM     11  C   UNL     1      -2.806  10.290  15.614  0.00  0.00    +0.000 A 
ATOM     12  F   UNL     1      -2.334   9.805  14.459  0.00  0.00    +0.000 F 
ATOM     13  C   UNL     1      -2.181   9.957  16.806  0.00  0.00    +0.000 A 
ATOM     14  C   UNL     1      -2.691  10.442  18.016  0.00  0.00    +0.000 A 
ENDBRANCH   7   8
BRANCH   1  18
ATOM     15  C   UNL     1       0.775  13.509  20.156  0.00  0.00    +0.000 A 
ATOM     16  C   UNL     1      -0.135  14.416  19.619  0.00  0.00    +0.000 A 
ATOM     17  C   UNL     1      -1.507  14.154  19.711  0.00  0.00    +0.000 A 
ATOM     18  C   UNL     1      -1.982  12.942  20.259  0.00  0.00    +0.000 A 
ATOM     19  C   UNL     1      -1.046  12.040  20.775  0.00  0.00    +0.000 A 
ATOM     20  C   UNL     1       0.327  12.327  20.748  0.00  0.00    +0.000 A 
BRANCH  15  22
ATOM     21  C   UNL     1       2.626  15.566  19.756  0.00  0.00    +0.000 C 
ATOM     22  S   UNL     1       2.517  13.814  19.996  0.00  0.00    +0.000 S 
ATOM     23  O   UNL     1       2.953  13.162  18.776  0.00  0.00    +0.000 OA
ATOM     24  O   UNL     1       3.143  13.495  21.269  0.00  0.00    +0.000 OA
ENDBRANCH  15  22
ENDBRANCH   1  18
TORSDOF 3
ENDMDL
MODEL 9
REMARK VINA RESULT:      -5.8     10.054     13.015
REMARK  Name = 
REMARK  4 active torsions:
REMARK  status: ('A' for Active; 'I' for Inactive)
REMARK    1  A    between atoms: C_1  and  S_2
REMARK    2  A    between atoms: S_2  and  C_5
REMARK    3  A    between atoms: C_8  and  C_9
REMARK    4  A    between atoms: C_15  and  C_16
REMARK                            x       y       z     vdW  Elec       q    Type
REMARK                         _______ _______ _______ _____ _____    ______ ____
ROOT
ATOM      1  C   UNL     1      -3.581  13.848  22.884  0.00  0.00    +0.000 A 
ATOM      2  C   UNL     1      -3.384  14.877  23.794  0.00  0.00    +0.000 A 
ATOM      3 BR   UNL     1      -1.800  15.299  24.732  0.00  0.00    +0.000 Br
ATOM      4  S   UNL     1      -4.745  15.853  24.031  0.00  0.00    +0.000 S 
ATOM      5  C   UNL     1      -5.649  14.966  22.903  0.00  0.00    +0.000 A 
ATOM      6 BR   UNL     1      -7.463  15.436  22.671  0.00  0.00    +0.000 Br
ATOM      7  C   UNL     1      -4.932  13.948  22.283  0.00  0.00    +0.000 A 
ENDROOT
BRANCH   7   8
ATOM      8  C   UNL     1      -5.505  13.090  21.221  0.00  0.00    +0.000 A 
ATOM      9  C   UNL     1      -6.509  12.140  21.497  0.00  0.00    +0.000 A 
ATOM     10  C   UNL     1      -7.058  11.349  20.481  0.00  0.00    +0.000 A 
ATOM     11  C   UNL     1      -6.667  11.555  19.168  0.00  0.00    +0.000 A 
ATOM     12  F   UNL     1      -7.227  10.834  18.188  0.00  0.00    +0.000 F 
ATOM     13  C   UNL     1      -5.710  12.509  18.858  0.00  0.00    +0.000 A 
ATOM     14  C   UNL     1      -5.106  13.244  19.884  0.00  0.00    +0.000 A 
ENDBRANCH   7   8
BRANCH   1  18
ATOM     15  C   UNL     1      -0.502  10.997  21.972  0.00  0.00    +0.000 A 
ATOM     16  C   UNL     1      -0.716  12.078  21.121  0.00  0.00    +0.000 A 
ATOM     17  C   UNL     1      -1.692  13.029  21.445  0.00  0.00    +0.000 A 
ATOM     18  C   UNL     1      -2.525  12.863  22.572  0.00  0.00    +0.000 A 
ATOM     19  C   UNL     1      -2.301  11.759  23.401  0.00  0.00    +0.000 A 
ATOM     20  C   UNL     1      -1.280  10.839  23.121  0.00  0.00    +0.000 A 
BRANCH  15  22
ATOM     21  C   UNL     1      -0.221   8.249  21.542  0.00  0.00    +0.000 C 
ATOM     22  S   UNL     1       0.699   9.763  21.540  0.00  0.00    +0.000 S 
ATOM     23  O   UNL     1       1.662   9.709  22.624  0.00  0.00    +0.000 OA
ATOM     24  O   UNL     1       1.135  10.024  20.177  0.00  0.00    +0.000 OA
ENDBRANCH  15  22
ENDBRANCH   1  18
TORSDOF 3
ENDMDL
