MODEL 1
REMARK VINA RESULT:      -9.1      0.000      0.000
REMARK  Name = 
REMARK  4 active torsions:
REMARK  status: ('A' for Active; 'I' for Inactive)
REMARK    1  A    between atoms: C_2  and  C_12
REMARK    2  A    between atoms: N_3  and  C_4
REMARK    3  A    between atoms: C_15  and  C_16
REMARK    4  A    between atoms: C_23  and  C_24
REMARK                            x       y       z     vdW  Elec       q    Type
REMARK                         _______ _______ _______ _____ _____    ______ ____
ROOT
ATOM      1  C   UNL     1       1.462   8.489  20.354  0.00  0.00    +0.000 A 
ATOM      2  C   UNL     1       1.674   8.867  21.669  0.00  0.00    +0.000 A 
ATOM      3  N   UNL     1       0.975   9.867  22.265  0.00  0.00    +0.000 NA
ATOM      4  C   UNL     1       0.019  10.485  21.511  0.00  0.00    +0.000 A 
ATOM      5  C   UNL     1      -0.234  10.056  20.174  0.00  0.00    +0.000 A 
ATOM      6  N   UNL     1       0.516   9.073  19.574  0.00  0.00    +0.000 NA
ENDROOT
BRANCH   4   7
ATOM      7  C   UNL     1      -0.723  11.560  22.230  0.00  0.00    +0.000 A 
ATOM      8  C   UNL     1      -0.392  12.923  22.093  0.00  0.00    +0.000 A 
ATOM      9  C   UNL     1      -1.246  13.938  22.537  0.00  0.00    +0.000 A 
ATOM     10  C   UNL     1      -2.394  13.610  23.245  0.00  0.00    +0.000 A 
ATOM     11 CL   UNL     1      -3.462  14.852  23.764  0.00  0.00    +0.000 Cl
ATOM     12  C   UNL     1      -2.681  12.276  23.520  0.00  0.00    +0.000 A 
ATOM     13  C   UNL     1      -1.856  11.262  23.013  0.00  0.00    +0.000 A 
ENDBRANCH   4   7
BRANCH   5  14
ATOM     14  C   UNL     1      -1.335  10.551  19.309  0.00  0.00    +0.000 A 
ATOM     15  C   UNL     1      -2.118  11.654  19.698  0.00  0.00    +0.000 A 
ATOM     16  C   UNL     1      -3.189  12.097  18.911  0.00  0.00    +0.000 A 
ATOM     17  C   UNL     1      -3.512  11.428  17.734  0.00  0.00    +0.000 A 
ATOM     18 CL   UNL     1      -4.839  11.953  16.776  0.00  0.00    +0.000 Cl
ATOM     19  C   UNL     1      -2.758  10.338  17.322  0.00  0.00    +0.000 A 
ATOM     20  C   UNL     1      -1.651   9.943  18.076  0.00  0.00    +0.000 A 
ENDBRANCH   5  14
BRANCH   1  22
ATOM     21  O   UNL     1       2.948   7.601  18.753  0.00  0.00    +0.000 OA
ATOM     22  C   UNL     1       2.288   7.396  19.766  0.00  0.00    +0.000 C 
ATOM     23  N   UNL     1       2.251   6.165  20.408  0.00  0.00    +0.000 N 
ATOM     24  H   UNL     1       1.744   6.117  21.280  0.00  0.00    +0.000 HD
BRANCH  23  25
ATOM     25  C   UNL     1       3.028   5.037  19.893  0.00  0.00    +0.000 C 
ATOM     26  C   UNL     1       2.752   4.787  18.408  0.00  0.00    +0.000 C 
ATOM     27  C   UNL     1       1.382   4.159  18.166  0.00  0.00    +0.000 C 
ATOM     28  C   UNL     1       1.215   2.887  18.978  0.00  0.00    +0.000 C 
ATOM     29  F   UNL     1       2.073   1.947  18.507  0.00  0.00    +0.000 F 
ATOM     30  F   UNL     1      -0.034   2.396  18.792  0.00  0.00    +0.000 F 
ATOM     31  C   UNL     1       1.462   3.097  20.461  0.00  0.00    +0.000 C 
ATOM     32  C   UNL     1       2.812   3.763  20.725  0.00  0.00    +0.000 C 
ENDBRANCH  23  25
ENDBRANCH   1  22
TORSDOF 4
ENDMDL
MODEL 2
REMARK VINA RESULT:      -8.8      0.377      1.277
REMARK  Name = 
REMARK  4 active torsions:
REMARK  status: ('A' for Active; 'I' for Inactive)
REMARK    1  A    between atoms: C_2  and  C_12
REMARK    2  A    between atoms: N_3  and  C_4
REMARK    3  A    between atoms: C_15  and  C_16
REMARK    4  A    between atoms: C_23  and  C_24
REMARK                            x       y       z     vdW  Elec       q    Type
REMARK                         _______ _______ _______ _____ _____    ______ ____
ROOT
ATOM      1  C   UNL     1       1.501   8.591  20.164  0.00  0.00    +0.000 A 
ATOM      2  C   UNL     1       1.771   9.059  21.438  0.00  0.00    +0.000 A 
ATOM      3  N   UNL     1       1.080  10.081  22.005  0.00  0.00    +0.000 NA
ATOM      4  C   UNL     1       0.072  10.628  21.265  0.00  0.00    +0.000 A 
ATOM      5  C   UNL     1      -0.240  10.108  19.974  0.00  0.00    +0.000 A 
ATOM      6  N   UNL     1       0.501   9.103  19.399  0.00  0.00    +0.000 NA
ENDROOT
BRANCH   4   7
ATOM      7  C   UNL     1      -0.658  11.732  21.952  0.00  0.00    +0.000 A 
ATOM      8  C   UNL     1      -1.770  11.495  22.784  0.00  0.00    +0.000 A 
ATOM      9  C   UNL     1      -2.276  12.481  23.639  0.00  0.00    +0.000 A 
ATOM     10  C   UNL     1      -1.759  13.768  23.585  0.00  0.00    +0.000 A 
ATOM     11 CL   UNL     1      -2.356  14.974  24.655  0.00  0.00    +0.000 Cl
ATOM     12  C   UNL     1      -0.753  14.074  22.674  0.00  0.00    +0.000 A 
ATOM     13  C   UNL     1      -0.205  13.064  21.869  0.00  0.00    +0.000 A 
ENDBRANCH   4   7
BRANCH   5  14
ATOM     14  C   UNL     1      -1.397  10.522  19.139  0.00  0.00    +0.000 A 
ATOM     15  C   UNL     1      -1.661   9.891  17.908  0.00  0.00    +0.000 A 
ATOM     16  C   UNL     1      -2.720  10.308  17.092  0.00  0.00    +0.000 A 
ATOM     17  C   UNL     1      -3.519  11.379  17.481  0.00  0.00    +0.000 A 
ATOM     18 CL   UNL     1      -4.807  11.909  16.474  0.00  0.00    +0.000 Cl
ATOM     19  C   UNL     1      -3.286  12.021  18.690  0.00  0.00    +0.000 A 
ATOM     20  C   UNL     1      -2.270  11.557  19.529  0.00  0.00    +0.000 A 
ENDBRANCH   5  14
BRANCH   1  22
ATOM     21  O   UNL     1       2.983   7.656  18.586  0.00  0.00    +0.000 OA
ATOM     22  C   UNL     1       2.321   7.480  19.603  0.00  0.00    +0.000 C 
ATOM     23  N   UNL     1       2.278   6.266  20.277  0.00  0.00    +0.000 N 
ATOM     24  H   UNL     1       1.770   6.243  21.149  0.00  0.00    +0.000 HD
BRANCH  23  25
ATOM     25  C   UNL     1       3.049   5.121  19.790  0.00  0.00    +0.000 C 
ATOM     26  C   UNL     1       2.738   4.806  18.325  0.00  0.00    +0.000 C 
ATOM     27  C   UNL     1       1.366   4.160  18.145  0.00  0.00    +0.000 C 
ATOM     28  C   UNL     1       1.228   2.924  19.015  0.00  0.00    +0.000 C 
ATOM     29  F   UNL     1       2.081   1.969  18.562  0.00  0.00    +0.000 F 
ATOM     30  F   UNL     1      -0.021   2.418  18.882  0.00  0.00    +0.000 F 
ATOM     31  C   UNL     1       1.512   3.198  20.481  0.00  0.00    +0.000 C 
ATOM     32  C   UNL     1       2.863   3.883  20.682  0.00  0.00    +0.000 C 
ENDBRANCH  23  25
ENDBRANCH   1  22
TORSDOF 4
ENDMDL
MODEL 3
REMARK VINA RESULT:      -8.6      2.542      3.236
REMARK  Name = 
REMARK  4 active torsions:
REMARK  status: ('A' for Active; 'I' for Inactive)
REMARK    1  A    between atoms: C_2  and  C_12
REMARK    2  A    between atoms: N_3  and  C_4
REMARK    3  A    between atoms: C_15  and  C_16
REMARK    4  A    between atoms: C_23  and  C_24
REMARK                            x       y       z     vdW  Elec       q    Type
REMARK                         _______ _______ _______ _____ _____    ______ ____
ROOT
ATOM      1  C   UNL     1       1.201   9.639  19.345  0.00  0.00    +0.000 A 
ATOM      2  C   UNL     1       0.453   9.133  20.394  0.00  0.00    +0.000 A 
ATOM      3  N   UNL     1      -0.168   9.928  21.302  0.00  0.00    +0.000 NA
ATOM      4  C   UNL     1      -0.043  11.277  21.127  0.00  0.00    +0.000 A 
ATOM      5  C   UNL     1       0.684  11.795  20.015  0.00  0.00    +0.000 A 
ATOM      6  N   UNL     1       1.343  10.973  19.133  0.00  0.00    +0.000 NA
ENDROOT
BRANCH   4   7
ATOM      7  C   UNL     1      -0.763  12.092  22.148  0.00  0.00    +0.000 A 
ATOM      8  C   UNL     1      -0.318  13.371  22.538  0.00  0.00    +0.000 A 
ATOM      9  C   UNL     1      -1.129  14.242  23.274  0.00  0.00    +0.000 A 
ATOM     10  C   UNL     1      -2.357  13.802  23.747  0.00  0.00    +0.000 A 
ATOM     11 CL   UNL     1      -3.371  14.878  24.624  0.00  0.00    +0.000 Cl
ATOM     12  C   UNL     1      -2.769  12.495  23.498  0.00  0.00    +0.000 A 
ATOM     13  C   UNL     1      -1.981  11.652  22.702  0.00  0.00    +0.000 A 
ENDBRANCH   4   7
BRANCH   5  14
ATOM     14  C   UNL     1       0.770  13.230  19.641  0.00  0.00    +0.000 A 
ATOM     15  C   UNL     1      -0.323  13.887  19.043  0.00  0.00    +0.000 A 
ATOM     16  C   UNL     1      -0.233  15.227  18.644  0.00  0.00    +0.000 A 
ATOM     17  C   UNL     1       0.959  15.926  18.812  0.00  0.00    +0.000 A 
ATOM     18 CL   UNL     1       1.081  17.563  18.304  0.00  0.00    +0.000 Cl
ATOM     19  C   UNL     1       2.053  15.307  19.400  0.00  0.00    +0.000 A 
ATOM     20  C   UNL     1       1.936  13.992  19.856  0.00  0.00    +0.000 A 
ENDBRANCH   5  14
BRANCH   1  22
ATOM     21  O   UNL     1       2.179   9.071  17.276  0.00  0.00    +0.000 OA
ATOM     22  C   UNL     1       1.871   8.698  18.403  0.00  0.00    +0.000 C 
ATOM     23  N   UNL     1       2.104   7.408  18.863  0.00  0.00    +0.000 N 
ATOM     24  H   UNL     1       1.890   7.221  19.831  0.00  0.00    +0.000 HD
BRANCH  23  25
ATOM     25  C   UNL     1       2.751   6.420  18.000  0.00  0.00    +0.000 C 
ATOM     26  C   UNL     1       1.903   5.155  17.846  0.00  0.00    +0.000 C 
ATOM     27  C   UNL     1       1.906   4.292  19.104  0.00  0.00    +0.000 C 
ATOM     28  C   UNL     1       3.324   3.954  19.529  0.00  0.00    +0.000 C 
ATOM     29  F   UNL     1       3.882   3.142  18.595  0.00  0.00    +0.000 F 
ATOM     30  F   UNL     1       3.292   3.248  20.684  0.00  0.00    +0.000 F 
ATOM     31  C   UNL     1       4.196   5.184  19.711  0.00  0.00    +0.000 C 
ATOM     32  C   UNL     1       4.174   6.085  18.477  0.00  0.00    +0.000 C 
ENDBRANCH  23  25
ENDBRANCH   1  22
TORSDOF 4
ENDMDL
MODEL 4
REMARK VINA RESULT:      -8.5      2.295      2.977
REMARK  Name = 
REMARK  4 active torsions:
REMARK  status: ('A' for Active; 'I' for Inactive)
REMARK    1  A    between atoms: C_2  and  C_12
REMARK    2  A    between atoms: N_3  and  C_4
REMARK    3  A    between atoms: C_15  and  C_16
REMARK    4  A    between atoms: C_23  and  C_24
REMARK                            x       y       z     vdW  Elec       q    Type
REMARK                         _______ _______ _______ _____ _____    ______ ____
ROOT
ATOM      1  C   UNL     1       1.337   8.377  20.374  0.00  0.00    +0.000 A 
ATOM      2  C   UNL     1       0.166   8.110  21.061  0.00  0.00    +0.000 A 
ATOM      3  N   UNL     1      -0.672   9.089  21.490  0.00  0.00    +0.000 NA
ATOM      4  C   UNL     1      -0.319  10.374  21.194  0.00  0.00    +0.000 A 
ATOM      5  C   UNL     1       0.861  10.643  20.440  0.00  0.00    +0.000 A 
ATOM      6  N   UNL     1       1.718   9.641  20.054  0.00  0.00    +0.000 NA
ENDROOT
BRANCH   4   7
ATOM      7  C   UNL     1      -1.289  11.398  21.678  0.00  0.00    +0.000 A 
ATOM      8  C   UNL     1      -2.048  12.192  20.795  0.00  0.00    +0.000 A 
ATOM      9  C   UNL     1      -3.144  12.943  21.234  0.00  0.00    +0.000 A 
ATOM     10  C   UNL     1      -3.426  13.019  22.591  0.00  0.00    +0.000 A 
ATOM     11 CL   UNL     1      -4.789  13.915  23.132  0.00  0.00    +0.000 Cl
ATOM     12  C   UNL     1      -2.611  12.359  23.506  0.00  0.00    +0.000 A 
ATOM     13  C   UNL     1      -1.556  11.553  23.053  0.00  0.00    +0.000 A 
ENDBRANCH   4   7
BRANCH   5  14
ATOM     14  C   UNL     1       1.271  11.979  19.937  0.00  0.00    +0.000 A 
ATOM     15  C   UNL     1       1.413  12.219  18.557  0.00  0.00    +0.000 A 
ATOM     16  C   UNL     1       1.846  13.462  18.077  0.00  0.00    +0.000 A 
ATOM     17  C   UNL     1       2.170  14.479  18.971  0.00  0.00    +0.000 A 
ATOM     18 CL   UNL     1       2.723  15.999  18.389  0.00  0.00    +0.000 Cl
ATOM     19  C   UNL     1       2.039  14.275  20.337  0.00  0.00    +0.000 A 
ATOM     20  C   UNL     1       1.543  13.056  20.806  0.00  0.00    +0.000 A 
ENDBRANCH   5  14
BRANCH   1  22
ATOM     21  O   UNL     1       3.032   7.402  19.056  0.00  0.00    +0.000 OA
ATOM     22  C   UNL     1       2.214   7.246  19.957  0.00  0.00    +0.000 C 
ATOM     23  N   UNL     1       2.042   6.039  20.621  0.00  0.00    +0.000 N 
ATOM     24  H   UNL     1       1.403   6.032  21.402  0.00  0.00    +0.000 HD
BRANCH  23  25
ATOM     25  C   UNL     1       2.859   4.877  20.269  0.00  0.00    +0.000 C 
ATOM     26  C   UNL     1       2.831   4.596  18.764  0.00  0.00    +0.000 C 
ATOM     27  C   UNL     1       1.503   4.002  18.305  0.00  0.00    +0.000 C 
ATOM     28  C   UNL     1       1.159   2.756  19.102  0.00  0.00    +0.000 C 
ATOM     29  F   UNL     1       2.055   1.780  18.804  0.00  0.00    +0.000 F 
ATOM     30  F   UNL     1      -0.055   2.296  18.716  0.00  0.00    +0.000 F 
ATOM     31  C   UNL     1       1.158   2.996  20.602  0.00  0.00    +0.000 C 
ATOM     32  C   UNL     1       2.464   3.631  21.079  0.00  0.00    +0.000 C 
ENDBRANCH  23  25
ENDBRANCH   1  22
TORSDOF 4
ENDMDL
MODEL 5
REMARK VINA RESULT:      -8.5      2.295      2.828
REMARK  Name = 
REMARK  4 active torsions:
REMARK  status: ('A' for Active; 'I' for Inactive)
REMARK    1  A    between atoms: C_2  and  C_12
REMARK    2  A    between atoms: N_3  and  C_4
REMARK    3  A    between atoms: C_15  and  C_16
REMARK    4  A    between atoms: C_23  and  C_24
REMARK                            x       y       z     vdW  Elec       q    Type
REMARK                         _______ _______ _______ _____ _____    ______ ____
ROOT
ATOM      1  C   UNL     1       1.028   9.078  20.433  0.00  0.00    +0.000 A 
ATOM      2  C   UNL     1       0.188   8.745  21.481  0.00  0.00    +0.000 A 
ATOM      3  N   UNL     1      -0.484   9.676  22.206  0.00  0.00    +0.000 NA
ATOM      4  C   UNL     1      -0.313  10.981  21.842  0.00  0.00    +0.000 A 
ATOM      5  C   UNL     1       0.511  11.317  20.727  0.00  0.00    +0.000 A 
ATOM      6  N   UNL     1       1.217  10.363  20.035  0.00  0.00    +0.000 NA
ENDROOT
BRANCH   4   7
ATOM      7  C   UNL     1      -1.091  11.949  22.667  0.00  0.00    +0.000 A 
ATOM      8  C   UNL     1      -0.633  13.257  22.923  0.00  0.00    +0.000 A 
ATOM      9  C   UNL     1      -1.473  14.244  23.451  0.00  0.00    +0.000 A 
ATOM     10  C   UNL     1      -2.758  13.907  23.856  0.00  0.00    +0.000 A 
ATOM     11 CL   UNL     1      -3.804  15.122  24.475  0.00  0.00    +0.000 Cl
ATOM     12  C   UNL     1      -3.197  12.591  23.746  0.00  0.00    +0.000 A 
ATOM     13  C   UNL     1      -2.373  11.623  23.153  0.00  0.00    +0.000 A 
ENDBRANCH   4   7
BRANCH   5  14
ATOM     14  C   UNL     1       0.660  12.678  20.151  0.00  0.00    +0.000 A 
ATOM     15  C   UNL     1      -0.354  13.238  19.352  0.00  0.00    +0.000 A 
ATOM     16  C   UNL     1      -0.201  14.501  18.765  0.00  0.00    +0.000 A 
ATOM     17  C   UNL     1       0.980  15.215  18.947  0.00  0.00    +0.000 A 
ATOM     18 CL   UNL     1       1.182  16.755  18.212  0.00  0.00    +0.000 Cl
ATOM     19  C   UNL     1       1.998  14.691  19.732  0.00  0.00    +0.000 A 
ATOM     20  C   UNL     1       1.812  13.461  20.368  0.00  0.00    +0.000 A 
ENDBRANCH   5  14
BRANCH   1  22
ATOM     21  O   UNL     1       2.269   8.232  18.615  0.00  0.00    +0.000 OA
ATOM     22  C   UNL     1       1.747   7.998  19.700  0.00  0.00    +0.000 C 
ATOM     23  N   UNL     1       1.776   6.745  20.298  0.00  0.00    +0.000 N 
ATOM     24  H   UNL     1       1.391   6.671  21.228  0.00  0.00    +0.000 HD
BRANCH  23  25
ATOM     25  C   UNL     1       2.457   5.627  19.642  0.00  0.00    +0.000 C 
ATOM     26  C   UNL     1       1.469   4.690  18.943  0.00  0.00    +0.000 C 
ATOM     27  C   UNL     1       0.675   3.836  19.928  0.00  0.00    +0.000 C 
ATOM     28  C   UNL     1       1.603   3.067  20.852  0.00  0.00    +0.000 C 
ATOM     29  F   UNL     1       2.285   2.146  20.124  0.00  0.00    +0.000 F 
ATOM     30  F   UNL     1       0.866   2.376  21.754  0.00  0.00    +0.000 F 
ATOM     31  C   UNL     1       2.588   3.963  21.580  0.00  0.00    +0.000 C 
ATOM     32  C   UNL     1       3.366   4.858  20.615  0.00  0.00    +0.000 C 
ENDBRANCH  23  25
ENDBRANCH   1  22
TORSDOF 4
ENDMDL
MODEL 6
REMARK VINA RESULT:      -8.4      0.884      1.313
REMARK  Name = 
REMARK  4 active torsions:
REMARK  status: ('A' for Active; 'I' for Inactive)
REMARK    1  A    between atoms: C_2  and  C_12
REMARK    2  A    between atoms: N_3  and  C_4
REMARK    3  A    between atoms: C_15  and  C_16
REMARK    4  A    between atoms: C_23  and  C_24
REMARK                            x       y       z     vdW  Elec       q    Type
REMARK                         _______ _______ _______ _____ _____    ______ ____
ROOT
ATOM      1  C   UNL     1       1.422   8.946  19.522  0.00  0.00    +0.000 A 
ATOM      2  C   UNL     1       1.797   9.333  20.796  0.00  0.00    +0.000 A 
ATOM      3  N   UNL     1       1.123  10.276  21.503  0.00  0.00    +0.000 NA
ATOM      4  C   UNL     1       0.025  10.826  20.906  0.00  0.00    +0.000 A 
ATOM      5  C   UNL     1      -0.390  10.386  19.615  0.00  0.00    +0.000 A 
ATOM      6  N   UNL     1       0.332   9.463  18.897  0.00  0.00    +0.000 NA
ENDROOT
BRANCH   4   7
ATOM      7  C   UNL     1      -0.679  11.841  21.742  0.00  0.00    +0.000 A 
ATOM      8  C   UNL     1      -1.751  11.503  22.591  0.00  0.00    +0.000 A 
ATOM      9  C   UNL     1      -2.223  12.384  23.571  0.00  0.00    +0.000 A 
ATOM     10  C   UNL     1      -1.716  13.675  23.636  0.00  0.00    +0.000 A 
ATOM     11 CL   UNL     1      -2.270  14.750  24.858  0.00  0.00    +0.000 Cl
ATOM     12  C   UNL     1      -0.752  14.088  22.721  0.00  0.00    +0.000 A 
ATOM     13  C   UNL     1      -0.235  13.178  21.787  0.00  0.00    +0.000 A 
ENDBRANCH   4   7
BRANCH   5  14
ATOM     14  C   UNL     1      -1.639  10.802  18.927  0.00  0.00    +0.000 A 
ATOM     15  C   UNL     1      -2.355  11.936  19.356  0.00  0.00    +0.000 A 
ATOM     16  C   UNL     1      -3.559  12.308  18.745  0.00  0.00    +0.000 A 
ATOM     17  C   UNL     1      -4.082  11.538  17.710  0.00  0.00    +0.000 A 
ATOM     18 CL   UNL     1      -5.570  11.976  16.970  0.00  0.00    +0.000 Cl
ATOM     19  C   UNL     1      -3.399  10.415  17.262  0.00  0.00    +0.000 A 
ATOM     20  C   UNL     1      -2.166  10.088  17.832  0.00  0.00    +0.000 A 
ENDBRANCH   5  14
BRANCH   1  22
ATOM     21  O   UNL     1       2.846   8.222  17.787  0.00  0.00    +0.000 OA
ATOM     22  C   UNL     1       2.228   7.919  18.803  0.00  0.00    +0.000 C 
ATOM     23  N   UNL     1       2.224   6.634  19.330  0.00  0.00    +0.000 N 
ATOM     24  H   UNL     1       1.753   6.502  20.213  0.00  0.00    +0.000 HD
BRANCH  23  25
ATOM     25  C   UNL     1       2.985   5.565  18.682  0.00  0.00    +0.000 C 
ATOM     26  C   UNL     1       2.086   4.656  17.840  0.00  0.00    +0.000 C 
ATOM     27  C   UNL     1       1.219   3.737  18.696  0.00  0.00    +0.000 C 
ATOM     28  C   UNL     1       2.069   2.929  19.661  0.00  0.00    +0.000 C 
ATOM     29  F   UNL     1       2.835   2.060  18.952  0.00  0.00    +0.000 F 
ATOM     30  F   UNL     1       1.264   2.177  20.449  0.00  0.00    +0.000 F 
ATOM     31  C   UNL     1       2.964   3.796  20.528  0.00  0.00    +0.000 C 
ATOM     32  C   UNL     1       3.812   4.755  19.693  0.00  0.00    +0.000 C 
ENDBRANCH  23  25
ENDBRANCH   1  22
TORSDOF 4
ENDMDL
MODEL 7
REMARK VINA RESULT:      -8.4      2.537      3.144
REMARK  Name = 
REMARK  4 active torsions:
REMARK  status: ('A' for Active; 'I' for Inactive)
REMARK    1  A    between atoms: C_2  and  C_12
REMARK    2  A    between atoms: N_3  and  C_4
REMARK    3  A    between atoms: C_15  and  C_16
REMARK    4  A    between atoms: C_23  and  C_24
REMARK                            x       y       z     vdW  Elec       q    Type
REMARK                         _______ _______ _______ _____ _____    ______ ____
ROOT
ATOM      1  C   UNL     1       1.167   9.524  19.313  0.00  0.00    +0.000 A 
ATOM      2  C   UNL     1       0.209   9.080  20.208  0.00  0.00    +0.000 A 
ATOM      3  N   UNL     1      -0.553   9.928  20.946  0.00  0.00    +0.000 NA
ATOM      4  C   UNL     1      -0.350  11.265  20.753  0.00  0.00    +0.000 A 
ATOM      5  C   UNL     1       0.600  11.719  19.791  0.00  0.00    +0.000 A 
ATOM      6  N   UNL     1       1.393  10.845  19.087  0.00  0.00    +0.000 NA
ENDROOT
BRANCH   4   7
ATOM      7  C   UNL     1      -1.230  12.140  21.580  0.00  0.00    +0.000 A 
ATOM      8  C   UNL     1      -0.771  12.777  22.750  0.00  0.00    +0.000 A 
ATOM      9  C   UNL     1      -1.497  13.804  23.364  0.00  0.00    +0.000 A 
ATOM     10  C   UNL     1      -2.762  14.127  22.894  0.00  0.00    +0.000 A 
ATOM     11 CL   UNL     1      -3.644  15.408  23.626  0.00  0.00    +0.000 Cl
ATOM     12  C   UNL     1      -3.306  13.421  21.825  0.00  0.00    +0.000 A 
ATOM     13  C   UNL     1      -2.545  12.441  21.172  0.00  0.00    +0.000 A 
ENDBRANCH   4   7
BRANCH   5  14
ATOM     14  C   UNL     1       0.806  13.135  19.392  0.00  0.00    +0.000 A 
ATOM     15  C   UNL     1       2.050  13.765  19.588  0.00  0.00    +0.000 A 
ATOM     16  C   UNL     1       2.239  15.114  19.259  0.00  0.00    +0.000 A 
ATOM     17  C   UNL     1       1.180  15.863  18.753  0.00  0.00    +0.000 A 
ATOM     18 CL   UNL     1       1.400  17.523  18.369  0.00  0.00    +0.000 Cl
ATOM     19  C   UNL     1      -0.058  15.270  18.547  0.00  0.00    +0.000 A 
ATOM     20  C   UNL     1      -0.221  13.908  18.814  0.00  0.00    +0.000 A 
ENDBRANCH   5  14
BRANCH   1  22
ATOM     21  O   UNL     1       2.375   8.789  17.426  0.00  0.00    +0.000 OA
ATOM     22  C   UNL     1       1.978   8.529  18.557  0.00  0.00    +0.000 C 
ATOM     23  N   UNL     1       2.237   7.319  19.188  0.00  0.00    +0.000 N 
ATOM     24  H   UNL     1       1.939   7.230  20.149  0.00  0.00    +0.000 HD
BRANCH  23  25
ATOM     25  C   UNL     1       3.022   6.284  18.514  0.00  0.00    +0.000 C 
ATOM     26  C   UNL     1       2.130   5.302  17.749  0.00  0.00    +0.000 C 
ATOM     27  C   UNL     1       1.379   4.351  18.677  0.00  0.00    +0.000 C 
ATOM     28  C   UNL     1       2.337   3.620  19.600  0.00  0.00    +0.000 C 
ATOM     29  F   UNL     1       3.110   2.784  18.860  0.00  0.00    +0.000 F 
ATOM     30  F   UNL     1       1.633   2.839  20.453  0.00  0.00    +0.000 F 
ATOM     31  C   UNL     1       3.229   4.561  20.391  0.00  0.00    +0.000 C 
ATOM     32  C   UNL     1       3.960   5.550  19.485  0.00  0.00    +0.000 C 
ENDBRANCH  23  25
ENDBRANCH   1  22
TORSDOF 4
ENDMDL
MODEL 8
REMARK VINA RESULT:      -8.4      7.298      8.543
REMARK  Name = 
REMARK  4 active torsions:
REMARK  status: ('A' for Active; 'I' for Inactive)
REMARK    1  A    between atoms: C_2  and  C_12
REMARK    2  A    between atoms: N_3  and  C_4
REMARK    3  A    between atoms: C_15  and  C_16
REMARK    4  A    between atoms: C_23  and  C_24
REMARK                            x       y       z     vdW  Elec       q    Type
REMARK                         _______ _______ _______ _____ _____    ______ ____
ROOT
ATOM      1  C   UNL     1       6.178  15.935  19.324  0.00  0.00    +0.000 A 
ATOM      2  C   UNL     1       5.760  17.251  19.413  0.00  0.00    +0.000 A 
ATOM      3  N   UNL     1       4.449  17.606  19.395  0.00  0.00    +0.000 NA
ATOM      4  C   UNL     1       3.538  16.594  19.306  0.00  0.00    +0.000 A 
ATOM      5  C   UNL     1       3.970  15.235  19.268  0.00  0.00    +0.000 A 
ATOM      6  N   UNL     1       5.302  14.899  19.242  0.00  0.00    +0.000 NA
ENDROOT
BRANCH   4   7
ATOM      7  C   UNL     1       2.118  17.051  19.309  0.00  0.00    +0.000 A 
ATOM      8  C   UNL     1       1.365  17.173  18.124  0.00  0.00    +0.000 A 
ATOM      9  C   UNL     1      -0.025  17.328  18.145  0.00  0.00    +0.000 A 
ATOM     10  C   UNL     1      -0.679  17.494  19.359  0.00  0.00    +0.000 A 
ATOM     11 CL   UNL     1      -2.390  17.654  19.393  0.00  0.00    +0.000 Cl
ATOM     12  C   UNL     1       0.052  17.519  20.543  0.00  0.00    +0.000 A 
ATOM     13  C   UNL     1       1.436  17.294  20.517  0.00  0.00    +0.000 A 
ENDBRANCH   4   7
BRANCH   5  14
ATOM     14  C   UNL     1       3.076  14.050  19.314  0.00  0.00    +0.000 A 
ATOM     15  C   UNL     1       2.420  13.687  20.506  0.00  0.00    +0.000 A 
ATOM     16  C   UNL     1       1.614  12.543  20.570  0.00  0.00    +0.000 A 
ATOM     17  C   UNL     1       1.470  11.728  19.451  0.00  0.00    +0.000 A 
ATOM     18 CL   UNL     1       0.500  10.311  19.530  0.00  0.00    +0.000 Cl
ATOM     19  C   UNL     1       2.103  12.059  18.261  0.00  0.00    +0.000 A 
ATOM     20  C   UNL     1       2.851  13.237  18.185  0.00  0.00    +0.000 A 
ENDBRANCH   5  14
BRANCH   1  22
ATOM     21  O   UNL     1       8.455  16.534  19.458  0.00  0.00    +0.000 OA
ATOM     22  C   UNL     1       7.636  15.629  19.328  0.00  0.00    +0.000 C 
ATOM     23  N   UNL     1       8.000  14.298  19.165  0.00  0.00    +0.000 N 
ATOM     24  H   UNL     1       7.255  13.618  19.148  0.00  0.00    +0.000 HD
BRANCH  23  25
ATOM     25  C   UNL     1       9.412  13.913  19.151  0.00  0.00    +0.000 C 
ATOM     26  C   UNL     1       9.755  13.052  17.933  0.00  0.00    +0.000 C 
ATOM     27  C   UNL     1       9.205  11.633  18.045  0.00  0.00    +0.000 C 
ATOM     28  C   UNL     1       9.664  10.972  19.333  0.00  0.00    +0.000 C 
ATOM     29  F   UNL     1      11.007  10.779  19.275  0.00  0.00    +0.000 F 
ATOM     30  F   UNL     1       9.103   9.743  19.432  0.00  0.00    +0.000 F 
ATOM     31  C   UNL     1       9.326  11.786  20.569  0.00  0.00    +0.000 C 
ATOM     32  C   UNL     1       9.832  13.224  20.460  0.00  0.00    +0.000 C 
ENDBRANCH  23  25
ENDBRANCH   1  22
TORSDOF 4
ENDMDL
MODEL 9
REMARK VINA RESULT:      -8.3      2.648      3.229
REMARK  Name = 
REMARK  4 active torsions:
REMARK  status: ('A' for Active; 'I' for Inactive)
REMARK    1  A    between atoms: C_2  and  C_12
REMARK    2  A    between atoms: N_3  and  C_4
REMARK    3  A    between atoms: C_15  and  C_16
REMARK    4  A    between atoms: C_23  and  C_24
REMARK                            x       y       z     vdW  Elec       q    Type
REMARK                         _______ _______ _______ _____ _____    ______ ____
ROOT
ATOM      1  C   UNL     1       1.206   9.549  19.253  0.00  0.00    +0.000 A 
ATOM      2  C   UNL     1       0.209   9.126  20.115  0.00  0.00    +0.000 A 
ATOM      3  N   UNL     1      -0.551   9.991  20.836  0.00  0.00    +0.000 NA
ATOM      4  C   UNL     1      -0.305  11.322  20.659  0.00  0.00    +0.000 A 
ATOM      5  C   UNL     1       0.686  11.755  19.729  0.00  0.00    +0.000 A 
ATOM      6  N   UNL     1       1.475  10.864  19.044  0.00  0.00    +0.000 NA
ENDROOT
BRANCH   4   7
ATOM      7  C   UNL     1      -1.185  12.216  21.466  0.00  0.00    +0.000 A 
ATOM      8  C   UNL     1      -2.554  12.383  21.177  0.00  0.00    +0.000 A 
ATOM      9  C   UNL     1      -3.431  12.990  22.083  0.00  0.00    +0.000 A 
ATOM     10  C   UNL     1      -2.931  13.561  23.245  0.00  0.00    +0.000 A 
ATOM     11 CL   UNL     1      -4.008  14.280  24.376  0.00  0.00    +0.000 Cl
ATOM     12  C   UNL     1      -1.562  13.537  23.496  0.00  0.00    +0.000 A 
ATOM     13  C   UNL     1      -0.699  12.867  22.617  0.00  0.00    +0.000 A 
ENDBRANCH   4   7
BRANCH   5  14
ATOM     14  C   UNL     1       0.944  13.167  19.347  0.00  0.00    +0.000 A 
ATOM     15  C   UNL     1      -0.108  14.007  18.934  0.00  0.00    +0.000 A 
ATOM     16  C   UNL     1       0.134  15.325  18.526  0.00  0.00    +0.000 A 
ATOM     17  C   UNL     1       1.435  15.819  18.500  0.00  0.00    +0.000 A 
ATOM     18 CL   UNL     1       1.741  17.428  17.980  0.00  0.00    +0.000 Cl
ATOM     19  C   UNL     1       2.494  15.017  18.903  0.00  0.00    +0.000 A 
ATOM     20  C   UNL     1       2.238  13.726  19.372  0.00  0.00    +0.000 A 
ENDBRANCH   5  14
BRANCH   1  22
ATOM     21  O   UNL     1       2.404   8.771  17.377  0.00  0.00    +0.000 OA
ATOM     22  C   UNL     1       2.011   8.535  18.515  0.00  0.00    +0.000 C 
ATOM     23  N   UNL     1       2.269   7.338  19.170  0.00  0.00    +0.000 N 
ATOM     24  H   UNL     1       1.975   7.270  20.133  0.00  0.00    +0.000 HD
BRANCH  23  25
ATOM     25  C   UNL     1       3.049   6.287  18.514  0.00  0.00    +0.000 C 
ATOM     26  C   UNL     1       2.155   5.318  17.736  0.00  0.00    +0.000 C 
ATOM     27  C   UNL     1       1.370   4.384  18.652  0.00  0.00    +0.000 C 
ATOM     28  C   UNL     1       2.297   3.640  19.596  0.00  0.00    +0.000 C 
ATOM     29  F   UNL     1       3.070   2.787  18.874  0.00  0.00    +0.000 F 
ATOM     30  F   UNL     1       1.563   2.874  20.438  0.00  0.00    +0.000 F 
ATOM     31  C   UNL     1       3.189   4.567  20.401  0.00  0.00    +0.000 C 
ATOM     32  C   UNL     1       3.955   5.541  19.506  0.00  0.00    +0.000 C 
ENDBRANCH  23  25
ENDBRANCH   1  22
TORSDOF 4
ENDMDL
