MODEL 1
REMARK VINA RESULT:      -8.6      0.000      0.000
REMARK  Name = 
REMARK  9 active torsions:
REMARK  status: ('A' for Active; 'I' for Inactive)
REMARK    1  A    between atoms: C_1  and  C_2
REMARK    2  A    between atoms: C_2  and  C_3
REMARK    3  A    between atoms: C_2  and  N_4
REMARK    4  A    between atoms: C_10  and  C_11
REMARK    5  A    between atoms: CA_14  and  C_15
REMARK    6  A    between atoms: N_17  and  CA_18
REMARK    7  A    between atoms: CA_18  and  C_19
REMARK    8  A    between atoms: CA_18  and  C_21
REMARK    9  A    between atoms: C_19  and  O_20
REMARK                            x       y       z     vdW  Elec       q    Type
REMARK                         _______ _______ _______ _____ _____    ______ ____
ROOT
ATOM      1  C   UNL     1       7.047   6.464  17.948  0.00  0.00    +0.000 A 
ATOM      2  C   UNL     1       7.955   6.365  18.985  0.00  0.00    +0.000 A 
ATOM      3  N   UNL     1       8.668   7.532  19.058  0.00  0.00    +0.000 N 
ATOM      4  CA  UNL     1       8.161   8.456  18.170  0.00  0.00    +0.000 A 
ATOM      5  C   UNL     1       7.267   7.758  17.367  0.00  0.00    +0.000 A 
ATOM      6  H   UNL     1       9.372   7.754  19.754  0.00  0.00    +0.000 HD
ENDROOT
BRANCH   1  13
ATOM      7  N   UNL     1       3.106   4.567  19.614  0.00  0.00    +0.000 N 
ATOM      8  C   UNL     1       4.038   4.561  18.588  0.00  0.00    +0.000 A 
ATOM      9  N   UNL     1       3.947   3.666  17.598  0.00  0.00    +0.000 NA
ATOM     10  C   UNL     1       4.871   3.743  16.621  0.00  0.00    +0.000 A 
ATOM     11  C   UNL     1       5.902   4.655  16.588  0.00  0.00    +0.000 A 
ATOM     12 CL   UNL     1       6.962   4.626  15.237  0.00  0.00    +0.000 Cl
ATOM     13  C   UNL     1       5.954   5.513  17.673  0.00  0.00    +0.000 A 
ATOM     14  N   UNL     1       5.016   5.475  18.663  0.00  0.00    +0.000 NA
ATOM     15  H   UNL     1       3.532   5.079  20.379  0.00  0.00    +0.000 HD
BRANCH   7  17
ATOM     16  C   UNL     1       2.442   3.163  21.491  0.00  0.00    +0.000 C 
ATOM     17  C   UNL     1       2.471   3.295  19.965  0.00  0.00    +0.000 C 
ATOM     18  C   UNL     1       1.034   3.233  19.441  0.00  0.00    +0.000 C 
ENDBRANCH   7  17
ENDBRANCH   1  13
BRANCH   4  19
ATOM     19  C   UNL     1       8.552   9.850  18.244  0.00  0.00    +0.000 C 
ATOM     20  O   UNL     1       8.114  10.687  17.465  0.00  0.00    +0.000 OA
ATOM     21  N   UNL     1       9.488  10.162  19.200  0.00  0.00    +0.000 N 
ATOM     22  H   UNL     1       9.883   9.427  19.766  0.00  0.00    +0.000 HD
BRANCH  21  23
ATOM     23  CA  UNL     1      10.072  11.496  19.310  0.00  0.00    +0.000 C 
BRANCH  23  24
ATOM     24  C   UNL     1       9.644  12.138  20.622  0.00  0.00    +0.000 A 
ATOM     25  C   UNL     1       8.839  11.467  21.558  0.00  0.00    +0.000 A 
ATOM     26  C   UNL     1       8.446  12.085  22.747  0.00  0.00    +0.000 A 
ATOM     27  C   UNL     1       8.842  13.394  23.015  0.00  0.00    +0.000 A 
ATOM     28  C   UNL     1       9.628  14.076  22.091  0.00  0.00    +0.000 A 
ATOM     29 CL   UNL     1      10.110  15.696  22.415  0.00  0.00    +0.000 Cl
ATOM     30  C   UNL     1      10.028  13.460  20.904  0.00  0.00    +0.000 A 
ENDBRANCH  23  24
BRANCH  23  31
ATOM     31  C   UNL     1      11.608  11.505  19.082  0.00  0.00    +0.000 C 
BRANCH  31  32
ATOM     32  O   UNL     1      11.966  11.460  17.699  0.00  0.00    +0.000 OA
ATOM     33  H   UNL     1      12.352  12.322  17.468  0.00  0.00    +0.000 HD
ENDBRANCH  31  32
ENDBRANCH  23  31
ENDBRANCH  21  23
ENDBRANCH   4  19
TORSDOF 7
ENDMDL
MODEL 2
REMARK VINA RESULT:      -8.6      0.985      1.325
REMARK  Name = 
REMARK  9 active torsions:
REMARK  status: ('A' for Active; 'I' for Inactive)
REMARK    1  A    between atoms: C_1  and  C_2
REMARK    2  A    between atoms: C_2  and  C_3
REMARK    3  A    between atoms: C_2  and  N_4
REMARK    4  A    between atoms: C_10  and  C_11
REMARK    5  A    between atoms: CA_14  and  C_15
REMARK    6  A    between atoms: N_17  and  CA_18
REMARK    7  A    between atoms: CA_18  and  C_19
REMARK    8  A    between atoms: CA_18  and  C_21
REMARK    9  A    between atoms: C_19  and  O_20
REMARK                            x       y       z     vdW  Elec       q    Type
REMARK                         _______ _______ _______ _____ _____    ______ ____
ROOT
ATOM      1  C   UNL     1       7.083   6.560  17.930  0.00  0.00    +0.000 A 
ATOM      2  C   UNL     1       7.943   6.481  19.008  0.00  0.00    +0.000 A 
ATOM      3  N   UNL     1       8.666   7.642  19.080  0.00  0.00    +0.000 N 
ATOM      4  CA  UNL     1       8.209   8.546  18.145  0.00  0.00    +0.000 A 
ATOM      5  C   UNL     1       7.344   7.835  17.324  0.00  0.00    +0.000 A 
ATOM      6  H   UNL     1       9.341   7.876  19.800  0.00  0.00    +0.000 HD
ENDROOT
BRANCH   1  13
ATOM      7  N   UNL     1       3.119   4.654  19.530  0.00  0.00    +0.000 N 
ATOM      8  C   UNL     1       4.064   4.656  18.516  0.00  0.00    +0.000 A 
ATOM      9  N   UNL     1       3.984   3.770  17.517  0.00  0.00    +0.000 NA
ATOM     10  C   UNL     1       4.919   3.855  16.551  0.00  0.00    +0.000 A 
ATOM     11  C   UNL     1       5.952   4.766  16.539  0.00  0.00    +0.000 A 
ATOM     12 CL   UNL     1       7.029   4.747  15.200  0.00  0.00    +0.000 Cl
ATOM     13  C   UNL     1       5.992   5.614  17.633  0.00  0.00    +0.000 A 
ATOM     14  N   UNL     1       5.042   5.568  18.611  0.00  0.00    +0.000 NA
ATOM     15  H   UNL     1       3.537   5.158  20.305  0.00  0.00    +0.000 HD
BRANCH   7  17
ATOM     16  C   UNL     1       2.906   2.965  21.273  0.00  0.00    +0.000 C 
ATOM     17  C   UNL     1       2.479   3.380  19.862  0.00  0.00    +0.000 C 
ATOM     18  C   UNL     1       0.953   3.506  19.830  0.00  0.00    +0.000 C 
ENDBRANCH   7  17
ENDBRANCH   1  13
BRANCH   4  19
ATOM     19  C   UNL     1       8.613   9.937  18.198  0.00  0.00    +0.000 C 
ATOM     20  O   UNL     1       8.121  10.782  17.462  0.00  0.00    +0.000 OA
ATOM     21  N   UNL     1       9.623  10.237  19.080  0.00  0.00    +0.000 N 
ATOM     22  H   UNL     1      10.057   9.496  19.608  0.00  0.00    +0.000 HD
BRANCH  21  23
ATOM     23  CA  UNL     1      10.222  11.567  19.153  0.00  0.00    +0.000 C 
BRANCH  23  24
ATOM     24  C   UNL     1       9.723  12.288  20.397  0.00  0.00    +0.000 A 
ATOM     25  C   UNL     1       9.888  13.672  20.578  0.00  0.00    +0.000 A 
ATOM     26  C   UNL     1       9.436  14.307  21.737  0.00  0.00    +0.000 A 
ATOM     27  C   UNL     1       8.821  13.565  22.743  0.00  0.00    +0.000 A 
ATOM     28  C   UNL     1       8.662  12.191  22.583  0.00  0.00    +0.000 A 
ATOM     29 CL   UNL     1       7.912  11.270  23.828  0.00  0.00    +0.000 Cl
ATOM     30  C   UNL     1       9.108  11.553  21.424  0.00  0.00    +0.000 A 
ENDBRANCH  23  24
BRANCH  23  31
ATOM     31  C   UNL     1      11.769  11.542  19.023  0.00  0.00    +0.000 C 
BRANCH  31  32
ATOM     32  O   UNL     1      12.216  11.620  17.667  0.00  0.00    +0.000 OA
ATOM     33  H   UNL     1      13.170  11.802  17.683  0.00  0.00    +0.000 HD
ENDBRANCH  31  32
ENDBRANCH  23  31
ENDBRANCH  21  23
ENDBRANCH   4  19
TORSDOF 7
ENDMDL
MODEL 3
REMARK VINA RESULT:      -7.9      3.075      8.843
REMARK  Name = 
REMARK  9 active torsions:
REMARK  status: ('A' for Active; 'I' for Inactive)
REMARK    1  A    between atoms: C_1  and  C_2
REMARK    2  A    between atoms: C_2  and  C_3
REMARK    3  A    between atoms: C_2  and  N_4
REMARK    4  A    between atoms: C_10  and  C_11
REMARK    5  A    between atoms: CA_14  and  C_15
REMARK    6  A    between atoms: N_17  and  CA_18
REMARK    7  A    between atoms: CA_18  and  C_19
REMARK    8  A    between atoms: CA_18  and  C_21
REMARK    9  A    between atoms: C_19  and  O_20
REMARK                            x       y       z     vdW  Elec       q    Type
REMARK                         _______ _______ _______ _____ _____    ______ ____
ROOT
ATOM      1  C   UNL     1       8.747   9.199  18.724  0.00  0.00    +0.000 A 
ATOM      2  C   UNL     1       7.962   9.300  17.591  0.00  0.00    +0.000 A 
ATOM      3  N   UNL     1       7.486   8.055  17.274  0.00  0.00    +0.000 N 
ATOM      4  CA  UNL     1       7.834   7.149  18.253  0.00  0.00    +0.000 A 
ATOM      5  C   UNL     1       8.748   7.806  19.068  0.00  0.00    +0.000 A 
ATOM      6  H   UNL     1       6.848   7.840  16.516  0.00  0.00    +0.000 HD
ENDROOT
BRANCH   1  13
ATOM      7  N   UNL     1       8.617  11.387  22.860  0.00  0.00    +0.000 N 
ATOM      8  C   UNL     1       9.108  11.410  21.564  0.00  0.00    +0.000 A 
ATOM      9  N   UNL     1       9.832  12.450  21.135  0.00  0.00    +0.000 NA
ATOM     10  C   UNL     1      10.302  12.386  19.874  0.00  0.00    +0.000 A 
ATOM     11  C   UNL     1      10.068  11.346  19.003  0.00  0.00    +0.000 A 
ATOM     12 CL   UNL     1      10.784  11.423  17.443  0.00  0.00    +0.000 Cl
ATOM     13  C   UNL     1       9.270  10.334  19.507  0.00  0.00    +0.000 A 
ATOM     14  N   UNL     1       8.803  10.359  20.789  0.00  0.00    +0.000 NA
ATOM     15  H   UNL     1       7.865  10.705  22.863  0.00  0.00    +0.000 HD
BRANCH   7  17
ATOM     16  C   UNL     1       6.873  13.054  23.200  0.00  0.00    +0.000 C 
ATOM     17  C   UNL     1       8.325  12.670  23.501  0.00  0.00    +0.000 C 
ATOM     18  C   UNL     1       8.502  12.580  25.019  0.00  0.00    +0.000 C 
ENDBRANCH   7  17
ENDBRANCH   1  13
BRANCH   4  19
ATOM     19  C   UNL     1       7.224   5.835  18.299  0.00  0.00    +0.000 C 
ATOM     20  O   UNL     1       7.894   4.810  18.294  0.00  0.00    +0.000 OA
ATOM     21  N   UNL     1       5.851   5.809  18.288  0.00  0.00    +0.000 N 
ATOM     22  H   UNL     1       5.338   6.674  18.209  0.00  0.00    +0.000 HD
BRANCH  21  23
ATOM     23  CA  UNL     1       5.097   4.560  18.203  0.00  0.00    +0.000 C 
BRANCH  23  24
ATOM     24  C   UNL     1       3.836   4.662  19.048  0.00  0.00    +0.000 A 
ATOM     25  C   UNL     1       3.108   3.528  19.448  0.00  0.00    +0.000 A 
ATOM     26  C   UNL     1       1.944   3.650  20.210  0.00  0.00    +0.000 A 
ATOM     27  C   UNL     1       1.480   4.911  20.576  0.00  0.00    +0.000 A 
ATOM     28  C   UNL     1       2.183   6.044  20.176  0.00  0.00    +0.000 A 
ATOM     29 CL   UNL     1       1.606   7.605  20.617  0.00  0.00    +0.000 Cl
ATOM     30  C   UNL     1       3.350   5.927  19.419  0.00  0.00    +0.000 A 
ENDBRANCH  23  24
BRANCH  23  31
ATOM     31  C   UNL     1       4.834   4.111  16.739  0.00  0.00    +0.000 C 
BRANCH  31  32
ATOM     32  O   UNL     1       5.913   3.354  16.186  0.00  0.00    +0.000 OA
ATOM     33  H   UNL     1       6.308   3.885  15.474  0.00  0.00    +0.000 HD
ENDBRANCH  31  32
ENDBRANCH  23  31
ENDBRANCH  21  23
ENDBRANCH   4  19
TORSDOF 7
ENDMDL
MODEL 4
REMARK VINA RESULT:      -7.9      3.108      9.111
REMARK  Name = 
REMARK  9 active torsions:
REMARK  status: ('A' for Active; 'I' for Inactive)
REMARK    1  A    between atoms: C_1  and  C_2
REMARK    2  A    between atoms: C_2  and  C_3
REMARK    3  A    between atoms: C_2  and  N_4
REMARK    4  A    between atoms: C_10  and  C_11
REMARK    5  A    between atoms: CA_14  and  C_15
REMARK    6  A    between atoms: N_17  and  CA_18
REMARK    7  A    between atoms: CA_18  and  C_19
REMARK    8  A    between atoms: CA_18  and  C_21
REMARK    9  A    between atoms: C_19  and  O_20
REMARK                            x       y       z     vdW  Elec       q    Type
REMARK                         _______ _______ _______ _____ _____    ______ ____
ROOT
ATOM      1  C   UNL     1       8.827   9.289  18.712  0.00  0.00    +0.000 A 
ATOM      2  C   UNL     1       8.041   9.381  17.579  0.00  0.00    +0.000 A 
ATOM      3  N   UNL     1       7.536   8.140  17.293  0.00  0.00    +0.000 N 
ATOM      4  CA  UNL     1       7.866   7.250  18.292  0.00  0.00    +0.000 A 
ATOM      5  C   UNL     1       8.796   7.904  19.089  0.00  0.00    +0.000 A 
ATOM      6  H   UNL     1       6.891   7.922  16.541  0.00  0.00    +0.000 HD
ENDROOT
BRANCH   1  13
ATOM      7  N   UNL     1       8.760  11.575  22.796  0.00  0.00    +0.000 N 
ATOM      8  C   UNL     1       9.247  11.557  21.498  0.00  0.00    +0.000 A 
ATOM      9  N   UNL     1       9.994  12.569  21.043  0.00  0.00    +0.000 NA
ATOM     10  C   UNL     1      10.459  12.465  19.783  0.00  0.00    +0.000 A 
ATOM     11  C   UNL     1      10.198  11.410  18.938  0.00  0.00    +0.000 A 
ATOM     12 CL   UNL     1      10.912  11.434  17.374  0.00  0.00    +0.000 Cl
ATOM     13  C   UNL     1       9.378  10.429  19.467  0.00  0.00    +0.000 A 
ATOM     14  N   UNL     1       8.916  10.495  20.750  0.00  0.00    +0.000 NA
ATOM     15  H   UNL     1       7.993  10.912  22.817  0.00  0.00    +0.000 HD
BRANCH   7  17
ATOM     16  C   UNL     1       7.178  13.428  22.860  0.00  0.00    +0.000 C 
ATOM     17  C   UNL     1       8.500  12.880  23.407  0.00  0.00    +0.000 C 
ATOM     18  C   UNL     1       8.388  12.762  24.929  0.00  0.00    +0.000 C 
ENDBRANCH   7  17
ENDBRANCH   1  13
BRANCH   4  19
ATOM     19  C   UNL     1       7.225   5.952  18.371  0.00  0.00    +0.000 C 
ATOM     20  O   UNL     1       7.868   4.922  18.529  0.00  0.00    +0.000 OA
ATOM     21  N   UNL     1       5.862   5.942  18.198  0.00  0.00    +0.000 N 
ATOM     22  H   UNL     1       5.383   6.804  17.989  0.00  0.00    +0.000 HD
BRANCH  21  23
ATOM     23  CA  UNL     1       5.097   4.700  18.124  0.00  0.00    +0.000 C 
BRANCH  23  24
ATOM     24  C   UNL     1       3.871   4.798  19.020  0.00  0.00    +0.000 A 
ATOM     25  C   UNL     1       3.116   5.979  19.131  0.00  0.00    +0.000 A 
ATOM     26  C   UNL     1       2.004   6.048  19.973  0.00  0.00    +0.000 A 
ATOM     27  C   UNL     1       1.634   4.939  20.730  0.00  0.00    +0.000 A 
ATOM     28  C   UNL     1       2.380   3.767  20.640  0.00  0.00    +0.000 A 
ATOM     29 CL   UNL     1       1.931   2.398  21.583  0.00  0.00    +0.000 Cl
ATOM     30  C   UNL     1       3.489   3.692  19.796  0.00  0.00    +0.000 A 
ENDBRANCH  23  24
BRANCH  23  31
ATOM     31  C   UNL     1       4.773   4.274  16.666  0.00  0.00    +0.000 C 
BRANCH  31  32
ATOM     32  O   UNL     1       5.658   3.266  16.171  0.00  0.00    +0.000 OA
ATOM     33  H   UNL     1       6.512   3.691  15.987  0.00  0.00    +0.000 HD
ENDBRANCH  31  32
ENDBRANCH  23  31
ENDBRANCH  21  23
ENDBRANCH   4  19
TORSDOF 7
ENDMDL
MODEL 5
REMARK VINA RESULT:      -7.8      3.000      8.989
REMARK  Name = 
REMARK  9 active torsions:
REMARK  status: ('A' for Active; 'I' for Inactive)
REMARK    1  A    between atoms: C_1  and  C_2
REMARK    2  A    between atoms: C_2  and  C_3
REMARK    3  A    between atoms: C_2  and  N_4
REMARK    4  A    between atoms: C_10  and  C_11
REMARK    5  A    between atoms: CA_14  and  C_15
REMARK    6  A    between atoms: N_17  and  CA_18
REMARK    7  A    between atoms: CA_18  and  C_19
REMARK    8  A    between atoms: CA_18  and  C_21
REMARK    9  A    between atoms: C_19  and  O_20
REMARK                            x       y       z     vdW  Elec       q    Type
REMARK                         _______ _______ _______ _____ _____    ______ ____
ROOT
ATOM      1  C   UNL     1       8.890   9.613  18.781  0.00  0.00    +0.000 A 
ATOM      2  C   UNL     1       8.066   9.773  17.682  0.00  0.00    +0.000 A 
ATOM      3  N   UNL     1       7.612   8.542  17.290  0.00  0.00    +0.000 N 
ATOM      4  CA  UNL     1       8.015   7.577  18.188  0.00  0.00    +0.000 A 
ATOM      5  C   UNL     1       8.937   8.198  19.021  0.00  0.00    +0.000 A 
ATOM      6  H   UNL     1       6.956   8.365  16.537  0.00  0.00    +0.000 HD
ENDROOT
BRANCH   1  13
ATOM      7  N   UNL     1       8.681  11.610  23.008  0.00  0.00    +0.000 N 
ATOM      8  C   UNL     1       9.207  11.685  21.728  0.00  0.00    +0.000 A 
ATOM      9  N   UNL     1       9.958  12.731  21.367  0.00  0.00    +0.000 NA
ATOM     10  C   UNL     1      10.460  12.718  20.117  0.00  0.00    +0.000 A 
ATOM     11  C   UNL     1      10.234  11.723  19.193  0.00  0.00    +0.000 A 
ATOM     12 CL   UNL     1      10.993  11.860  17.658  0.00  0.00    +0.000 Cl
ATOM     13  C   UNL     1       9.408  10.701  19.629  0.00  0.00    +0.000 A 
ATOM     14  N   UNL     1       8.908  10.676  20.898  0.00  0.00    +0.000 NA
ATOM     15  H   UNL     1       7.920  10.941  22.961  0.00  0.00    +0.000 HD
BRANCH   7  17
ATOM     16  C   UNL     1       6.993  13.343  23.296  0.00  0.00    +0.000 C 
ATOM     17  C   UNL     1       8.391  12.867  23.701  0.00  0.00    +0.000 C 
ATOM     18  C   UNL     1       8.424  12.679  25.220  0.00  0.00    +0.000 C 
ENDBRANCH   7  17
ENDBRANCH   1  13
BRANCH   4  19
ATOM     19  C   UNL     1       7.440   6.247  18.157  0.00  0.00    +0.000 C 
ATOM     20  O   UNL     1       7.784   5.375  18.944  0.00  0.00    +0.000 OA
ATOM     21  N   UNL     1       6.532   6.008  17.154  0.00  0.00    +0.000 N 
ATOM     22  H   UNL     1       6.338   6.729  16.477  0.00  0.00    +0.000 HD
BRANCH  21  23
ATOM     23  CA  UNL     1       5.966   4.682  16.918  0.00  0.00    +0.000 C 
BRANCH  23  24
ATOM     24  C   UNL     1       4.529   4.640  17.417  0.00  0.00    +0.000 A 
ATOM     25  C   UNL     1       3.636   3.620  17.047  0.00  0.00    +0.000 A 
ATOM     26  C   UNL     1       2.317   3.614  17.505  0.00  0.00    +0.000 A 
ATOM     27  C   UNL     1       1.862   4.638  18.333  0.00  0.00    +0.000 A 
ATOM     28  C   UNL     1       2.732   5.663  18.697  0.00  0.00    +0.000 A 
ATOM     29 CL   UNL     1       2.170   6.935  19.712  0.00  0.00    +0.000 Cl
ATOM     30  C   UNL     1       4.053   5.670  18.246  0.00  0.00    +0.000 A 
ENDBRANCH  23  24
BRANCH  23  31
ATOM     31  C   UNL     1       6.132   4.206  15.449  0.00  0.00    +0.000 C 
BRANCH  31  32
ATOM     32  O   UNL     1       6.693   5.208  14.599  0.00  0.00    +0.000 OA
ATOM     33  H   UNL     1       6.339   5.066  13.705  0.00  0.00    +0.000 HD
ENDBRANCH  31  32
ENDBRANCH  23  31
ENDBRANCH  21  23
ENDBRANCH   4  19
TORSDOF 7
ENDMDL
MODEL 6
REMARK VINA RESULT:      -7.8      2.973      9.276
REMARK  Name = 
REMARK  9 active torsions:
REMARK  status: ('A' for Active; 'I' for Inactive)
REMARK    1  A    between atoms: C_1  and  C_2
REMARK    2  A    between atoms: C_2  and  C_3
REMARK    3  A    between atoms: C_2  and  N_4
REMARK    4  A    between atoms: C_10  and  C_11
REMARK    5  A    between atoms: CA_14  and  C_15
REMARK    6  A    between atoms: N_17  and  CA_18
REMARK    7  A    between atoms: CA_18  and  C_19
REMARK    8  A    between atoms: CA_18  and  C_21
REMARK    9  A    between atoms: C_19  and  O_20
REMARK                            x       y       z     vdW  Elec       q    Type
REMARK                         _______ _______ _______ _____ _____    ______ ____
ROOT
ATOM      1  C   UNL     1       8.887   9.730  18.805  0.00  0.00    +0.000 A 
ATOM      2  C   UNL     1       8.113  10.012  17.695  0.00  0.00    +0.000 A 
ATOM      3  N   UNL     1       7.627   8.836  17.188  0.00  0.00    +0.000 N 
ATOM      4  CA  UNL     1       7.958   7.787  18.019  0.00  0.00    +0.000 A 
ATOM      5  C   UNL     1       8.870   8.300  18.931  0.00  0.00    +0.000 A 
ATOM      6  H   UNL     1       6.994   8.747  16.401  0.00  0.00    +0.000 HD
ENDROOT
BRANCH   1  13
ATOM      7  N   UNL     1       8.437  11.546  23.095  0.00  0.00    +0.000 N 
ATOM      8  C   UNL     1       9.094  11.628  21.877  0.00  0.00    +0.000 A 
ATOM      9  N   UNL     1       9.969  12.613  21.647  0.00  0.00    +0.000 NA
ATOM     10  C   UNL     1      10.592  12.608  20.452  0.00  0.00    +0.000 A 
ATOM     11  C   UNL     1      10.370  11.681  19.458  0.00  0.00    +0.000 A 
ATOM     12 CL   UNL     1      11.289  11.813  18.012  0.00  0.00    +0.000 Cl
ATOM     13  C   UNL     1       9.415  10.725  19.757  0.00  0.00    +0.000 A 
ATOM     14  N   UNL     1       8.789  10.690  20.969  0.00  0.00    +0.000 NA
ATOM     15  H   UNL     1       7.627  10.957  22.939  0.00  0.00    +0.000 HD
BRANCH   7  17
ATOM     16  C   UNL     1       6.748  13.235  23.579  0.00  0.00    +0.000 C 
ATOM     17  C   UNL     1       8.195  12.793  23.824  0.00  0.00    +0.000 C 
ATOM     18  C   UNL     1       8.400  12.601  25.328  0.00  0.00    +0.000 C 
ENDBRANCH   7  17
ENDBRANCH   1  13
BRANCH   4  19
ATOM     19  C   UNL     1       7.333   6.488  17.859  0.00  0.00    +0.000 C 
ATOM     20  O   UNL     1       7.627   5.537  18.573  0.00  0.00    +0.000 OA
ATOM     21  N   UNL     1       6.440   6.374  16.822  0.00  0.00    +0.000 N 
ATOM     22  H   UNL     1       6.289   7.159  16.208  0.00  0.00    +0.000 HD
BRANCH  21  23
ATOM     23  CA  UNL     1       5.829   5.098  16.459  0.00  0.00    +0.000 C 
BRANCH  23  24
ATOM     24  C   UNL     1       4.441   4.998  17.076  0.00  0.00    +0.000 A 
ATOM     25  C   UNL     1       3.731   6.130  17.512  0.00  0.00    +0.000 A 
ATOM     26  C   UNL     1       2.465   6.010  18.089  0.00  0.00    +0.000 A 
ATOM     27  C   UNL     1       1.891   4.751  18.253  0.00  0.00    +0.000 A 
ATOM     28  C   UNL     1       2.588   3.620  17.837  0.00  0.00    +0.000 A 
ATOM     29 CL   UNL     1       1.886   2.063  18.048  0.00  0.00    +0.000 Cl
ATOM     30  C   UNL     1       3.851   3.736  17.255  0.00  0.00    +0.000 A 
ENDBRANCH  23  24
BRANCH  23  31
ATOM     31  C   UNL     1       5.854   4.828  14.930  0.00  0.00    +0.000 C 
BRANCH  31  32
ATOM     32  O   UNL     1       6.286   3.504  14.605  0.00  0.00    +0.000 OA
ATOM     33  H   UNL     1       5.641   2.885  14.984  0.00  0.00    +0.000 HD
ENDBRANCH  31  32
ENDBRANCH  23  31
ENDBRANCH  21  23
ENDBRANCH   4  19
TORSDOF 7
ENDMDL
MODEL 7
REMARK VINA RESULT:      -7.5      6.464      9.717
REMARK  Name = 
REMARK  9 active torsions:
REMARK  status: ('A' for Active; 'I' for Inactive)
REMARK    1  A    between atoms: C_1  and  C_2
REMARK    2  A    between atoms: C_2  and  C_3
REMARK    3  A    between atoms: C_2  and  N_4
REMARK    4  A    between atoms: C_10  and  C_11
REMARK    5  A    between atoms: CA_14  and  C_15
REMARK    6  A    between atoms: N_17  and  CA_18
REMARK    7  A    between atoms: CA_18  and  C_19
REMARK    8  A    between atoms: CA_18  and  C_21
REMARK    9  A    between atoms: C_19  and  O_20
REMARK                            x       y       z     vdW  Elec       q    Type
REMARK                         _______ _______ _______ _____ _____    ______ ____
ROOT
ATOM      1  C   UNL     1       1.093   9.704  18.880  0.00  0.00    +0.000 A 
ATOM      2  C   UNL     1       1.970   9.831  17.820  0.00  0.00    +0.000 A 
ATOM      3  N   UNL     1       2.730   8.694  17.739  0.00  0.00    +0.000 N 
ATOM      4  CA  UNL     1       2.283   7.758  18.647  0.00  0.00    +0.000 A 
ATOM      5  C   UNL     1       1.382   8.426  19.466  0.00  0.00    +0.000 A 
ATOM      6  H   UNL     1       3.424   8.495  17.028  0.00  0.00    +0.000 HD
ENDROOT
BRANCH   1  13
ATOM      7  N   UNL     1      -0.592  12.870  21.888  0.00  0.00    +0.000 N 
ATOM      8  C   UNL     1      -0.840  12.128  20.744  0.00  0.00    +0.000 A 
ATOM      9  N   UNL     1      -2.035  12.189  20.145  0.00  0.00    +0.000 NA
ATOM     10  C   UNL     1      -2.191  11.464  19.020  0.00  0.00    +0.000 A 
ATOM     11  C   UNL     1      -1.221  10.658  18.469  0.00  0.00    +0.000 A 
ATOM     12 CL   UNL     1      -1.591   9.837  17.005  0.00  0.00    +0.000 Cl
ATOM     13  C   UNL     1      -0.031  10.611  19.175  0.00  0.00    +0.000 A 
ATOM     14  N   UNL     1       0.163  11.356  20.302  0.00  0.00    +0.000 NA
ATOM     15  H   UNL     1       0.214  12.442  22.332  0.00  0.00    +0.000 HD
BRANCH   7  17
ATOM     16  C   UNL     1      -2.161  11.883  23.469  0.00  0.00    +0.000 C 
ATOM     17  C   UNL     1      -1.725  13.171  22.764  0.00  0.00    +0.000 C 
ATOM     18  C   UNL     1      -1.341  14.205  23.826  0.00  0.00    +0.000 C 
ENDBRANCH   7  17
ENDBRANCH   1  13
BRANCH   4  19
ATOM     19  C   UNL     1       2.731   6.381  18.574  0.00  0.00    +0.000 C 
ATOM     20  O   UNL     1       2.114   5.471  19.114  0.00  0.00    +0.000 OA
ATOM     21  N   UNL     1       3.919   6.169  17.918  0.00  0.00    +0.000 N 
ATOM     22  H   UNL     1       4.436   6.956  17.560  0.00  0.00    +0.000 HD
BRANCH  21  23
ATOM     23  CA  UNL     1       4.558   4.856  17.874  0.00  0.00    +0.000 C 
BRANCH  23  24
ATOM     24  C   UNL     1       5.442   4.756  16.639  0.00  0.00    +0.000 A 
ATOM     25  C   UNL     1       6.792   5.145  16.649  0.00  0.00    +0.000 A 
ATOM     26  C   UNL     1       7.577   5.058  15.497  0.00  0.00    +0.000 A 
ATOM     27  C   UNL     1       7.020   4.592  14.309  0.00  0.00    +0.000 A 
ATOM     28  C   UNL     1       5.680   4.215  14.280  0.00  0.00    +0.000 A 
ATOM     29 CL   UNL     1       4.986   3.649  12.810  0.00  0.00    +0.000 Cl
ATOM     30  C   UNL     1       4.893   4.295  15.431  0.00  0.00    +0.000 A 
ENDBRANCH  23  24
BRANCH  23  31
ATOM     31  C   UNL     1       5.290   4.495  19.197  0.00  0.00    +0.000 C 
BRANCH  31  32
ATOM     32  O   UNL     1       5.267   3.094  19.481  0.00  0.00    +0.000 OA
ATOM     33  H   UNL     1       4.426   2.900  19.928  0.00  0.00    +0.000 HD
ENDBRANCH  31  32
ENDBRANCH  23  31
ENDBRANCH  21  23
ENDBRANCH   4  19
TORSDOF 7
ENDMDL
MODEL 8
REMARK VINA RESULT:      -7.5      6.117      9.743
REMARK  Name = 
REMARK  9 active torsions:
REMARK  status: ('A' for Active; 'I' for Inactive)
REMARK    1  A    between atoms: C_1  and  C_2
REMARK    2  A    between atoms: C_2  and  C_3
REMARK    3  A    between atoms: C_2  and  N_4
REMARK    4  A    between atoms: C_10  and  C_11
REMARK    5  A    between atoms: CA_14  and  C_15
REMARK    6  A    between atoms: N_17  and  CA_18
REMARK    7  A    between atoms: CA_18  and  C_19
REMARK    8  A    between atoms: CA_18  and  C_21
REMARK    9  A    between atoms: C_19  and  O_20
REMARK                            x       y       z     vdW  Elec       q    Type
REMARK                         _______ _______ _______ _____ _____    ______ ____
ROOT
ATOM      1  C   UNL     1       1.017   9.534  20.726  0.00  0.00    +0.000 A 
ATOM      2  C   UNL     1       1.373   8.704  21.772  0.00  0.00    +0.000 A 
ATOM      3  N   UNL     1       1.809   7.511  21.258  0.00  0.00    +0.000 N 
ATOM      4  CA  UNL     1       1.872   7.581  19.883  0.00  0.00    +0.000 A 
ATOM      5  C   UNL     1       1.234   8.765  19.534  0.00  0.00    +0.000 A 
ATOM      6  H   UNL     1       2.174   6.733  21.795  0.00  0.00    +0.000 HD
ENDROOT
BRANCH   1  13
ATOM      7  N   UNL     1       1.943  13.811  19.066  0.00  0.00    +0.000 N 
ATOM      8  C   UNL     1       1.255  13.073  20.016  0.00  0.00    +0.000 A 
ATOM      9  N   UNL     1       0.541  13.691  20.964  0.00  0.00    +0.000 NA
ATOM     10  C   UNL     1      -0.126  12.906  21.833  0.00  0.00    +0.000 A 
ATOM     11  C   UNL     1      -0.101  11.529  21.822  0.00  0.00    +0.000 A 
ATOM     12 CL   UNL     1      -1.049  10.697  22.989  0.00  0.00    +0.000 Cl
ATOM     13  C   UNL     1       0.700  10.969  20.842  0.00  0.00    +0.000 A 
ATOM     14  N   UNL     1       1.364  11.739  19.932  0.00  0.00    +0.000 NA
ATOM     15  H   UNL     1       2.639  13.186  18.674  0.00  0.00    +0.000 HD
BRANCH   7  17
ATOM     16  C   UNL     1       3.941  15.182  19.318  0.00  0.00    +0.000 C 
ATOM     17  C   UNL     1       2.415  15.143  19.448  0.00  0.00    +0.000 C 
ATOM     18  C   UNL     1       1.819  16.221  18.540  0.00  0.00    +0.000 C 
ENDBRANCH   7  17
ENDBRANCH   1  13
BRANCH   4  19
ATOM     19  C   UNL     1       2.561   6.559  19.119  0.00  0.00    +0.000 C 
ATOM     20  O   UNL     1       2.569   6.563  17.894  0.00  0.00    +0.000 OA
ATOM     21  N   UNL     1       3.148   5.555  19.849  0.00  0.00    +0.000 N 
ATOM     22  H   UNL     1       3.046   5.546  20.852  0.00  0.00    +0.000 HD
BRANCH  21  23
ATOM     23  CA  UNL     1       3.765   4.392  19.216  0.00  0.00    +0.000 C 
BRANCH  23  24
ATOM     24  C   UNL     1       5.114   4.782  18.628  0.00  0.00    +0.000 A 
ATOM     25  C   UNL     1       6.102   5.434  19.386  0.00  0.00    +0.000 A 
ATOM     26  C   UNL     1       7.325   5.796  18.818  0.00  0.00    +0.000 A 
ATOM     27  C   UNL     1       7.577   5.524  17.475  0.00  0.00    +0.000 A 
ATOM     28  C   UNL     1       6.602   4.891  16.709  0.00  0.00    +0.000 A 
ATOM     29 CL   UNL     1       6.907   4.563  15.047  0.00  0.00    +0.000 Cl
ATOM     30  C   UNL     1       5.380   4.523  17.274  0.00  0.00    +0.000 A 
ENDBRANCH  23  24
BRANCH  23  31
ATOM     31  C   UNL     1       3.826   3.155  20.153  0.00  0.00    +0.000 C 
BRANCH  31  32
ATOM     32  O   UNL     1       4.897   2.264  19.830  0.00  0.00    +0.000 OA
ATOM     33  H   UNL     1       4.708   1.883  18.957  0.00  0.00    +0.000 HD
ENDBRANCH  31  32
ENDBRANCH  23  31
ENDBRANCH  21  23
ENDBRANCH   4  19
TORSDOF 7
ENDMDL
MODEL 9
REMARK VINA RESULT:      -7.5      6.569      9.588
REMARK  Name = 
REMARK  9 active torsions:
REMARK  status: ('A' for Active; 'I' for Inactive)
REMARK    1  A    between atoms: C_1  and  C_2
REMARK    2  A    between atoms: C_2  and  C_3
REMARK    3  A    between atoms: C_2  and  N_4
REMARK    4  A    between atoms: C_10  and  C_11
REMARK    5  A    between atoms: CA_14  and  C_15
REMARK    6  A    between atoms: N_17  and  CA_18
REMARK    7  A    between atoms: CA_18  and  C_19
REMARK    8  A    between atoms: CA_18  and  C_21
REMARK    9  A    between atoms: C_19  and  O_20
REMARK                            x       y       z     vdW  Elec       q    Type
REMARK                         _______ _______ _______ _____ _____    ______ ____
ROOT
ATOM      1  C   UNL     1       1.059   9.555  20.668  0.00  0.00    +0.000 A 
ATOM      2  C   UNL     1       1.359   8.706  21.716  0.00  0.00    +0.000 A 
ATOM      3  N   UNL     1       1.792   7.511  21.203  0.00  0.00    +0.000 N 
ATOM      4  CA  UNL     1       1.909   7.596  19.833  0.00  0.00    +0.000 A 
ATOM      5  C   UNL     1       1.307   8.796  19.476  0.00  0.00    +0.000 A 
ATOM      6  H   UNL     1       2.121   6.719  21.744  0.00  0.00    +0.000 HD
ENDROOT
BRANCH   1  13
ATOM      7  N   UNL     1      -1.134  12.818  23.208  0.00  0.00    +0.000 N 
ATOM      8  C   UNL     1      -0.402  12.557  22.060  0.00  0.00    +0.000 A 
ATOM      9  N   UNL     1      -0.174  13.528  21.169  0.00  0.00    +0.000 NA
ATOM     10  C   UNL     1       0.572  13.207  20.095  0.00  0.00    +0.000 A 
ATOM     11  C   UNL     1       1.087  11.954  19.846  0.00  0.00    +0.000 A 
ATOM     12 CL   UNL     1       2.051  11.743  18.439  0.00  0.00    +0.000 Cl
ATOM     13  C   UNL     1       0.765  10.995  20.790  0.00  0.00    +0.000 A 
ATOM     14  N   UNL     1       0.034  11.299  21.902  0.00  0.00    +0.000 NA
ATOM     15  H   UNL     1      -1.447  11.917  23.553  0.00  0.00    +0.000 HD
BRANCH   7  17
ATOM     16  C   UNL     1      -3.520  13.254  23.446  0.00  0.00    +0.000 C 
ATOM     17  C   UNL     1      -2.150  13.870  23.143  0.00  0.00    +0.000 C 
ATOM     18  C   UNL     1      -1.870  14.970  24.171  0.00  0.00    +0.000 C 
ENDBRANCH   7  17
ENDBRANCH   1  13
BRANCH   4  19
ATOM     19  C   UNL     1       2.606   6.570  19.082  0.00  0.00    +0.000 C 
ATOM     20  O   UNL     1       2.643   6.576  17.858  0.00  0.00    +0.000 OA
ATOM     21  N   UNL     1       3.169   5.560  19.824  0.00  0.00    +0.000 N 
ATOM     22  H   UNL     1       3.045   5.550  20.824  0.00  0.00    +0.000 HD
BRANCH  21  23
ATOM     23  CA  UNL     1       3.792   4.394  19.203  0.00  0.00    +0.000 C 
BRANCH  23  24
ATOM     24  C   UNL     1       5.143   4.782  18.619  0.00  0.00    +0.000 A 
ATOM     25  C   UNL     1       6.126   5.441  19.377  0.00  0.00    +0.000 A 
ATOM     26  C   UNL     1       7.351   5.801  18.812  0.00  0.00    +0.000 A 
ATOM     27  C   UNL     1       7.610   5.520  17.472  0.00  0.00    +0.000 A 
ATOM     28  C   UNL     1       6.640   4.880  16.705  0.00  0.00    +0.000 A 
ATOM     29 CL   UNL     1       6.953   4.541  15.047  0.00  0.00    +0.000 Cl
ATOM     30  C   UNL     1       5.416   4.513  17.267  0.00  0.00    +0.000 A 
ENDBRANCH  23  24
BRANCH  23  31
ATOM     31  C   UNL     1       3.851   3.164  20.149  0.00  0.00    +0.000 C 
BRANCH  31  32
ATOM     32  O   UNL     1       4.882   2.239  19.797  0.00  0.00    +0.000 OA
ATOM     33  H   UNL     1       5.259   1.891  20.623  0.00  0.00    +0.000 HD
ENDBRANCH  31  32
ENDBRANCH  23  31
ENDBRANCH  21  23
ENDBRANCH   4  19
TORSDOF 7
ENDMDL
