MODEL 1
REMARK VINA RESULT:      -7.0      0.000      0.000
REMARK  Name = 
REMARK  8 active torsions:
REMARK  status: ('A' for Active; 'I' for Inactive)
REMARK    1  A    between atoms: C_1  and  C_2
REMARK    2  A    between atoms: C_6  and  C_7
REMARK    3  A    between atoms: C_7  and  C_8
REMARK    4  A    between atoms: C_7  and  S_12
REMARK    5  A    between atoms: C_8  and  N_9
REMARK    6  A    between atoms: S_12  and  C_13
REMARK    7  A    between atoms: C_13  and  C_14
REMARK    8  A    between atoms: C_14  and  N_15
REMARK                            x       y       z     vdW  Elec       q    Type
REMARK                         _______ _______ _______ _____ _____    ______ ____
ROOT
ATOM      1  C   UNL     1       2.550   8.651  18.124  0.00  0.00    +0.000 C 
ATOM      2  C   UNL     1       2.306   7.516  19.080  0.00  0.00    +0.000 C 
ATOM      3  O   UNL     1       1.574   7.584  20.062  0.00  0.00    +0.000 OA
ATOM      4  N   UNL     1       2.998   6.320  18.774  0.00  0.00    +0.000 N 
ATOM      5  C   UNL     1       3.820   6.131  17.682  0.00  0.00    +0.000 A 
ATOM      6  C   UNL     1       4.512   4.937  17.772  0.00  0.00    +0.000 A 
ATOM      7  C   UNL     1       3.988   4.292  18.948  0.00  0.00    +0.000 A 
ATOM      8  C   UNL     1       4.241   3.056  19.592  0.00  0.00    +0.000 A 
ATOM      9  C   UNL     1       3.440   2.643  20.668  0.00  0.00    +0.000 A 
ATOM     10  C   UNL     1       2.404   3.444  21.130  0.00  0.00    +0.000 A 
ATOM     11  C   UNL     1       2.180   4.702  20.568  0.00  0.00    +0.000 A 
ATOM     12  C   UNL     1       2.986   5.121  19.488  0.00  0.00    +0.000 A 
ENDROOT
BRANCH   6  13
ATOM     13  C   UNL     1       5.556   4.437  16.773  0.00  0.00    +0.000 C 
BRANCH  13  14
ATOM     14  C   UNL     1       5.529   5.283  15.490  0.00  0.00    +0.000 C 
BRANCH  14  15
ATOM     15  N   UNL     1       6.601   4.832  14.530  0.00  0.00    +0.000 N 
ATOM     16  O   UNL     1       7.566   5.582  14.367  0.00  0.00    +0.000 OA
ATOM     17  O   UNL     1       6.405   3.762  13.936  0.00  0.00    +0.000 OA
ENDBRANCH  14  15
ENDBRANCH  13  14
BRANCH  13  18
ATOM     18  S   UNL     1       7.278   4.541  17.486  0.00  0.00    +0.000 S 
BRANCH  18  19
ATOM     19  C   UNL     1       7.101   5.863  18.739  0.00  0.00    +0.000 C 
BRANCH  19  20
ATOM     20  C   UNL     1       7.929   7.086  18.304  0.00  0.00    +0.000 C 
BRANCH  20  21
ATOM     21  N   UNL     1       7.580   7.554  16.956  0.00  0.00    +0.000 NA
ATOM     22  H   UNL     1       8.423   7.959  16.541  0.00  0.00    +0.000 HD
ATOM     23  H   UNL     1       6.914   8.323  17.031  0.00  0.00    +0.000 HD
ENDBRANCH  20  21
ENDBRANCH  19  20
ENDBRANCH  18  19
ENDBRANCH  13  18
ENDBRANCH   6  13
TORSDOF 7
ENDMDL
MODEL 2
REMARK VINA RESULT:      -6.8      2.624      4.211
REMARK  Name = 
REMARK  8 active torsions:
REMARK  status: ('A' for Active; 'I' for Inactive)
REMARK    1  A    between atoms: C_1  and  C_2
REMARK    2  A    between atoms: C_6  and  C_7
REMARK    3  A    between atoms: C_7  and  C_8
REMARK    4  A    between atoms: C_7  and  S_12
REMARK    5  A    between atoms: C_8  and  N_9
REMARK    6  A    between atoms: S_12  and  C_13
REMARK    7  A    between atoms: C_13  and  C_14
REMARK    8  A    between atoms: C_14  and  N_15
REMARK                            x       y       z     vdW  Elec       q    Type
REMARK                         _______ _______ _______ _____ _____    ______ ____
ROOT
ATOM      1  C   UNL     1       3.608   1.248  18.422  0.00  0.00    +0.000 C 
ATOM      2  C   UNL     1       2.786   2.293  19.125  0.00  0.00    +0.000 C 
ATOM      3  O   UNL     1       1.755   2.058  19.748  0.00  0.00    +0.000 OA
ATOM      4  N   UNL     1       3.283   3.612  19.020  0.00  0.00    +0.000 N 
ATOM      5  C   UNL     1       4.444   3.979  18.368  0.00  0.00    +0.000 A 
ATOM      6  C   UNL     1       4.549   5.354  18.259  0.00  0.00    +0.000 A 
ATOM      7  C   UNL     1       3.429   5.872  19.002  0.00  0.00    +0.000 A 
ATOM      8  C   UNL     1       2.962   7.174  19.302  0.00  0.00    +0.000 A 
ATOM      9  C   UNL     1       1.894   7.354  20.195  0.00  0.00    +0.000 A 
ATOM     10  C   UNL     1       1.267   6.261  20.779  0.00  0.00    +0.000 A 
ATOM     11  C   UNL     1       1.652   4.962  20.443  0.00  0.00    +0.000 A 
ATOM     12  C   UNL     1       2.724   4.780  19.543  0.00  0.00    +0.000 A 
ENDROOT
BRANCH   6  13
ATOM     13  C   UNL     1       5.671   6.104  17.541  0.00  0.00    +0.000 C 
BRANCH  13  14
ATOM     14  C   UNL     1       7.026   5.425  17.790  0.00  0.00    +0.000 C 
BRANCH  14  15
ATOM     15  N   UNL     1       7.717   6.032  18.986  0.00  0.00    +0.000 N 
ATOM     16  O   UNL     1       7.558   5.473  20.074  0.00  0.00    +0.000 OA
ATOM     17  O   UNL     1       8.351   7.079  18.794  0.00  0.00    +0.000 OA
ENDBRANCH  14  15
ENDBRANCH  13  14
BRANCH  13  18
ATOM     18  S   UNL     1       5.385   6.144  15.697  0.00  0.00    +0.000 S 
BRANCH  18  19
ATOM     19  C   UNL     1       6.727   5.067  15.073  0.00  0.00    +0.000 C 
BRANCH  19  20
ATOM     20  C   UNL     1       6.132   3.716  14.640  0.00  0.00    +0.000 C 
BRANCH  20  21
ATOM     21  N   UNL     1       6.298   3.459  13.204  0.00  0.00    +0.000 NA
ATOM     22  H   UNL     1       5.369   3.282  12.811  0.00  0.00    +0.000 HD
ATOM     23  H   UNL     1       6.819   2.591  13.077  0.00  0.00    +0.000 HD
ENDBRANCH  20  21
ENDBRANCH  19  20
ENDBRANCH  18  19
ENDBRANCH  13  18
ENDBRANCH   6  13
TORSDOF 7
ENDMDL
MODEL 3
REMARK VINA RESULT:      -6.7      2.395      4.295
REMARK  Name = 
REMARK  8 active torsions:
REMARK  status: ('A' for Active; 'I' for Inactive)
REMARK    1  A    between atoms: C_1  and  C_2
REMARK    2  A    between atoms: C_6  and  C_7
REMARK    3  A    between atoms: C_7  and  C_8
REMARK    4  A    between atoms: C_7  and  S_12
REMARK    5  A    between atoms: C_8  and  N_9
REMARK    6  A    between atoms: S_12  and  C_13
REMARK    7  A    between atoms: C_13  and  C_14
REMARK    8  A    between atoms: C_14  and  N_15
REMARK                            x       y       z     vdW  Elec       q    Type
REMARK                         _______ _______ _______ _____ _____    ______ ____
ROOT
ATOM      1  C   UNL     1       3.570   1.421  18.586  0.00  0.00    +0.000 C 
ATOM      2  C   UNL     1       2.969   2.718  19.052  0.00  0.00    +0.000 C 
ATOM      3  O   UNL     1       2.072   2.806  19.885  0.00  0.00    +0.000 OA
ATOM      4  N   UNL     1       3.514   3.877  18.451  0.00  0.00    +0.000 N 
ATOM      5  C   UNL     1       4.541   3.891  17.529  0.00  0.00    +0.000 A 
ATOM      6  C   UNL     1       4.705   5.147  16.974  0.00  0.00    +0.000 A 
ATOM      7  C   UNL     1       3.789   5.993  17.695  0.00  0.00    +0.000 A 
ATOM      8  C   UNL     1       3.470   7.372  17.643  0.00  0.00    +0.000 A 
ATOM      9  C   UNL     1       2.615   7.936  18.602  0.00  0.00    +0.000 A 
ATOM     10  C   UNL     1       2.054   7.151  19.600  0.00  0.00    +0.000 A 
ATOM     11  C   UNL     1       2.285   5.775  19.632  0.00  0.00    +0.000 A 
ATOM     12  C   UNL     1       3.142   5.205  18.666  0.00  0.00    +0.000 A 
ENDROOT
BRANCH   6  13
ATOM     13  C   UNL     1       5.703   5.509  15.874  0.00  0.00    +0.000 C 
BRANCH  13  14
ATOM     14  C   UNL     1       7.140   5.497  16.418  0.00  0.00    +0.000 C 
BRANCH  14  15
ATOM     15  N   UNL     1       7.349   6.620  17.402  0.00  0.00    +0.000 N 
ATOM     16  O   UNL     1       7.245   7.772  16.975  0.00  0.00    +0.000 OA
ATOM     17  O   UNL     1       7.661   6.300  18.558  0.00  0.00    +0.000 OA
ENDBRANCH  14  15
ENDBRANCH  13  14
BRANCH  13  18
ATOM     18  S   UNL     1       5.620   4.294  14.459  0.00  0.00    +0.000 S 
BRANCH  18  19
ATOM     19  C   UNL     1       7.122   4.710  13.501  0.00  0.00    +0.000 C 
BRANCH  19  20
ATOM     20  C   UNL     1       7.061   4.008  12.133  0.00  0.00    +0.000 C 
BRANCH  20  21
ATOM     21  N   UNL     1       6.324   2.739  12.181  0.00  0.00    +0.000 NA
ATOM     22  H   UNL     1       5.351   2.954  12.414  0.00  0.00    +0.000 HD
ATOM     23  H   UNL     1       6.675   2.178  12.958  0.00  0.00    +0.000 HD
ENDBRANCH  20  21
ENDBRANCH  19  20
ENDBRANCH  18  19
ENDBRANCH  13  18
ENDBRANCH   6  13
TORSDOF 7
ENDMDL
MODEL 4
REMARK VINA RESULT:      -6.7      2.540      5.877
REMARK  Name = 
REMARK  8 active torsions:
REMARK  status: ('A' for Active; 'I' for Inactive)
REMARK    1  A    between atoms: C_1  and  C_2
REMARK    2  A    between atoms: C_6  and  C_7
REMARK    3  A    between atoms: C_7  and  C_8
REMARK    4  A    between atoms: C_7  and  S_12
REMARK    5  A    between atoms: C_8  and  N_9
REMARK    6  A    between atoms: S_12  and  C_13
REMARK    7  A    between atoms: C_13  and  C_14
REMARK    8  A    between atoms: C_14  and  N_15
REMARK                            x       y       z     vdW  Elec       q    Type
REMARK                         _______ _______ _______ _____ _____    ______ ____
ROOT
ATOM      1  C   UNL     1       5.418   3.838  13.589  0.00  0.00    +0.000 C 
ATOM      2  C   UNL     1       6.291   4.645  14.510  0.00  0.00    +0.000 C 
ATOM      3  O   UNL     1       7.298   5.251  14.155  0.00  0.00    +0.000 OA
ATOM      4  N   UNL     1       5.875   4.664  15.861  0.00  0.00    +0.000 N 
ATOM      5  C   UNL     1       4.747   4.043  16.358  0.00  0.00    +0.000 A 
ATOM      6  C   UNL     1       4.725   4.066  17.741  0.00  0.00    +0.000 A 
ATOM      7  C   UNL     1       5.863   4.864  18.117  0.00  0.00    +0.000 A 
ATOM      8  C   UNL     1       6.403   5.293  19.354  0.00  0.00    +0.000 A 
ATOM      9  C   UNL     1       7.468   6.207  19.381  0.00  0.00    +0.000 A 
ATOM     10  C   UNL     1       8.020   6.687  18.201  0.00  0.00    +0.000 A 
ATOM     11  C   UNL     1       7.564   6.224  16.967  0.00  0.00    +0.000 A 
ATOM     12  C   UNL     1       6.495   5.303  16.937  0.00  0.00    +0.000 A 
ENDROOT
BRANCH   6  13
ATOM     13  C   UNL     1       3.660   3.416  18.624  0.00  0.00    +0.000 C 
BRANCH  13  14
ATOM     14  C   UNL     1       2.778   2.464  17.800  0.00  0.00    +0.000 C 
BRANCH  14  15
ATOM     15  N   UNL     1       1.336   2.904  17.837  0.00  0.00    +0.000 N 
ATOM     16  O   UNL     1       1.065   3.995  17.330  0.00  0.00    +0.000 OA
ATOM     17  O   UNL     1       0.538   2.158  18.423  0.00  0.00    +0.000 OA
ENDBRANCH  14  15
ENDBRANCH  13  14
BRANCH  13  18
ATOM     18  S   UNL     1       4.437   2.423  20.000  0.00  0.00    +0.000 S 
BRANCH  18  19
ATOM     19  C   UNL     1       3.061   2.273  21.197  0.00  0.00    +0.000 C 
BRANCH  19  20
ATOM     20  C   UNL     1       2.261   3.587  21.216  0.00  0.00    +0.000 C 
BRANCH  20  21
ATOM     21  N   UNL     1       0.814   3.370  21.095  0.00  0.00    +0.000 NA
ATOM     22  H   UNL     1       0.526   2.761  21.865  0.00  0.00    +0.000 HD
ATOM     23  H   UNL     1       0.625   2.843  20.242  0.00  0.00    +0.000 HD
ENDBRANCH  20  21
ENDBRANCH  19  20
ENDBRANCH  18  19
ENDBRANCH  13  18
ENDBRANCH   6  13
TORSDOF 7
ENDMDL
MODEL 5
REMARK VINA RESULT:      -6.7      1.750      3.284
REMARK  Name = 
REMARK  8 active torsions:
REMARK  status: ('A' for Active; 'I' for Inactive)
REMARK    1  A    between atoms: C_1  and  C_2
REMARK    2  A    between atoms: C_6  and  C_7
REMARK    3  A    between atoms: C_7  and  C_8
REMARK    4  A    between atoms: C_7  and  S_12
REMARK    5  A    between atoms: C_8  and  N_9
REMARK    6  A    between atoms: S_12  and  C_13
REMARK    7  A    between atoms: C_13  and  C_14
REMARK    8  A    between atoms: C_14  and  N_15
REMARK                            x       y       z     vdW  Elec       q    Type
REMARK                         _______ _______ _______ _____ _____    ______ ____
ROOT
ATOM      1  C   UNL     1       2.124   1.740  19.064  0.00  0.00    +0.000 C 
ATOM      2  C   UNL     1       1.906   3.227  19.129  0.00  0.00    +0.000 C 
ATOM      3  O   UNL     1       0.967   3.764  19.707  0.00  0.00    +0.000 OA
ATOM      4  N   UNL     1       2.880   4.001  18.456  0.00  0.00    +0.000 N 
ATOM      5  C   UNL     1       3.987   3.500  17.802  0.00  0.00    +0.000 A 
ATOM      6  C   UNL     1       4.629   4.481  17.070  0.00  0.00    +0.000 A 
ATOM      7  C   UNL     1       3.933   5.700  17.392  0.00  0.00    +0.000 A 
ATOM      8  C   UNL     1       4.085   7.055  17.009  0.00  0.00    +0.000 A 
ATOM      9  C   UNL     1       3.318   8.055  17.628  0.00  0.00    +0.000 A 
ATOM     10  C   UNL     1       2.386   7.730  18.605  0.00  0.00    +0.000 A 
ATOM     11  C   UNL     1       2.157   6.398  18.948  0.00  0.00    +0.000 A 
ATOM     12  C   UNL     1       2.925   5.390  18.326  0.00  0.00    +0.000 A 
ENDROOT
BRANCH   6  13
ATOM     13  C   UNL     1       5.849   4.267  16.173  0.00  0.00    +0.000 C 
BRANCH  13  14
ATOM     14  C   UNL     1       5.903   5.330  15.065  0.00  0.00    +0.000 C 
BRANCH  14  15
ATOM     15  N   UNL     1       6.862   4.920  13.976  0.00  0.00    +0.000 N 
ATOM     16  O   UNL     1       6.566   3.928  13.306  0.00  0.00    +0.000 OA
ATOM     17  O   UNL     1       7.905   5.582  13.871  0.00  0.00    +0.000 OA
ENDBRANCH  14  15
ENDBRANCH  13  14
BRANCH  13  18
ATOM     18  S   UNL     1       7.435   4.383  17.150  0.00  0.00    +0.000 S 
BRANCH  18  19
ATOM     19  C   UNL     1       7.192   5.926  18.104  0.00  0.00    +0.000 C 
BRANCH  19  20
ATOM     20  C   UNL     1       6.900   5.572  19.573  0.00  0.00    +0.000 C 
BRANCH  20  21
ATOM     21  N   UNL     1       8.121   5.457  20.380  0.00  0.00    +0.000 NA
ATOM     22  H   UNL     1       8.259   6.349  20.863  0.00  0.00    +0.000 HD
ATOM     23  H   UNL     1       8.924   5.353  19.759  0.00  0.00    +0.000 HD
ENDBRANCH  20  21
ENDBRANCH  19  20
ENDBRANCH  18  19
ENDBRANCH  13  18
ENDBRANCH   6  13
TORSDOF 7
ENDMDL
MODEL 6
REMARK VINA RESULT:      -6.6      1.627      2.642
REMARK  Name = 
REMARK  8 active torsions:
REMARK  status: ('A' for Active; 'I' for Inactive)
REMARK    1  A    between atoms: C_1  and  C_2
REMARK    2  A    between atoms: C_6  and  C_7
REMARK    3  A    between atoms: C_7  and  C_8
REMARK    4  A    between atoms: C_7  and  S_12
REMARK    5  A    between atoms: C_8  and  N_9
REMARK    6  A    between atoms: S_12  and  C_13
REMARK    7  A    between atoms: C_13  and  C_14
REMARK    8  A    between atoms: C_14  and  N_15
REMARK                            x       y       z     vdW  Elec       q    Type
REMARK                         _______ _______ _______ _____ _____    ______ ____
ROOT
ATOM      1  C   UNL     1       1.896   8.527  19.303  0.00  0.00    +0.000 C 
ATOM      2  C   UNL     1       1.871   7.179  19.969  0.00  0.00    +0.000 C 
ATOM      3  O   UNL     1       1.146   6.889  20.915  0.00  0.00    +0.000 OA
ATOM      4  N   UNL     1       2.768   6.230  19.427  0.00  0.00    +0.000 N 
ATOM      5  C   UNL     1       3.604   6.444  18.350  0.00  0.00    +0.000 A 
ATOM      6  C   UNL     1       4.504   5.406  18.194  0.00  0.00    +0.000 A 
ATOM      7  C   UNL     1       4.115   4.427  19.176  0.00  0.00    +0.000 A 
ATOM      8  C   UNL     1       4.595   3.144  19.534  0.00  0.00    +0.000 A 
ATOM      9  C   UNL     1       3.890   2.359  20.460  0.00  0.00    +0.000 A 
ATOM     10  C   UNL     1       2.729   2.835  21.054  0.00  0.00    +0.000 A 
ATOM     11  C   UNL     1       2.273   4.125  20.782  0.00  0.00    +0.000 A 
ATOM     12  C   UNL     1       2.981   4.917  19.852  0.00  0.00    +0.000 A 
ENDROOT
BRANCH   6  13
ATOM     13  C   UNL     1       5.615   5.343  17.146  0.00  0.00    +0.000 C 
BRANCH  13  14
ATOM     14  C   UNL     1       6.997   5.345  17.818  0.00  0.00    +0.000 C 
BRANCH  14  15
ATOM     15  N   UNL     1       7.613   6.721  17.769  0.00  0.00    +0.000 N 
ATOM     16  O   UNL     1       7.435   7.385  16.745  0.00  0.00    +0.000 OA
ATOM     17  O   UNL     1       8.299   7.062  18.744  0.00  0.00    +0.000 OA
ENDBRANCH  14  15
ENDBRANCH  13  14
BRANCH  13  18
ATOM     18  S   UNL     1       5.486   3.792  16.116  0.00  0.00    +0.000 S 
BRANCH  18  19
ATOM     19  C   UNL     1       5.436   4.459  14.413  0.00  0.00    +0.000 C 
BRANCH  19  20
ATOM     20  C   UNL     1       6.849   4.406  13.806  0.00  0.00    +0.000 C 
BRANCH  20  21
ATOM     21  N   UNL     1       7.722   5.472  14.316  0.00  0.00    +0.000 NA
ATOM     22  H   UNL     1       7.216   5.957  15.061  0.00  0.00    +0.000 HD
ATOM     23  H   UNL     1       7.865   6.167  13.582  0.00  0.00    +0.000 HD
ENDBRANCH  20  21
ENDBRANCH  19  20
ENDBRANCH  18  19
ENDBRANCH  13  18
ENDBRANCH   6  13
TORSDOF 7
ENDMDL
MODEL 7
REMARK VINA RESULT:      -6.5      1.673      1.878
REMARK  Name = 
REMARK  8 active torsions:
REMARK  status: ('A' for Active; 'I' for Inactive)
REMARK    1  A    between atoms: C_1  and  C_2
REMARK    2  A    between atoms: C_6  and  C_7
REMARK    3  A    between atoms: C_7  and  C_8
REMARK    4  A    between atoms: C_7  and  S_12
REMARK    5  A    between atoms: C_8  and  N_9
REMARK    6  A    between atoms: S_12  and  C_13
REMARK    7  A    between atoms: C_13  and  C_14
REMARK    8  A    between atoms: C_14  and  N_15
REMARK                            x       y       z     vdW  Elec       q    Type
REMARK                         _______ _______ _______ _____ _____    ______ ____
ROOT
ATOM      1  C   UNL     1       2.073   7.805  20.224  0.00  0.00    +0.000 C 
ATOM      2  C   UNL     1       1.770   6.335  20.130  0.00  0.00    +0.000 C 
ATOM      3  O   UNL     1       0.858   5.776  20.732  0.00  0.00    +0.000 OA
ATOM      4  N   UNL     1       2.631   5.603  19.280  0.00  0.00    +0.000 N 
ATOM      5  C   UNL     1       3.665   6.137  18.538  0.00  0.00    +0.000 A 
ATOM      6  C   UNL     1       4.449   5.146  17.977  0.00  0.00    +0.000 A 
ATOM      7  C   UNL     1       3.778   3.913  18.302  0.00  0.00    +0.000 A 
ATOM      8  C   UNL     1       4.032   2.549  18.023  0.00  0.00    +0.000 A 
ATOM      9  C   UNL     1       3.085   1.570  18.365  0.00  0.00    +0.000 A 
ATOM     10  C   UNL     1       1.901   1.920  18.999  0.00  0.00    +0.000 A 
ATOM     11  C   UNL     1       1.657   3.246  19.359  0.00  0.00    +0.000 A 
ATOM     12  C   UNL     1       2.608   4.232  19.018  0.00  0.00    +0.000 A 
ENDROOT
BRANCH   6  13
ATOM     13  C   UNL     1       5.714   5.375  17.150  0.00  0.00    +0.000 C 
BRANCH  13  14
ATOM     14  C   UNL     1       5.440   5.129  15.658  0.00  0.00    +0.000 C 
BRANCH  14  15
ATOM     15  N   UNL     1       6.690   4.664  14.954  0.00  0.00    +0.000 N 
ATOM     16  O   UNL     1       6.612   4.455  13.741  0.00  0.00    +0.000 OA
ATOM     17  O   UNL     1       7.692   4.476  15.659  0.00  0.00    +0.000 OA
ENDBRANCH  14  15
ENDBRANCH  13  14
BRANCH  13  18
ATOM     18  S   UNL     1       6.333   7.126  17.333  0.00  0.00    +0.000 S 
BRANCH  18  19
ATOM     19  C   UNL     1       7.829   6.904  18.363  0.00  0.00    +0.000 C 
BRANCH  19  20
ATOM     20  C   UNL     1       7.817   5.493  18.976  0.00  0.00    +0.000 C 
BRANCH  20  21
ATOM     21  N   UNL     1       8.042   5.504  20.427  0.00  0.00    +0.000 NA
ATOM     22  H   UNL     1       8.117   6.482  20.721  0.00  0.00    +0.000 HD
ATOM     23  H   UNL     1       8.950   5.086  20.628  0.00  0.00    +0.000 HD
ENDBRANCH  20  21
ENDBRANCH  19  20
ENDBRANCH  18  19
ENDBRANCH  13  18
ENDBRANCH   6  13
TORSDOF 7
ENDMDL
MODEL 8
REMARK VINA RESULT:      -6.5      1.804      2.902
REMARK  Name = 
REMARK  8 active torsions:
REMARK  status: ('A' for Active; 'I' for Inactive)
REMARK    1  A    between atoms: C_1  and  C_2
REMARK    2  A    between atoms: C_6  and  C_7
REMARK    3  A    between atoms: C_7  and  C_8
REMARK    4  A    between atoms: C_7  and  S_12
REMARK    5  A    between atoms: C_8  and  N_9
REMARK    6  A    between atoms: S_12  and  C_13
REMARK    7  A    between atoms: C_13  and  C_14
REMARK    8  A    between atoms: C_14  and  N_15
REMARK                            x       y       z     vdW  Elec       q    Type
REMARK                         _______ _______ _______ _____ _____    ______ ____
ROOT
ATOM      1  C   UNL     1       1.966   9.871  18.203  0.00  0.00    +0.000 C 
ATOM      2  C   UNL     1       1.679   8.684  19.082  0.00  0.00    +0.000 C 
ATOM      3  O   UNL     1       0.846   8.675  19.982  0.00  0.00    +0.000 OA
ATOM      4  N   UNL     1       2.457   7.536  18.805  0.00  0.00    +0.000 N 
ATOM      5  C   UNL     1       3.398   7.432  17.800  0.00  0.00    +0.000 A 
ATOM      6  C   UNL     1       4.135   6.268  17.915  0.00  0.00    +0.000 A 
ATOM      7  C   UNL     1       3.523   5.548  19.003  0.00  0.00    +0.000 A 
ATOM      8  C   UNL     1       3.768   4.298  19.620  0.00  0.00    +0.000 A 
ATOM      9  C   UNL     1       2.880   3.801  20.587  0.00  0.00    +0.000 A 
ATOM     10  C   UNL     1       1.763   4.534  20.967  0.00  0.00    +0.000 A 
ATOM     11  C   UNL     1       1.537   5.804  20.435  0.00  0.00    +0.000 A 
ATOM     12  C   UNL     1       2.430   6.306  19.465  0.00  0.00    +0.000 A 
ENDROOT
BRANCH   6  13
ATOM     13  C   UNL     1       5.301   5.861  17.015  0.00  0.00    +0.000 C 
BRANCH  13  14
ATOM     14  C   UNL     1       6.554   5.557  17.852  0.00  0.00    +0.000 C 
BRANCH  14  15
ATOM     15  N   UNL     1       7.577   6.654  17.699  0.00  0.00    +0.000 N 
ATOM     16  O   UNL     1       7.725   7.137  16.574  0.00  0.00    +0.000 OA
ATOM     17  O   UNL     1       8.232   6.952  18.708  0.00  0.00    +0.000 OA
ENDBRANCH  14  15
ENDBRANCH  13  14
BRANCH  13  18
ATOM     18  S   UNL     1       4.891   4.330  16.029  0.00  0.00    +0.000 S 
BRANCH  18  19
ATOM     19  C   UNL     1       6.522   3.860  15.345  0.00  0.00    +0.000 C 
BRANCH  19  20
ATOM     20  C   UNL     1       6.611   4.327  13.881  0.00  0.00    +0.000 C 
BRANCH  20  21
ATOM     21  N   UNL     1       6.229   3.277  12.928  0.00  0.00    +0.000 NA
ATOM     22  H   UNL     1       6.674   2.407  13.231  0.00  0.00    +0.000 HD
ATOM     23  H   UNL     1       6.635   3.490  12.017  0.00  0.00    +0.000 HD
ENDBRANCH  20  21
ENDBRANCH  19  20
ENDBRANCH  18  19
ENDBRANCH  13  18
ENDBRANCH   6  13
TORSDOF 7
ENDMDL
MODEL 9
REMARK VINA RESULT:      -6.5      2.431      3.223
REMARK  Name = 
REMARK  8 active torsions:
REMARK  status: ('A' for Active; 'I' for Inactive)
REMARK    1  A    between atoms: C_1  and  C_2
REMARK    2  A    between atoms: C_6  and  C_7
REMARK    3  A    between atoms: C_7  and  C_8
REMARK    4  A    between atoms: C_7  and  S_12
REMARK    5  A    between atoms: C_8  and  N_9
REMARK    6  A    between atoms: S_12  and  C_13
REMARK    7  A    between atoms: C_13  and  C_14
REMARK    8  A    between atoms: C_14  and  N_15
REMARK                            x       y       z     vdW  Elec       q    Type
REMARK                         _______ _______ _______ _____ _____    ______ ____
ROOT
ATOM      1  C   UNL     1       1.824   7.538  20.685  0.00  0.00    +0.000 C 
ATOM      2  C   UNL     1       1.665   6.083  20.338  0.00  0.00    +0.000 C 
ATOM      3  O   UNL     1       0.812   5.346  20.822  0.00  0.00    +0.000 OA
ATOM      4  N   UNL     1       2.591   5.593  19.388  0.00  0.00    +0.000 N 
ATOM      5  C   UNL     1       3.568   6.342  18.764  0.00  0.00    +0.000 A 
ATOM      6  C   UNL     1       4.443   5.541  18.054  0.00  0.00    +0.000 A 
ATOM      7  C   UNL     1       3.894   4.213  18.153  0.00  0.00    +0.000 A 
ATOM      8  C   UNL     1       4.277   2.946  17.650  0.00  0.00    +0.000 A 
ATOM      9  C   UNL     1       3.430   1.838  17.806  0.00  0.00    +0.000 A 
ATOM     10  C   UNL     1       2.218   1.960  18.473  0.00  0.00    +0.000 A 
ATOM     11  C   UNL     1       1.848   3.176  19.049  0.00  0.00    +0.000 A 
ATOM     12  C   UNL     1       2.700   4.291  18.896  0.00  0.00    +0.000 A 
ENDROOT
BRANCH   6  13
ATOM     13  C   UNL     1       5.679   6.027  17.297  0.00  0.00    +0.000 C 
BRANCH  13  14
ATOM     14  C   UNL     1       6.929   5.254  17.743  0.00  0.00    +0.000 C 
BRANCH  14  15
ATOM     15  N   UNL     1       7.588   5.934  18.917  0.00  0.00    +0.000 N 
ATOM     16  O   UNL     1       7.432   5.423  20.028  0.00  0.00    +0.000 OA
ATOM     17  O   UNL     1       8.196   6.989  18.682  0.00  0.00    +0.000 OA
ENDBRANCH  14  15
ENDBRANCH  13  14
BRANCH  13  18
ATOM     18  S   UNL     1       5.485   5.781  15.457  0.00  0.00    +0.000 S 
BRANCH  18  19
ATOM     19  C   UNL     1       6.779   4.539  15.092  0.00  0.00    +0.000 C 
BRANCH  19  20
ATOM     20  C   UNL     1       7.202   4.667  13.618  0.00  0.00    +0.000 C 
BRANCH  20  21
ATOM     21  N   UNL     1       8.238   5.689  13.414  0.00  0.00    +0.000 NA
ATOM     22  H   UNL     1       7.835   6.426  12.831  0.00  0.00    +0.000 HD
ATOM     23  H   UNL     1       8.999   5.288  12.865  0.00  0.00    +0.000 HD
ENDBRANCH  20  21
ENDBRANCH  19  20
ENDBRANCH  18  19
ENDBRANCH  13  18
ENDBRANCH   6  13
TORSDOF 7
ENDMDL
