MODEL 1
REMARK VINA RESULT:      -8.6      0.000      0.000
REMARK  Name = 
REMARK  5 active torsions:
REMARK  status: ('A' for Active; 'I' for Inactive)
REMARK    1  A    between atoms: C_2  and  O_3
REMARK    2  A    between atoms: C_2  and  C_4
REMARK    3  A    between atoms: C_6  and  C_7
REMARK    4  A    between atoms: C_10  and  O_11
REMARK    5  A    between atoms: O_11  and  C_12
REMARK                            x       y       z     vdW  Elec       q    Type
REMARK                         _______ _______ _______ _____ _____    ______ ____
ROOT
ATOM      1  C   UNL     1       2.316   4.988  20.063  0.00  0.00    +0.000 A 
ATOM      2  C   UNL     1       3.146   4.539  19.039  0.00  0.00    +0.000 A 
ATOM      3  C   UNL     1       3.594   5.445  18.092  0.00  0.00    +0.000 A 
ATOM      4  N   UNL     1       3.238   6.748  18.138  0.00  0.00    +0.000 NA
ATOM      5  C   UNL     1       2.417   7.182  19.107  0.00  0.00    +0.000 A 
ATOM      6  C   UNL     1       2.035   8.519  19.073  0.00  0.00    +0.000 A 
ATOM      7  C   UNL     1       1.191   9.074  20.038  0.00  0.00    +0.000 A 
ATOM      8  C   UNL     1       0.732   8.276  21.070  0.00  0.00    +0.000 A 
ATOM      9 CL   UNL     1      -0.285   8.947  22.283  0.00  0.00    +0.000 Cl
ATOM     10  C   UNL     1       1.093   6.931  21.127  0.00  0.00    +0.000 A 
ATOM     11  C   UNL     1       1.927   6.351  20.130  0.00  0.00    +0.000 A 
ENDROOT
BRANCH   3  12
ATOM     12  C   UNL     1       4.465   5.052  16.966  0.00  0.00    +0.000 A 
ATOM     13  C   UNL     1       4.806   3.708  16.730  0.00  0.00    +0.000 A 
ATOM     14  C   UNL     1       5.620   3.347  15.650  0.00  0.00    +0.000 A 
ATOM     15  C   UNL     1       6.100   4.314  14.769  0.00  0.00    +0.000 A 
ATOM     16  C   UNL     1       5.817   5.654  15.013  0.00  0.00    +0.000 A 
ATOM     17  C   UNL     1       4.990   6.012  16.088  0.00  0.00    +0.000 A 
BRANCH  15  18
ATOM     18  O   UNL     1       6.881   3.836  13.759  0.00  0.00    +0.000 OA
BRANCH  18  19
ATOM     19  C   UNL     1       6.314   3.641  12.472  0.00  0.00    +0.000 C 
ATOM     20  F   UNL     1       4.972   3.746  12.426  0.00  0.00    +0.000 F 
ATOM     21  F   UNL     1       6.848   4.543  11.620  0.00  0.00    +0.000 F 
ATOM     22  F   UNL     1       6.648   2.405  12.038  0.00  0.00    +0.000 F 
ENDBRANCH  18  19
ENDBRANCH  15  18
ENDBRANCH   3  12
BRANCH   1  24
ATOM     23  O   UNL     1       2.310   3.691  22.070  0.00  0.00    +0.000 OA
ATOM     24  C   UNL     1       1.772   3.973  21.016  0.00  0.00    +0.000 C 
BRANCH  24  25
ATOM     25  O   UNL     1       0.608   3.412  20.630  0.00  0.00    +0.000 OA
ATOM     26  H   UNL     1      -0.040   3.994  20.193  0.00  0.00    +0.000 HD
ENDBRANCH  24  25
ENDBRANCH   1  24
TORSDOF 5
ENDMDL
MODEL 2
REMARK VINA RESULT:      -8.5      0.089      1.212
REMARK  Name = 
REMARK  5 active torsions:
REMARK  status: ('A' for Active; 'I' for Inactive)
REMARK    1  A    between atoms: C_2  and  O_3
REMARK    2  A    between atoms: C_2  and  C_4
REMARK    3  A    between atoms: C_6  and  C_7
REMARK    4  A    between atoms: C_10  and  O_11
REMARK    5  A    between atoms: O_11  and  C_12
REMARK                            x       y       z     vdW  Elec       q    Type
REMARK                         _______ _______ _______ _____ _____    ______ ____
ROOT
ATOM      1  C   UNL     1       2.310   4.994  20.066  0.00  0.00    +0.000 A 
ATOM      2  C   UNL     1       3.136   4.552  19.037  0.00  0.00    +0.000 A 
ATOM      3  C   UNL     1       3.575   5.463  18.090  0.00  0.00    +0.000 A 
ATOM      4  N   UNL     1       3.215   6.764  18.143  0.00  0.00    +0.000 NA
ATOM      5  C   UNL     1       2.396   7.192  19.117  0.00  0.00    +0.000 A 
ATOM      6  C   UNL     1       2.009   8.527  19.089  0.00  0.00    +0.000 A 
ATOM      7  C   UNL     1       1.167   9.075  20.060  0.00  0.00    +0.000 A 
ATOM      8  C   UNL     1       0.716   8.273  21.092  0.00  0.00    +0.000 A 
ATOM      9 CL   UNL     1      -0.298   8.936  22.312  0.00  0.00    +0.000 Cl
ATOM     10  C   UNL     1       1.083   6.929  21.142  0.00  0.00    +0.000 A 
ATOM     11  C   UNL     1       1.915   6.356  20.140  0.00  0.00    +0.000 A 
ENDROOT
BRANCH   3  12
ATOM     12  C   UNL     1       4.443   5.077  16.959  0.00  0.00    +0.000 A 
ATOM     13  C   UNL     1       5.007   6.036  16.100  0.00  0.00    +0.000 A 
ATOM     14  C   UNL     1       5.840   5.658  15.041  0.00  0.00    +0.000 A 
ATOM     15  C   UNL     1       6.146   4.315  14.822  0.00  0.00    +0.000 A 
ATOM     16  C   UNL     1       5.558   3.347  15.630  0.00  0.00    +0.000 A 
ATOM     17  C   UNL     1       4.734   3.729  16.699  0.00  0.00    +0.000 A 
BRANCH  15  18
ATOM     18  O   UNL     1       6.967   4.078  13.761  0.00  0.00    +0.000 OA
BRANCH  18  19
ATOM     19  C   UNL     1       6.406   3.677  12.521  0.00  0.00    +0.000 C 
ATOM     20  F   UNL     1       6.626   2.389  12.193  0.00  0.00    +0.000 F 
ATOM     21  F   UNL     1       5.071   3.891  12.557  0.00  0.00    +0.000 F 
ATOM     22  F   UNL     1       6.928   4.449  11.542  0.00  0.00    +0.000 F 
ENDBRANCH  18  19
ENDBRANCH  15  18
ENDBRANCH   3  12
BRANCH   1  24
ATOM     23  O   UNL     1       2.324   3.684  22.065  0.00  0.00    +0.000 OA
ATOM     24  C   UNL     1       1.774   3.975  21.019  0.00  0.00    +0.000 C 
BRANCH  24  25
ATOM     25  O   UNL     1       0.604   3.419  20.643  0.00  0.00    +0.000 OA
ATOM     26  H   UNL     1      -0.055   4.009  20.237  0.00  0.00    +0.000 HD
ENDBRANCH  24  25
ENDBRANCH   1  24
TORSDOF 5
ENDMDL
MODEL 3
REMARK VINA RESULT:      -8.0      0.139      1.021
REMARK  Name = 
REMARK  5 active torsions:
REMARK  status: ('A' for Active; 'I' for Inactive)
REMARK    1  A    between atoms: C_2  and  O_3
REMARK    2  A    between atoms: C_2  and  C_4
REMARK    3  A    between atoms: C_6  and  C_7
REMARK    4  A    between atoms: C_10  and  O_11
REMARK    5  A    between atoms: O_11  and  C_12
REMARK                            x       y       z     vdW  Elec       q    Type
REMARK                         _______ _______ _______ _____ _____    ______ ____
ROOT
ATOM      1  C   UNL     1       2.272   4.933  20.071  0.00  0.00    +0.000 A 
ATOM      2  C   UNL     1       3.107   4.504  19.044  0.00  0.00    +0.000 A 
ATOM      3  C   UNL     1       3.568   5.431  18.123  0.00  0.00    +0.000 A 
ATOM      4  N   UNL     1       3.219   6.734  18.198  0.00  0.00    +0.000 NA
ATOM      5  C   UNL     1       2.392   7.149  19.171  0.00  0.00    +0.000 A 
ATOM      6  C   UNL     1       2.018   8.489  19.167  0.00  0.00    +0.000 A 
ATOM      7  C   UNL     1       1.169   9.024  20.138  0.00  0.00    +0.000 A 
ATOM      8  C   UNL     1       0.698   8.205  21.146  0.00  0.00    +0.000 A 
ATOM      9 CL   UNL     1      -0.326   8.852  22.367  0.00  0.00    +0.000 Cl
ATOM     10  C   UNL     1       1.050   6.856  21.173  0.00  0.00    +0.000 A 
ATOM     11  C   UNL     1       1.889   6.296  20.169  0.00  0.00    +0.000 A 
ENDROOT
BRANCH   3  12
ATOM     12  C   UNL     1       4.446   5.060  16.995  0.00  0.00    +0.000 A 
ATOM     13  C   UNL     1       4.760   3.719  16.712  0.00  0.00    +0.000 A 
ATOM     14  C   UNL     1       5.581   3.380  15.631  0.00  0.00    +0.000 A 
ATOM     15  C   UNL     1       6.096   4.368  14.794  0.00  0.00    +0.000 A 
ATOM     16  C   UNL     1       5.840   5.704  15.086  0.00  0.00    +0.000 A 
ATOM     17  C   UNL     1       5.006   6.041  16.162  0.00  0.00    +0.000 A 
BRANCH  15  18
ATOM     18  O   UNL     1       6.880   3.910  13.778  0.00  0.00    +0.000 OA
BRANCH  18  19
ATOM     19  C   UNL     1       6.292   3.627  12.517  0.00  0.00    +0.000 C 
ATOM     20  F   UNL     1       6.837   4.292  11.479  0.00  0.00    +0.000 F 
ATOM     21  F   UNL     1       6.389   2.300  12.278  0.00  0.00    +0.000 F 
ATOM     22  F   UNL     1       4.980   3.948  12.573  0.00  0.00    +0.000 F 
ENDBRANCH  18  19
ENDBRANCH  15  18
ENDBRANCH   3  12
BRANCH   1  24
ATOM     23  O   UNL     1       0.723   3.239  20.740  0.00  0.00    +0.000 OA
ATOM     24  C   UNL     1       1.714   3.899  20.995  0.00  0.00    +0.000 C 
BRANCH  24  25
ATOM     25  O   UNL     1       2.418   3.726  22.132  0.00  0.00    +0.000 OA
ATOM     26  H   UNL     1       1.955   3.907  22.970  0.00  0.00    +0.000 HD
ENDBRANCH  24  25
ENDBRANCH   1  24
TORSDOF 5
ENDMDL
MODEL 4
REMARK VINA RESULT:      -7.9      6.344      9.213
REMARK  Name = 
REMARK  5 active torsions:
REMARK  status: ('A' for Active; 'I' for Inactive)
REMARK    1  A    between atoms: C_2  and  O_3
REMARK    2  A    between atoms: C_2  and  C_4
REMARK    3  A    between atoms: C_6  and  C_7
REMARK    4  A    between atoms: C_10  and  O_11
REMARK    5  A    between atoms: O_11  and  C_12
REMARK                            x       y       z     vdW  Elec       q    Type
REMARK                         _______ _______ _______ _____ _____    ______ ____
ROOT
ATOM      1  C   UNL     1       1.758   5.408  20.369  0.00  0.00    +0.000 A 
ATOM      2  C   UNL     1       1.128   6.453  21.039  0.00  0.00    +0.000 A 
ATOM      3  C   UNL     1       1.304   7.749  20.579  0.00  0.00    +0.000 A 
ATOM      4  N   UNL     1       2.074   8.016  19.502  0.00  0.00    +0.000 NA
ATOM      5  C   UNL     1       2.706   7.016  18.867  0.00  0.00    +0.000 A 
ATOM      6  C   UNL     1       3.534   7.354  17.802  0.00  0.00    +0.000 A 
ATOM      7  C   UNL     1       4.230   6.389  17.069  0.00  0.00    +0.000 A 
ATOM      8  C   UNL     1       4.080   5.055  17.399  0.00  0.00    +0.000 A 
ATOM      9 CL   UNL     1       4.907   3.851  16.492  0.00  0.00    +0.000 Cl
ATOM     10  C   UNL     1       3.263   4.687  18.467  0.00  0.00    +0.000 A 
ATOM     11  C   UNL     1       2.575   5.666  19.237  0.00  0.00    +0.000 A 
ENDROOT
BRANCH   3  12
ATOM     12  C   UNL     1       0.684   8.916  21.237  0.00  0.00    +0.000 A 
ATOM     13  C   UNL     1       0.038   8.806  22.481  0.00  0.00    +0.000 A 
ATOM     14  C   UNL     1      -0.532   9.923  23.102  0.00  0.00    +0.000 A 
ATOM     15  C   UNL     1      -0.457  11.182  22.507  0.00  0.00    +0.000 A 
ATOM     16  C   UNL     1       0.133  11.303  21.253  0.00  0.00    +0.000 A 
ATOM     17  C   UNL     1       0.716  10.184  20.639  0.00  0.00    +0.000 A 
BRANCH  15  18
ATOM     18  O   UNL     1      -1.049  12.187  23.211  0.00  0.00    +0.000 OA
BRANCH  18  19
ATOM     19  C   UNL     1      -2.450  12.386  23.099  0.00  0.00    +0.000 C 
ATOM     20  F   UNL     1      -3.195  11.614  23.913  0.00  0.00    +0.000 F 
ATOM     21  F   UNL     1      -2.728  13.683  23.358  0.00  0.00    +0.000 F 
ATOM     22  F   UNL     1      -2.821  12.125  21.825  0.00  0.00    +0.000 F 
ENDBRANCH  18  19
ENDBRANCH  15  18
ENDBRANCH   3  12
BRANCH   1  24
ATOM     23  O   UNL     1       2.363   3.600  21.809  0.00  0.00    +0.000 OA
ATOM     24  C   UNL     1       1.629   4.034  20.941  0.00  0.00    +0.000 C 
BRANCH  24  25
ATOM     25  O   UNL     1       0.605   3.314  20.440  0.00  0.00    +0.000 OA
ATOM     26  H   UNL     1       0.829   2.611  19.803  0.00  0.00    +0.000 HD
ENDBRANCH  24  25
ENDBRANCH   1  24
TORSDOF 5
ENDMDL
MODEL 5
REMARK VINA RESULT:      -7.9      0.727      1.595
REMARK  Name = 
REMARK  5 active torsions:
REMARK  status: ('A' for Active; 'I' for Inactive)
REMARK    1  A    between atoms: C_2  and  O_3
REMARK    2  A    between atoms: C_2  and  C_4
REMARK    3  A    between atoms: C_6  and  C_7
REMARK    4  A    between atoms: C_10  and  O_11
REMARK    5  A    between atoms: O_11  and  C_12
REMARK                            x       y       z     vdW  Elec       q    Type
REMARK                         _______ _______ _______ _____ _____    ______ ____
ROOT
ATOM      1  C   UNL     1       2.460   5.709  19.655  0.00  0.00    +0.000 A 
ATOM      2  C   UNL     1       3.285   5.111  18.707  0.00  0.00    +0.000 A 
ATOM      3  C   UNL     1       3.753   5.874  17.648  0.00  0.00    +0.000 A 
ATOM      4  N   UNL     1       3.420   7.177  17.516  0.00  0.00    +0.000 NA
ATOM      5  C   UNL     1       2.603   7.752  18.413  0.00  0.00    +0.000 A 
ATOM      6  C   UNL     1       2.245   9.078  18.196  0.00  0.00    +0.000 A 
ATOM      7  C   UNL     1       1.408   9.773  19.072  0.00  0.00    +0.000 A 
ATOM      8  C   UNL     1       0.931   9.130  20.200  0.00  0.00    +0.000 A 
ATOM      9 CL   UNL     1      -0.078   9.977  21.305  0.00  0.00    +0.000 Cl
ATOM     10  C   UNL     1       1.268   7.799  20.440  0.00  0.00    +0.000 A 
ATOM     11  C   UNL     1       2.095   7.075  19.536  0.00  0.00    +0.000 A 
ENDROOT
BRANCH   3  12
ATOM     12  C   UNL     1       4.621   5.317  16.591  0.00  0.00    +0.000 A 
ATOM     13  C   UNL     1       5.246   6.140  15.639  0.00  0.00    +0.000 A 
ATOM     14  C   UNL     1       6.078   5.601  14.651  0.00  0.00    +0.000 A 
ATOM     15  C   UNL     1       6.323   4.230  14.600  0.00  0.00    +0.000 A 
ATOM     16  C   UNL     1       5.674   3.392  15.501  0.00  0.00    +0.000 A 
ATOM     17  C   UNL     1       4.851   3.936  16.498  0.00  0.00    +0.000 A 
BRANCH  15  18
ATOM     18  O   UNL     1       7.151   3.831  13.594  0.00  0.00    +0.000 OA
BRANCH  18  19
ATOM     19  C   UNL     1       6.619   3.621  12.295  0.00  0.00    +0.000 C 
ATOM     20  F   UNL     1       6.977   2.456  11.720  0.00  0.00    +0.000 F 
ATOM     21  F   UNL     1       5.270   3.674  12.362  0.00  0.00    +0.000 F 
ATOM     22  F   UNL     1       7.038   4.625  11.492  0.00  0.00    +0.000 F 
ENDBRANCH  18  19
ENDBRANCH  15  18
ENDBRANCH   3  12
BRANCH   1  24
ATOM     23  O   UNL     1       0.846   4.235  20.622  0.00  0.00    +0.000 OA
ATOM     24  C   UNL     1       1.894   4.842  20.734  0.00  0.00    +0.000 C 
BRANCH  24  25
ATOM     25  O   UNL     1       2.659   4.758  21.842  0.00  0.00    +0.000 OA
ATOM     26  H   UNL     1       2.361   5.257  22.624  0.00  0.00    +0.000 HD
ENDBRANCH  24  25
ENDBRANCH   1  24
TORSDOF 5
ENDMDL
MODEL 6
REMARK VINA RESULT:      -7.9      6.341      9.246
REMARK  Name = 
REMARK  5 active torsions:
REMARK  status: ('A' for Active; 'I' for Inactive)
REMARK    1  A    between atoms: C_2  and  O_3
REMARK    2  A    between atoms: C_2  and  C_4
REMARK    3  A    between atoms: C_6  and  C_7
REMARK    4  A    between atoms: C_10  and  O_11
REMARK    5  A    between atoms: O_11  and  C_12
REMARK                            x       y       z     vdW  Elec       q    Type
REMARK                         _______ _______ _______ _____ _____    ______ ____
ROOT
ATOM      1  C   UNL     1       1.749   5.418  20.427  0.00  0.00    +0.000 A 
ATOM      2  C   UNL     1       1.124   6.474  21.084  0.00  0.00    +0.000 A 
ATOM      3  C   UNL     1       1.301   7.762  20.605  0.00  0.00    +0.000 A 
ATOM      4  N   UNL     1       2.069   8.012  19.521  0.00  0.00    +0.000 NA
ATOM      5  C   UNL     1       2.697   7.001  18.900  0.00  0.00    +0.000 A 
ATOM      6  C   UNL     1       3.522   7.322  17.827  0.00  0.00    +0.000 A 
ATOM      7  C   UNL     1       4.214   6.345  17.106  0.00  0.00    +0.000 A 
ATOM      8  C   UNL     1       4.062   5.016  17.456  0.00  0.00    +0.000 A 
ATOM      9 CL   UNL     1       4.883   3.797  16.563  0.00  0.00    +0.000 Cl
ATOM     10  C   UNL     1       3.247   4.665  18.531  0.00  0.00    +0.000 A 
ATOM     11  C   UNL     1       2.564   5.657  19.289  0.00  0.00    +0.000 A 
ENDROOT
BRANCH   3  12
ATOM     12  C   UNL     1       0.686   8.940  21.248  0.00  0.00    +0.000 A 
ATOM     13  C   UNL     1       0.739  10.215  20.658  0.00  0.00    +0.000 A 
ATOM     14  C   UNL     1       0.139  11.321  21.271  0.00  0.00    +0.000 A 
ATOM     15  C   UNL     1      -0.544  11.180  22.478  0.00  0.00    +0.000 A 
ATOM     16  C   UNL     1      -0.565   9.937  23.103  0.00  0.00    +0.000 A 
ATOM     17  C   UNL     1       0.026   8.828  22.481  0.00  0.00    +0.000 A 
BRANCH  15  18
ATOM     18  O   UNL     1      -1.085  12.330  22.971  0.00  0.00    +0.000 OA
BRANCH  18  19
ATOM     19  C   UNL     1      -2.489  12.528  22.898  0.00  0.00    +0.000 C 
ATOM     20  F   UNL     1      -2.897  13.780  23.182  0.00  0.00    +0.000 F 
ATOM     21  F   UNL     1      -2.910  12.207  21.654  0.00  0.00    +0.000 F 
ATOM     22  F   UNL     1      -3.087  11.688  23.772  0.00  0.00    +0.000 F 
ENDBRANCH  18  19
ENDBRANCH  15  18
ENDBRANCH   3  12
BRANCH   1  24
ATOM     23  O   UNL     1       2.312   3.652  21.936  0.00  0.00    +0.000 OA
ATOM     24  C   UNL     1       1.619   4.051  21.019  0.00  0.00    +0.000 C 
BRANCH  24  25
ATOM     25  O   UNL     1       0.641   3.298  20.476  0.00  0.00    +0.000 OA
ATOM     26  H   UNL     1       0.891   2.410  20.161  0.00  0.00    +0.000 HD
ENDBRANCH  24  25
ENDBRANCH   1  24
TORSDOF 5
ENDMDL
MODEL 7
REMARK VINA RESULT:      -7.8      4.038      5.696
REMARK  Name = 
REMARK  5 active torsions:
REMARK  status: ('A' for Active; 'I' for Inactive)
REMARK    1  A    between atoms: C_2  and  O_3
REMARK    2  A    between atoms: C_2  and  C_4
REMARK    3  A    between atoms: C_6  and  C_7
REMARK    4  A    between atoms: C_10  and  O_11
REMARK    5  A    between atoms: O_11  and  C_12
REMARK                            x       y       z     vdW  Elec       q    Type
REMARK                         _______ _______ _______ _____ _____    ______ ____
ROOT
ATOM      1  C   UNL     1       1.020  10.255  19.510  0.00  0.00    +0.000 A 
ATOM      2  C   UNL     1       1.632   9.058  19.151  0.00  0.00    +0.000 A 
ATOM      3  C   UNL     1       1.570   7.984  20.025  0.00  0.00    +0.000 A 
ATOM      4  N   UNL     1       0.935   8.078  21.214  0.00  0.00    +0.000 NA
ATOM      5  C   UNL     1       0.367   9.238  21.577  0.00  0.00    +0.000 A 
ATOM      6  C   UNL     1      -0.221   9.297  22.837  0.00  0.00    +0.000 A 
ATOM      7  C   UNL     1      -0.847  10.453  23.309  0.00  0.00    +0.000 A 
ATOM      8  C   UNL     1      -0.902  11.570  22.496  0.00  0.00    +0.000 A 
ATOM      9 CL   UNL     1      -1.693  12.993  23.048  0.00  0.00    +0.000 Cl
ATOM     10  C   UNL     1      -0.316  11.542  21.231  0.00  0.00    +0.000 A 
ATOM     11  C   UNL     1       0.351  10.379  20.755  0.00  0.00    +0.000 A 
ENDROOT
BRANCH   3  12
ATOM     12  C   UNL     1       2.203   6.683  19.730  0.00  0.00    +0.000 A 
ATOM     13  C   UNL     1       2.088   5.589  20.607  0.00  0.00    +0.000 A 
ATOM     14  C   UNL     1       2.679   4.357  20.308  0.00  0.00    +0.000 A 
ATOM     15  C   UNL     1       3.385   4.177  19.119  0.00  0.00    +0.000 A 
ATOM     16  C   UNL     1       3.553   5.260  18.262  0.00  0.00    +0.000 A 
ATOM     17  C   UNL     1       2.948   6.491  18.557  0.00  0.00    +0.000 A 
BRANCH  15  18
ATOM     18  O   UNL     1       3.911   2.933  18.945  0.00  0.00    +0.000 OA
BRANCH  18  19
ATOM     19  C   UNL     1       3.117   1.917  18.351  0.00  0.00    +0.000 C 
ATOM     20  F   UNL     1       2.536   2.264  17.187  0.00  0.00    +0.000 F 
ATOM     21  F   UNL     1       3.889   0.827  18.141  0.00  0.00    +0.000 F 
ATOM     22  F   UNL     1       2.138   1.575  19.219  0.00  0.00    +0.000 F 
ENDBRANCH  18  19
ENDBRANCH  15  18
ENDBRANCH   3  12
BRANCH   1  24
ATOM     23  O   UNL     1       2.246  11.985  18.408  0.00  0.00    +0.000 OA
ATOM     24  C   UNL     1       1.183  11.425  18.593  0.00  0.00    +0.000 C 
BRANCH  24  25
ATOM     25  O   UNL     1       0.054  11.795  17.954  0.00  0.00    +0.000 OA
ATOM     26  H   UNL     1      -0.307  11.171  17.298  0.00  0.00    +0.000 HD
ENDBRANCH  24  25
ENDBRANCH   1  24
TORSDOF 5
ENDMDL
MODEL 8
REMARK VINA RESULT:      -7.8      4.058      5.771
REMARK  Name = 
REMARK  5 active torsions:
REMARK  status: ('A' for Active; 'I' for Inactive)
REMARK    1  A    between atoms: C_2  and  O_3
REMARK    2  A    between atoms: C_2  and  C_4
REMARK    3  A    between atoms: C_6  and  C_7
REMARK    4  A    between atoms: C_10  and  O_11
REMARK    5  A    between atoms: O_11  and  C_12
REMARK                            x       y       z     vdW  Elec       q    Type
REMARK                         _______ _______ _______ _____ _____    ______ ____
ROOT
ATOM      1  C   UNL     1       1.024  10.201  19.507  0.00  0.00    +0.000 A 
ATOM      2  C   UNL     1       1.602   8.978  19.179  0.00  0.00    +0.000 A 
ATOM      3  C   UNL     1       1.505   7.927  20.077  0.00  0.00    +0.000 A 
ATOM      4  N   UNL     1       0.868   8.067  21.261  0.00  0.00    +0.000 NA
ATOM      5  C   UNL     1       0.332   9.251  21.594  0.00  0.00    +0.000 A 
ATOM      6  C   UNL     1      -0.259   9.357  22.849  0.00  0.00    +0.000 A 
ATOM      7  C   UNL     1      -0.853  10.541  23.292  0.00  0.00    +0.000 A 
ATOM      8  C   UNL     1      -0.872  11.640  22.452  0.00  0.00    +0.000 A 
ATOM      9 CL   UNL     1      -1.624  13.098  22.967  0.00  0.00    +0.000 Cl
ATOM     10  C   UNL     1      -0.282  11.565  21.191  0.00  0.00    +0.000 A 
ATOM     11  C   UNL     1       0.353  10.372  20.746  0.00  0.00    +0.000 A 
ENDROOT
BRANCH   3  12
ATOM     12  C   UNL     1       2.100   6.601  19.815  0.00  0.00    +0.000 A 
ATOM     13  C   UNL     1       2.918   6.367  18.695  0.00  0.00    +0.000 A 
ATOM     14  C   UNL     1       3.489   5.109  18.467  0.00  0.00    +0.000 A 
ATOM     15  C   UNL     1       3.274   4.059  19.358  0.00  0.00    +0.000 A 
ATOM     16  C   UNL     1       2.427   4.256  20.445  0.00  0.00    +0.000 A 
ATOM     17  C   UNL     1       1.867   5.521  20.679  0.00  0.00    +0.000 A 
BRANCH  15  18
ATOM     18  O   UNL     1       3.884   2.888  19.025  0.00  0.00    +0.000 OA
BRANCH  18  19
ATOM     19  C   UNL     1       3.110   1.824  18.492  0.00  0.00    +0.000 C 
ATOM     20  F   UNL     1       2.021   1.501  19.218  0.00  0.00    +0.000 F 
ATOM     21  F   UNL     1       2.713   2.157  17.243  0.00  0.00    +0.000 F 
ATOM     22  F   UNL     1       3.891   0.725  18.405  0.00  0.00    +0.000 F 
ENDBRANCH  18  19
ENDBRANCH  15  18
ENDBRANCH   3  12
BRANCH   1  24
ATOM     23  O   UNL     1       2.310  11.843  18.341  0.00  0.00    +0.000 OA
ATOM     24  C   UNL     1       1.223  11.343  18.564  0.00  0.00    +0.000 C 
BRANCH  24  25
ATOM     25  O   UNL     1       0.100  11.761  17.947  0.00  0.00    +0.000 OA
ATOM     26  H   UNL     1       0.063  11.659  16.978  0.00  0.00    +0.000 HD
ENDBRANCH  24  25
ENDBRANCH   1  24
TORSDOF 5
ENDMDL
MODEL 9
REMARK VINA RESULT:      -7.7      5.940      8.565
REMARK  Name = 
REMARK  5 active torsions:
REMARK  status: ('A' for Active; 'I' for Inactive)
REMARK    1  A    between atoms: C_2  and  O_3
REMARK    2  A    between atoms: C_2  and  C_4
REMARK    3  A    between atoms: C_6  and  C_7
REMARK    4  A    between atoms: C_10  and  O_11
REMARK    5  A    between atoms: O_11  and  C_12
REMARK                            x       y       z     vdW  Elec       q    Type
REMARK                         _______ _______ _______ _____ _____    ______ ____
ROOT
ATOM      1  C   UNL     1       2.488   4.795  18.607  0.00  0.00    +0.000 A 
ATOM      2  C   UNL     1       1.898   5.791  19.379  0.00  0.00    +0.000 A 
ATOM      3  C   UNL     1       2.294   7.106  19.194  0.00  0.00    +0.000 A 
ATOM      4  N   UNL     1       3.240   7.438  18.288  0.00  0.00    +0.000 NA
ATOM      5  C   UNL     1       3.832   6.478  17.559  0.00  0.00    +0.000 A 
ATOM      6  C   UNL     1       4.841   6.867  16.685  0.00  0.00    +0.000 A 
ATOM      7  C   UNL     1       5.515   5.950  15.875  0.00  0.00    +0.000 A 
ATOM      8  C   UNL     1       5.159   4.615  15.929  0.00  0.00    +0.000 A 
ATOM      9 CL   UNL     1       5.958   3.475  14.920  0.00  0.00    +0.000 Cl
ATOM     10  C   UNL     1       4.156   4.194  16.801  0.00  0.00    +0.000 A 
ATOM     11  C   UNL     1       3.487   5.118  17.651  0.00  0.00    +0.000 A 
ENDROOT
BRANCH   3  12
ATOM     12  C   UNL     1       1.730   8.223  19.979  0.00  0.00    +0.000 A 
ATOM     13  C   UNL     1       1.617   8.159  21.379  0.00  0.00    +0.000 A 
ATOM     14  C   UNL     1       1.096   9.231  22.112  0.00  0.00    +0.000 A 
ATOM     15  C   UNL     1       0.689  10.400  21.470  0.00  0.00    +0.000 A 
ATOM     16  C   UNL     1       0.745  10.464  20.082  0.00  0.00    +0.000 A 
ATOM     17  C   UNL     1       1.281   9.394  19.350  0.00  0.00    +0.000 A 
BRANCH  15  18
ATOM     18  O   UNL     1       0.201  11.369  22.294  0.00  0.00    +0.000 OA
BRANCH  18  19
ATOM     19  C   UNL     1      -1.169  11.344  22.664  0.00  0.00    +0.000 C 
ATOM     20  F   UNL     1      -1.554  10.235  23.326  0.00  0.00    +0.000 F 
ATOM     21  F   UNL     1      -1.432  12.421  23.437  0.00  0.00    +0.000 F 
ATOM     22  F   UNL     1      -1.919  11.439  21.543  0.00  0.00    +0.000 F 
ENDBRANCH  18  19
ENDBRANCH  15  18
ENDBRANCH   3  12
BRANCH   1  24
ATOM     23  O   UNL     1       2.685   2.685  19.713  0.00  0.00    +0.000 OA
ATOM     24  C   UNL     1       2.112   3.376  18.891  0.00  0.00    +0.000 C 
BRANCH  24  25
ATOM     25  O   UNL     1       1.056   2.926  18.184  0.00  0.00    +0.000 OA
ATOM     26  H   UNL     1       0.231   2.762  18.676  0.00  0.00    +0.000 HD
ENDBRANCH  24  25
ENDBRANCH   1  24
TORSDOF 5
ENDMDL
