MODEL 1
REMARK VINA RESULT:      -8.7      0.000      0.000
REMARK  Name = 
REMARK  3 active torsions:
REMARK  status: ('A' for Active; 'I' for Inactive)
REMARK    1  A    between atoms: C_1  and  C_2
REMARK    2  A    between atoms: C_7  and  C_8
REMARK    3  A    between atoms: C_17  and  C_18
REMARK                            x       y       z     vdW  Elec       q    Type
REMARK                         _______ _______ _______ _____ _____    ______ ____
ROOT
ATOM      1  C   UNL     1       4.944   7.275  15.984  0.00  0.00    +0.000 C 
ATOM      2  C   UNL     1       4.685   5.889  16.503  0.00  0.00    +0.000 A 
ATOM      3  N   UNL     1       5.373   4.948  15.813  0.00  0.00    +0.000 NA
ATOM      4  N   UNL     1       5.239   3.641  16.126  0.00  0.00    +0.000 NA
ATOM      5  C   UNL     1       4.421   3.294  17.135  0.00  0.00    +0.000 A 
ATOM      6  F   UNL     1       4.304   1.972  17.360  0.00  0.00    +0.000 F 
ATOM      7  C   UNL     1       3.683   4.193  17.916  0.00  0.00    +0.000 A 
ATOM      8  C   UNL     1       3.807   5.583  17.576  0.00  0.00    +0.000 A 
ENDROOT
BRANCH   7   9
ATOM      9  C   UNL     1       2.856   3.644  19.031  0.00  0.00    +0.000 A 
ATOM     10  C   UNL     1       3.458   3.123  20.198  0.00  0.00    +0.000 A 
ATOM     11  F   UNL     1       4.791   3.078  20.303  0.00  0.00    +0.000 F 
ATOM     12  C   UNL     1       2.713   2.664  21.284  0.00  0.00    +0.000 A 
ATOM     13  C   UNL     1       1.340   2.763  21.249  0.00  0.00    +0.000 A 
ATOM     14  F   UNL     1       0.615   2.392  22.312  0.00  0.00    +0.000 F 
ATOM     15  C   UNL     1       0.695   3.246  20.115  0.00  0.00    +0.000 A 
ATOM     16  C   UNL     1       1.456   3.630  19.016  0.00  0.00    +0.000 A 
ATOM     17  F   UNL     1       0.797   4.013  17.912  0.00  0.00    +0.000 F 
ENDBRANCH   7   9
BRANCH   8  18
ATOM     18  C   UNL     1       3.058   6.665  18.291  0.00  0.00    +0.000 A 
ATOM     19  C   UNL     1       2.807   6.621  19.675  0.00  0.00    +0.000 A 
ATOM     20  C   UNL     1       2.001   7.581  20.309  0.00  0.00    +0.000 A 
ATOM     21  C   UNL     1       1.506   8.661  19.586  0.00  0.00    +0.000 A 
ATOM     22 CL   UNL     1       0.534   9.848  20.363  0.00  0.00    +0.000 Cl
ATOM     23  C   UNL     1       1.788   8.773  18.233  0.00  0.00    +0.000 A 
ATOM     24  C   UNL     1       2.519   7.765  17.591  0.00  0.00    +0.000 A 
ENDBRANCH   8  18
TORSDOF 2
ENDMDL
MODEL 2
REMARK VINA RESULT:      -8.1      0.194      1.692
REMARK  Name = 
REMARK  3 active torsions:
REMARK  status: ('A' for Active; 'I' for Inactive)
REMARK    1  A    between atoms: C_1  and  C_2
REMARK    2  A    between atoms: C_7  and  C_8
REMARK    3  A    between atoms: C_17  and  C_18
REMARK                            x       y       z     vdW  Elec       q    Type
REMARK                         _______ _______ _______ _____ _____    ______ ____
ROOT
ATOM      1  C   UNL     1       4.916   7.200  15.824  0.00  0.00    +0.000 C 
ATOM      2  C   UNL     1       4.665   5.850  16.436  0.00  0.00    +0.000 A 
ATOM      3  N   UNL     1       5.342   4.866  15.796  0.00  0.00    +0.000 NA
ATOM      4  N   UNL     1       5.212   3.583  16.196  0.00  0.00    +0.000 NA
ATOM      5  C   UNL     1       4.411   3.302  17.239  0.00  0.00    +0.000 A 
ATOM      6  F   UNL     1       4.297   1.998  17.551  0.00  0.00    +0.000 F 
ATOM      7  C   UNL     1       3.686   4.251  17.972  0.00  0.00    +0.000 A 
ATOM      8  C   UNL     1       3.806   5.616  17.540  0.00  0.00    +0.000 A 
ENDROOT
BRANCH   7   9
ATOM      9  C   UNL     1       2.878   3.777  19.134  0.00  0.00    +0.000 A 
ATOM     10  C   UNL     1       1.468   3.710  19.064  0.00  0.00    +0.000 A 
ATOM     11  F   UNL     1       0.831   4.112  17.957  0.00  0.00    +0.000 F 
ATOM     12  C   UNL     1       0.690   3.211  20.108  0.00  0.00    +0.000 A 
ATOM     13  C   UNL     1       1.309   2.718  21.234  0.00  0.00    +0.000 A 
ATOM     14  F   UNL     1       0.579   2.171  22.214  0.00  0.00    +0.000 F 
ATOM     15  C   UNL     1       2.692   2.782  21.365  0.00  0.00    +0.000 A 
ATOM     16  C   UNL     1       3.443   3.351  20.341  0.00  0.00    +0.000 A 
ATOM     17  F   UNL     1       4.765   3.469  20.538  0.00  0.00    +0.000 F 
ENDBRANCH   7   9
BRANCH   8  18
ATOM     18  C   UNL     1       3.069   6.743  18.196  0.00  0.00    +0.000 A 
ATOM     19  C   UNL     1       2.817   6.776  19.581  0.00  0.00    +0.000 A 
ATOM     20  C   UNL     1       2.022   7.777  20.161  0.00  0.00    +0.000 A 
ATOM     21  C   UNL     1       1.540   8.823  19.382  0.00  0.00    +0.000 A 
ATOM     22 CL   UNL     1       0.582  10.061  20.094  0.00  0.00    +0.000 Cl
ATOM     23  C   UNL     1       1.823   8.860  18.025  0.00  0.00    +0.000 A 
ATOM     24  C   UNL     1       2.543   7.811  17.439  0.00  0.00    +0.000 A 
ENDBRANCH   8  18
TORSDOF 2
ENDMDL
MODEL 3
REMARK VINA RESULT:      -8.1      2.461      4.472
REMARK  Name = 
REMARK  3 active torsions:
REMARK  status: ('A' for Active; 'I' for Inactive)
REMARK    1  A    between atoms: C_1  and  C_2
REMARK    2  A    between atoms: C_7  and  C_8
REMARK    3  A    between atoms: C_17  and  C_18
REMARK                            x       y       z     vdW  Elec       q    Type
REMARK                         _______ _______ _______ _____ _____    ______ ____
ROOT
ATOM      1  C   UNL     1       0.693   3.656  18.462  0.00  0.00    +0.000 C 
ATOM      2  C   UNL     1       2.118   3.693  17.984  0.00  0.00    +0.000 A 
ATOM      3  N   UNL     1       2.480   2.541  17.371  0.00  0.00    +0.000 NA
ATOM      4  N   UNL     1       3.737   2.387  16.901  0.00  0.00    +0.000 NA
ATOM      5  C   UNL     1       4.615   3.397  17.045  0.00  0.00    +0.000 A 
ATOM      6  F   UNL     1       5.859   3.154  16.593  0.00  0.00    +0.000 F 
ATOM      7  C   UNL     1       4.329   4.628  17.648  0.00  0.00    +0.000 A 
ATOM      8  C   UNL     1       2.999   4.791  18.166  0.00  0.00    +0.000 A 
ENDROOT
BRANCH   7   9
ATOM      9  C   UNL     1       5.406   5.662  17.686  0.00  0.00    +0.000 A 
ATOM     10  C   UNL     1       6.377   5.667  18.712  0.00  0.00    +0.000 A 
ATOM     11  F   UNL     1       6.321   4.760  19.694  0.00  0.00    +0.000 F 
ATOM     12  C   UNL     1       7.432   6.578  18.738  0.00  0.00    +0.000 A 
ATOM     13  C   UNL     1       7.571   7.479  17.707  0.00  0.00    +0.000 A 
ATOM     14  F   UNL     1       8.618   8.312  17.683  0.00  0.00    +0.000 F 
ATOM     15  C   UNL     1       6.629   7.533  16.685  0.00  0.00    +0.000 A 
ATOM     16  C   UNL     1       5.544   6.663  16.717  0.00  0.00    +0.000 A 
ATOM     17  F   UNL     1       4.615   6.799  15.760  0.00  0.00    +0.000 F 
ENDBRANCH   7   9
BRANCH   8  18
ATOM     18  C   UNL     1       2.546   6.034  18.869  0.00  0.00    +0.000 A 
ATOM     19  C   UNL     1       2.233   6.053  20.241  0.00  0.00    +0.000 A 
ATOM     20  C   UNL     1       1.696   7.194  20.858  0.00  0.00    +0.000 A 
ATOM     21  C   UNL     1       1.551   8.373  20.135  0.00  0.00    +0.000 A 
ATOM     22 CL   UNL     1       0.911   9.778  20.893  0.00  0.00    +0.000 Cl
ATOM     23  C   UNL     1       1.912   8.411  18.797  0.00  0.00    +0.000 A 
ATOM     24  C   UNL     1       2.364   7.245  18.168  0.00  0.00    +0.000 A 
ENDBRANCH   8  18
TORSDOF 2
ENDMDL
MODEL 4
REMARK VINA RESULT:      -7.9      2.296      4.613
REMARK  Name = 
REMARK  3 active torsions:
REMARK  status: ('A' for Active; 'I' for Inactive)
REMARK    1  A    between atoms: C_1  and  C_2
REMARK    2  A    between atoms: C_7  and  C_8
REMARK    3  A    between atoms: C_17  and  C_18
REMARK                            x       y       z     vdW  Elec       q    Type
REMARK                         _______ _______ _______ _____ _____    ______ ____
ROOT
ATOM      1  C   UNL     1       0.342   3.507  19.302  0.00  0.00    +0.000 C 
ATOM      2  C   UNL     1       1.710   3.342  18.701  0.00  0.00    +0.000 A 
ATOM      3  N   UNL     1       1.936   2.072  18.287  0.00  0.00    +0.000 NA
ATOM      4  N   UNL     1       3.127   1.736  17.746  0.00  0.00    +0.000 NA
ATOM      5  C   UNL     1       4.075   2.681  17.617  0.00  0.00    +0.000 A 
ATOM      6  F   UNL     1       5.249   2.262  17.110  0.00  0.00    +0.000 F 
ATOM      7  C   UNL     1       3.928   4.021  17.998  0.00  0.00    +0.000 A 
ATOM      8  C   UNL     1       2.671   4.381  18.592  0.00  0.00    +0.000 A 
ENDROOT
BRANCH   7   9
ATOM      9  C   UNL     1       5.065   4.955  17.744  0.00  0.00    +0.000 A 
ATOM     10  C   UNL     1       5.288   5.500  16.459  0.00  0.00    +0.000 A 
ATOM     11  F   UNL     1       4.499   5.151  15.435  0.00  0.00    +0.000 F 
ATOM     12  C   UNL     1       6.300   6.425  16.204  0.00  0.00    +0.000 A 
ATOM     13  C   UNL     1       7.086   6.867  17.243  0.00  0.00    +0.000 A 
ATOM     14  F   UNL     1       8.014   7.807  17.027  0.00  0.00    +0.000 F 
ATOM     15  C   UNL     1       6.924   6.346  18.523  0.00  0.00    +0.000 A 
ATOM     16  C   UNL     1       5.957   5.371  18.739  0.00  0.00    +0.000 A 
ATOM     17  F   UNL     1       5.885   4.834  19.966  0.00  0.00    +0.000 F 
ENDBRANCH   7   9
BRANCH   8  18
ATOM     18  C   UNL     1       2.370   5.763  19.084  0.00  0.00    +0.000 A 
ATOM     19  C   UNL     1       2.033   6.030  20.424  0.00  0.00    +0.000 A 
ATOM     20  C   UNL     1       1.636   7.311  20.843  0.00  0.00    +0.000 A 
ATOM     21  C   UNL     1       1.663   8.375  19.949  0.00  0.00    +0.000 A 
ATOM     22 CL   UNL     1       1.196   9.948  20.463  0.00  0.00    +0.000 Cl
ATOM     23  C   UNL     1       2.054   8.163  18.635  0.00  0.00    +0.000 A 
ATOM     24  C   UNL     1       2.363   6.867  18.205  0.00  0.00    +0.000 A 
ENDBRANCH   8  18
TORSDOF 2
ENDMDL
MODEL 5
REMARK VINA RESULT:      -7.8      9.359     11.277
REMARK  Name = 
REMARK  3 active torsions:
REMARK  status: ('A' for Active; 'I' for Inactive)
REMARK    1  A    between atoms: C_1  and  C_2
REMARK    2  A    between atoms: C_7  and  C_8
REMARK    3  A    between atoms: C_17  and  C_18
REMARK                            x       y       z     vdW  Elec       q    Type
REMARK                         _______ _______ _______ _____ _____    ______ ____
ROOT
ATOM      1  C   UNL     1       8.888  18.081  18.350  0.00  0.00    +0.000 C 
ATOM      2  C   UNL     1       9.554  16.778  18.004  0.00  0.00    +0.000 A 
ATOM      3  N   UNL     1      10.607  16.950  17.170  0.00  0.00    +0.000 NA
ATOM      4  N   UNL     1      11.308  15.881  16.732  0.00  0.00    +0.000 NA
ATOM      5  C   UNL     1      10.948  14.652  17.145  0.00  0.00    +0.000 A 
ATOM      6  F   UNL     1      11.664  13.634  16.633  0.00  0.00    +0.000 F 
ATOM      7  C   UNL     1       9.888  14.378  18.018  0.00  0.00    +0.000 A 
ATOM      8  C   UNL     1       9.128  15.508  18.472  0.00  0.00    +0.000 A 
ENDROOT
BRANCH   7   9
ATOM      9  C   UNL     1       9.650  12.958  18.415  0.00  0.00    +0.000 A 
ATOM     10  C   UNL     1       8.696  12.162  17.742  0.00  0.00    +0.000 A 
ATOM     11  F   UNL     1       7.958  12.688  16.756  0.00  0.00    +0.000 F 
ATOM     12  C   UNL     1       8.498  10.816  18.044  0.00  0.00    +0.000 A 
ATOM     13  C   UNL     1       9.288  10.216  18.999  0.00  0.00    +0.000 A 
ATOM     14  F   UNL     1       9.156   8.908  19.250  0.00  0.00    +0.000 F 
ATOM     15  C   UNL     1      10.225  10.959  19.708  0.00  0.00    +0.000 A 
ATOM     16  C   UNL     1      10.355  12.318  19.440  0.00  0.00    +0.000 A 
ATOM     17  F   UNL     1      11.211  13.018  20.199  0.00  0.00    +0.000 F 
ENDBRANCH   7   9
BRANCH   8  18
ATOM     18  C   UNL     1       7.943  15.380  19.380  0.00  0.00    +0.000 A 
ATOM     19  C   UNL     1       6.639  15.166  18.894  0.00  0.00    +0.000 A 
ATOM     20  C   UNL     1       5.525  15.169  19.748  0.00  0.00    +0.000 A 
ATOM     21  C   UNL     1       5.701  15.288  21.122  0.00  0.00    +0.000 A 
ATOM     22 CL   UNL     1       4.340  15.272  22.173  0.00  0.00    +0.000 Cl
ATOM     23  C   UNL     1       6.978  15.433  21.644  0.00  0.00    +0.000 A 
ATOM     24  C   UNL     1       8.075  15.518  20.778  0.00  0.00    +0.000 A 
ENDBRANCH   8  18
TORSDOF 2
ENDMDL
MODEL 6
REMARK VINA RESULT:      -7.8      2.294      4.428
REMARK  Name = 
REMARK  3 active torsions:
REMARK  status: ('A' for Active; 'I' for Inactive)
REMARK    1  A    between atoms: C_1  and  C_2
REMARK    2  A    between atoms: C_7  and  C_8
REMARK    3  A    between atoms: C_17  and  C_18
REMARK                            x       y       z     vdW  Elec       q    Type
REMARK                         _______ _______ _______ _____ _____    ______ ____
ROOT
ATOM      1  C   UNL     1       0.347   3.453  19.767  0.00  0.00    +0.000 C 
ATOM      2  C   UNL     1       1.657   3.274  19.051  0.00  0.00    +0.000 A 
ATOM      3  N   UNL     1       1.878   1.982  18.708  0.00  0.00    +0.000 NA
ATOM      4  N   UNL     1       3.021   1.632  18.079  0.00  0.00    +0.000 NA
ATOM      5  C   UNL     1       3.927   2.586  17.795  0.00  0.00    +0.000 A 
ATOM      6  F   UNL     1       5.059   2.155  17.209  0.00  0.00    +0.000 F 
ATOM      7  C   UNL     1       3.780   3.946  18.094  0.00  0.00    +0.000 A 
ATOM      8  C   UNL     1       2.574   4.322  18.779  0.00  0.00    +0.000 A 
ENDROOT
BRANCH   7   9
ATOM      9  C   UNL     1       4.862   4.883  17.667  0.00  0.00    +0.000 A 
ATOM     10  C   UNL     1       5.684   5.530  18.617  0.00  0.00    +0.000 A 
ATOM     11  F   UNL     1       5.476   5.340  19.926  0.00  0.00    +0.000 F 
ATOM     12  C   UNL     1       6.743   6.358  18.249  0.00  0.00    +0.000 A 
ATOM     13  C   UNL     1       7.039   6.521  16.914  0.00  0.00    +0.000 A 
ATOM     14  F   UNL     1       8.096   7.256  16.548  0.00  0.00    +0.000 F 
ATOM     15  C   UNL     1       6.248   5.925  15.937  0.00  0.00    +0.000 A 
ATOM     16  C   UNL     1       5.151   5.163  16.327  0.00  0.00    +0.000 A 
ATOM     17  F   UNL     1       4.365   4.672  15.358  0.00  0.00    +0.000 F 
ENDBRANCH   7   9
BRANCH   8  18
ATOM     18  C   UNL     1       2.283   5.729  19.199  0.00  0.00    +0.000 A 
ATOM     19  C   UNL     1       1.943   6.066  20.523  0.00  0.00    +0.000 A 
ATOM     20  C   UNL     1       1.556   7.369  20.875  0.00  0.00    +0.000 A 
ATOM     21  C   UNL     1       1.595   8.387  19.929  0.00  0.00    +0.000 A 
ATOM     22 CL   UNL     1       1.139   9.988  20.362  0.00  0.00    +0.000 Cl
ATOM     23  C   UNL     1       1.989   8.106  18.630  0.00  0.00    +0.000 A 
ATOM     24  C   UNL     1       2.289   6.787  18.266  0.00  0.00    +0.000 A 
ENDBRANCH   8  18
TORSDOF 2
ENDMDL
MODEL 7
REMARK VINA RESULT:      -7.5      9.675     11.435
REMARK  Name = 
REMARK  3 active torsions:
REMARK  status: ('A' for Active; 'I' for Inactive)
REMARK    1  A    between atoms: C_1  and  C_2
REMARK    2  A    between atoms: C_7  and  C_8
REMARK    3  A    between atoms: C_17  and  C_18
REMARK                            x       y       z     vdW  Elec       q    Type
REMARK                         _______ _______ _______ _____ _____    ______ ____
ROOT
ATOM      1  C   UNL     1      10.795  17.542  20.045  0.00  0.00    +0.000 C 
ATOM      2  C   UNL     1      10.936  16.292  19.224  0.00  0.00    +0.000 A 
ATOM      3  N   UNL     1      11.774  16.463  18.173  0.00  0.00    +0.000 NA
ATOM      4  N   UNL     1      11.998  15.449  17.310  0.00  0.00    +0.000 NA
ATOM      5  C   UNL     1      11.384  14.270  17.516  0.00  0.00    +0.000 A 
ATOM      6  F   UNL     1      11.620  13.321  16.591  0.00  0.00    +0.000 F 
ATOM      7  C   UNL     1      10.517  13.993  18.581  0.00  0.00    +0.000 A 
ATOM      8  C   UNL     1      10.260  15.073  19.492  0.00  0.00    +0.000 A 
ENDROOT
BRANCH   7   9
ATOM      9  C   UNL     1       9.953  12.614  18.691  0.00  0.00    +0.000 A 
ATOM     10  C   UNL     1       8.915  12.179  17.837  0.00  0.00    +0.000 A 
ATOM     11  F   UNL     1       8.392  13.018  16.935  0.00  0.00    +0.000 F 
ATOM     12  C   UNL     1       8.414  10.879  17.871  0.00  0.00    +0.000 A 
ATOM     13  C   UNL     1       8.976   9.962  18.731  0.00  0.00    +0.000 A 
ATOM     14  F   UNL     1       8.552   8.692  18.725  0.00  0.00    +0.000 F 
ATOM     15  C   UNL     1       9.984  10.344  19.610  0.00  0.00    +0.000 A 
ATOM     16  C   UNL     1      10.418  11.665  19.609  0.00  0.00    +0.000 A 
ATOM     17  F   UNL     1      11.333  12.015  20.526  0.00  0.00    +0.000 F 
ENDBRANCH   7   9
BRANCH   8  18
ATOM     18  C   UNL     1       9.331  14.948  20.660  0.00  0.00    +0.000 A 
ATOM     19  C   UNL     1       9.788  14.671  21.962  0.00  0.00    +0.000 A 
ATOM     20  C   UNL     1       8.896  14.438  23.022  0.00  0.00    +0.000 A 
ATOM     21  C   UNL     1       7.527  14.574  22.822  0.00  0.00    +0.000 A 
ATOM     22 CL   UNL     1       6.434  14.308  24.123  0.00  0.00    +0.000 Cl
ATOM     23  C   UNL     1       7.043  14.912  21.568  0.00  0.00    +0.000 A 
ATOM     24  C   UNL     1       7.933  15.056  20.496  0.00  0.00    +0.000 A 
ENDBRANCH   8  18
TORSDOF 2
ENDMDL
MODEL 8
REMARK VINA RESULT:      -7.4      2.446      4.722
REMARK  Name = 
REMARK  3 active torsions:
REMARK  status: ('A' for Active; 'I' for Inactive)
REMARK    1  A    between atoms: C_1  and  C_2
REMARK    2  A    between atoms: C_7  and  C_8
REMARK    3  A    between atoms: C_17  and  C_18
REMARK                            x       y       z     vdW  Elec       q    Type
REMARK                         _______ _______ _______ _____ _____    ______ ____
ROOT
ATOM      1  C   UNL     1       0.457   4.278  20.395  0.00  0.00    +0.000 C 
ATOM      2  C   UNL     1       1.785   3.836  19.849  0.00  0.00    +0.000 A 
ATOM      3  N   UNL     1       1.985   2.505  20.011  0.00  0.00    +0.000 NA
ATOM      4  N   UNL     1       3.141   1.938  19.601  0.00  0.00    +0.000 NA
ATOM      5  C   UNL     1       4.079   2.711  19.026  0.00  0.00    +0.000 A 
ATOM      6  F   UNL     1       5.220   2.084  18.685  0.00  0.00    +0.000 F 
ATOM      7  C   UNL     1       3.956   4.088  18.801  0.00  0.00    +0.000 A 
ATOM      8  C   UNL     1       2.737   4.701  19.250  0.00  0.00    +0.000 A 
ENDROOT
BRANCH   7   9
ATOM      9  C   UNL     1       5.075   4.792  18.106  0.00  0.00    +0.000 A 
ATOM     10  C   UNL     1       5.159   4.814  16.696  0.00  0.00    +0.000 A 
ATOM     11  F   UNL     1       4.250   4.166  15.958  0.00  0.00    +0.000 F 
ATOM     12  C   UNL     1       6.154   5.517  16.017  0.00  0.00    +0.000 A 
ATOM     13  C   UNL     1       7.064   6.259  16.735  0.00  0.00    +0.000 A 
ATOM     14  F   UNL     1       7.981   6.995  16.094  0.00  0.00    +0.000 F 
ATOM     15  C   UNL     1       7.041   6.252  18.126  0.00  0.00    +0.000 A 
ATOM     16  C   UNL     1       6.085   5.485  18.783  0.00  0.00    +0.000 A 
ATOM     17  F   UNL     1       6.144   5.439  20.122  0.00  0.00    +0.000 F 
ENDBRANCH   7   9
BRANCH   8  18
ATOM     18  C   UNL     1       2.467   6.168  19.115  0.00  0.00    +0.000 A 
ATOM     19  C   UNL     1       2.144   6.981  20.218  0.00  0.00    +0.000 A 
ATOM     20  C   UNL     1       1.776   8.326  20.059  0.00  0.00    +0.000 A 
ATOM     21  C   UNL     1       1.818   8.915  18.800  0.00  0.00    +0.000 A 
ATOM     22 CL   UNL     1       1.386  10.569  18.605  0.00  0.00    +0.000 Cl
ATOM     23  C   UNL     1       2.196   8.163  17.699  0.00  0.00    +0.000 A 
ATOM     24  C   UNL     1       2.476   6.800  17.853  0.00  0.00    +0.000 A 
ENDBRANCH   8  18
TORSDOF 2
ENDMDL
MODEL 9
REMARK VINA RESULT:      -7.3      9.761     11.490
REMARK  Name = 
REMARK  3 active torsions:
REMARK  status: ('A' for Active; 'I' for Inactive)
REMARK    1  A    between atoms: C_1  and  C_2
REMARK    2  A    between atoms: C_7  and  C_8
REMARK    3  A    between atoms: C_17  and  C_18
REMARK                            x       y       z     vdW  Elec       q    Type
REMARK                         _______ _______ _______ _____ _____    ______ ____
ROOT
ATOM      1  C   UNL     1      10.185  16.378  23.341  0.00  0.00    +0.000 C 
ATOM      2  C   UNL     1      10.518  15.792  21.998  0.00  0.00    +0.000 A 
ATOM      3  N   UNL     1      11.437  16.533  21.332  0.00  0.00    +0.000 NA
ATOM      4  N   UNL     1      11.836  16.168  20.094  0.00  0.00    +0.000 NA
ATOM      5  C   UNL     1      11.313  15.059  19.541  0.00  0.00    +0.000 A 
ATOM      6  F   UNL     1      11.724  14.784  18.290  0.00  0.00    +0.000 F 
ATOM      7  C   UNL     1      10.373  14.222  20.157  0.00  0.00    +0.000 A 
ATOM      8  C   UNL     1       9.932  14.614  21.466  0.00  0.00    +0.000 A 
ENDROOT
BRANCH   7   9
ATOM      9  C   UNL     1       9.929  13.001  19.422  0.00  0.00    +0.000 A 
ATOM     10  C   UNL     1      10.423  11.722  19.765  0.00  0.00    +0.000 A 
ATOM     11  F   UNL     1      11.334  11.593  20.737  0.00  0.00    +0.000 F 
ATOM     12  C   UNL     1       9.978  10.556  19.143  0.00  0.00    +0.000 A 
ATOM     13  C   UNL     1       8.987  10.637  18.191  0.00  0.00    +0.000 A 
ATOM     14  F   UNL     1       8.501   9.520  17.635  0.00  0.00    +0.000 F 
ATOM     15  C   UNL     1       8.483  11.872  17.798  0.00  0.00    +0.000 A 
ATOM     16  C   UNL     1       8.994  13.027  18.381  0.00  0.00    +0.000 A 
ATOM     17  F   UNL     1       8.542  14.203  17.920  0.00  0.00    +0.000 F 
ENDBRANCH   7   9
BRANCH   8  18
ATOM     18  C   UNL     1       8.907  13.846  22.242  0.00  0.00    +0.000 A 
ATOM     19  C   UNL     1       9.249  12.787  23.103  0.00  0.00    +0.000 A 
ATOM     20  C   UNL     1       8.269  12.000  23.729  0.00  0.00    +0.000 A 
ATOM     21  C   UNL     1       6.924  12.317  23.583  0.00  0.00    +0.000 A 
ATOM     22 CL   UNL     1       5.722  11.367  24.364  0.00  0.00    +0.000 Cl
ATOM     23  C   UNL     1       6.550  13.395  22.795  0.00  0.00    +0.000 A 
ATOM     24  C   UNL     1       7.529  14.121  22.104  0.00  0.00    +0.000 A 
ENDBRANCH   8  18
TORSDOF 2
ENDMDL
