MODEL 1
REMARK VINA RESULT:      -6.5      0.000      0.000
REMARK  Name = 
REMARK  9 active torsions:
REMARK  status: ('A' for Active; 'I' for Inactive)
REMARK    1  A    between atoms: C_1  and  O_2
REMARK    2  A    between atoms: O_2  and  C_3
REMARK    3  A    between atoms: C_5  and  O_6
REMARK    4  A    between atoms: O_6  and  C_7
REMARK    5  A    between atoms: C_8  and  C_9
REMARK    6  A    between atoms: C_9  and  C_11
REMARK    7  A    between atoms: C_11  and  C_12
REMARK    8  A    between atoms: C_15  and  O_16
REMARK    9  A    between atoms: O_16  and  C_17
REMARK                            x       y       z     vdW  Elec       q    Type
REMARK                         _______ _______ _______ _____ _____    ______ ____
ROOT
ATOM      1  C   UNL     1       2.177   4.422  18.375  0.00  0.00    +0.000 A 
ATOM      2  C   UNL     1       2.480   5.793  18.354  0.00  0.00    +0.000 A 
ATOM      3  C   UNL     1       3.558   6.300  17.610  0.00  0.00    +0.000 A 
ATOM      4  C   UNL     1       4.406   5.413  16.939  0.00  0.00    +0.000 A 
ATOM      5  C   UNL     1       4.124   4.040  16.990  0.00  0.00    +0.000 A 
ATOM      6  C   UNL     1       3.027   3.534  17.704  0.00  0.00    +0.000 A 
ENDROOT
BRANCH   1   8
ATOM      7  C   UNL     1       1.255   3.786  20.474  0.00  0.00    +0.000 C 
ATOM      8  O   UNL     1       1.103   3.927  19.065  0.00  0.00    +0.000 OA
ENDBRANCH   1   8
BRANCH   3   9
ATOM      9  O   UNL     1       3.688   7.661  17.694  0.00  0.00    +0.000 OA
ATOM     10  C   UNL     1       2.483   8.399  17.880  0.00  0.00    +0.000 C 
ENDBRANCH   3   9
BRANCH   4  11
ATOM     11  C   UNL     1       5.671   5.855  16.293  0.00  0.00    +0.000 C 
ATOM     12  O   UNL     1       5.656   6.408  15.199  0.00  0.00    +0.000 OA
BRANCH  11  13
ATOM     13  C   UNL     1       7.018   5.640  16.977  0.00  0.00    +0.000 C 
ATOM     14  C   UNL     1       7.482   6.703  17.933  0.00  0.00    +0.000 C 
ATOM     15  O   UNL     1       7.699   4.651  16.728  0.00  0.00    +0.000 OA
ENDBRANCH  11  13
ENDBRANCH   4  11
BRANCH   6  16
ATOM     16  O   UNL     1       2.953   2.169  17.618  0.00  0.00    +0.000 OA
ATOM     17  C   UNL     1       3.613   1.372  18.588  0.00  0.00    +0.000 C 
ENDBRANCH   6  16
TORSDOF 5
ENDMDL
MODEL 2
REMARK VINA RESULT:      -6.4      1.388      4.716
REMARK  Name = 
REMARK  9 active torsions:
REMARK  status: ('A' for Active; 'I' for Inactive)
REMARK    1  A    between atoms: C_1  and  O_2
REMARK    2  A    between atoms: O_2  and  C_3
REMARK    3  A    between atoms: C_5  and  O_6
REMARK    4  A    between atoms: O_6  and  C_7
REMARK    5  A    between atoms: C_8  and  C_9
REMARK    6  A    between atoms: C_9  and  C_11
REMARK    7  A    between atoms: C_11  and  C_12
REMARK    8  A    between atoms: C_15  and  O_16
REMARK    9  A    between atoms: O_16  and  C_17
REMARK                            x       y       z     vdW  Elec       q    Type
REMARK                         _______ _______ _______ _____ _____    ______ ____
ROOT
ATOM      1  C   UNL     1       5.583   6.088  16.848  0.00  0.00    +0.000 A 
ATOM      2  C   UNL     1       4.576   6.788  17.531  0.00  0.00    +0.000 A 
ATOM      3  C   UNL     1       3.403   6.152  17.971  0.00  0.00    +0.000 A 
ATOM      4  C   UNL     1       3.190   4.806  17.650  0.00  0.00    +0.000 A 
ATOM      5  C   UNL     1       4.182   4.117  16.937  0.00  0.00    +0.000 A 
ATOM      6  C   UNL     1       5.370   4.741  16.527  0.00  0.00    +0.000 A 
ENDROOT
BRANCH   1   8
ATOM      7  C   UNL     1       7.499   7.357  17.464  0.00  0.00    +0.000 C 
ATOM      8  O   UNL     1       6.746   6.692  16.454  0.00  0.00    +0.000 OA
ENDBRANCH   1   8
BRANCH   3   9
ATOM      9  O   UNL     1       2.544   6.987  18.633  0.00  0.00    +0.000 OA
ATOM     10  C   UNL     1       2.276   8.241  18.009  0.00  0.00    +0.000 C 
ENDBRANCH   3   9
BRANCH   4  11
ATOM     11  C   UNL     1       1.897   4.120  17.912  0.00  0.00    +0.000 C 
ATOM     12  O   UNL     1       0.973   4.194  17.109  0.00  0.00    +0.000 OA
BRANCH  11  13
ATOM     13  C   UNL     1       1.686   3.301  19.183  0.00  0.00    +0.000 C 
ATOM     14  C   UNL     1       1.180   4.032  20.396  0.00  0.00    +0.000 C 
ATOM     15  O   UNL     1       1.949   2.105  19.211  0.00  0.00    +0.000 OA
ENDBRANCH  11  13
ENDBRANCH   4  11
BRANCH   6  16
ATOM     16  O   UNL     1       6.185   3.879  15.843  0.00  0.00    +0.000 OA
ATOM     17  C   UNL     1       6.184   3.895  14.425  0.00  0.00    +0.000 C 
ENDBRANCH   6  16
TORSDOF 5
ENDMDL
MODEL 3
REMARK VINA RESULT:      -6.2      1.697      3.126
REMARK  Name = 
REMARK  9 active torsions:
REMARK  status: ('A' for Active; 'I' for Inactive)
REMARK    1  A    between atoms: C_1  and  O_2
REMARK    2  A    between atoms: O_2  and  C_3
REMARK    3  A    between atoms: C_5  and  O_6
REMARK    4  A    between atoms: O_6  and  C_7
REMARK    5  A    between atoms: C_8  and  C_9
REMARK    6  A    between atoms: C_9  and  C_11
REMARK    7  A    between atoms: C_11  and  C_12
REMARK    8  A    between atoms: C_15  and  O_16
REMARK    9  A    between atoms: O_16  and  C_17
REMARK                            x       y       z     vdW  Elec       q    Type
REMARK                         _______ _______ _______ _____ _____    ______ ____
ROOT
ATOM      1  C   UNL     1       3.514   6.423  17.914  0.00  0.00    +0.000 A 
ATOM      2  C   UNL     1       4.655   7.202  17.667  0.00  0.00    +0.000 A 
ATOM      3  C   UNL     1       5.739   6.709  16.922  0.00  0.00    +0.000 A 
ATOM      4  C   UNL     1       5.723   5.380  16.484  0.00  0.00    +0.000 A 
ATOM      5  C   UNL     1       4.598   4.591  16.762  0.00  0.00    +0.000 A 
ATOM      6  C   UNL     1       3.499   5.092  17.476  0.00  0.00    +0.000 A 
ENDROOT
BRANCH   1   8
ATOM      7  C   UNL     1       2.097   8.276  18.379  0.00  0.00    +0.000 C 
ATOM      8  O   UNL     1       2.438   6.911  18.604  0.00  0.00    +0.000 OA
ENDBRANCH   1   8
BRANCH   3   9
ATOM      9  O   UNL     1       6.754   7.616  16.767  0.00  0.00    +0.000 OA
ATOM     10  C   UNL     1       7.737   7.644  17.800  0.00  0.00    +0.000 C 
ENDBRANCH   3   9
BRANCH   4  11
ATOM     11  C   UNL     1       6.908   4.734  15.860  0.00  0.00    +0.000 C 
ATOM     12  O   UNL     1       7.745   4.159  16.549  0.00  0.00    +0.000 OA
BRANCH  11  13
ATOM     13  C   UNL     1       7.111   4.760  14.347  0.00  0.00    +0.000 C 
ATOM     14  C   UNL     1       6.266   3.829  13.524  0.00  0.00    +0.000 C 
ATOM     15  O   UNL     1       7.951   5.493  13.839  0.00  0.00    +0.000 OA
ENDBRANCH  11  13
ENDBRANCH   4  11
BRANCH   6  16
ATOM     16  O   UNL     1       2.522   4.144  17.634  0.00  0.00    +0.000 OA
ATOM     17  C   UNL     1       2.876   2.771  17.628  0.00  0.00    +0.000 C 
ENDBRANCH   6  16
TORSDOF 5
ENDMDL
MODEL 4
REMARK VINA RESULT:      -6.2      1.805      4.926
REMARK  Name = 
REMARK  9 active torsions:
REMARK  status: ('A' for Active; 'I' for Inactive)
REMARK    1  A    between atoms: C_1  and  O_2
REMARK    2  A    between atoms: O_2  and  C_3
REMARK    3  A    between atoms: C_5  and  O_6
REMARK    4  A    between atoms: O_6  and  C_7
REMARK    5  A    between atoms: C_8  and  C_9
REMARK    6  A    between atoms: C_9  and  C_11
REMARK    7  A    between atoms: C_11  and  C_12
REMARK    8  A    between atoms: C_15  and  O_16
REMARK    9  A    between atoms: O_16  and  C_17
REMARK                            x       y       z     vdW  Elec       q    Type
REMARK                         _______ _______ _______ _____ _____    ______ ____
ROOT
ATOM      1  C   UNL     1       6.475   5.857  16.928  0.00  0.00    +0.000 A 
ATOM      2  C   UNL     1       5.746   5.858  18.127  0.00  0.00    +0.000 A 
ATOM      3  C   UNL     1       4.690   4.958  18.351  0.00  0.00    +0.000 A 
ATOM      4  C   UNL     1       4.295   4.094  17.323  0.00  0.00    +0.000 A 
ATOM      5  C   UNL     1       5.001   4.119  16.112  0.00  0.00    +0.000 A 
ATOM      6  C   UNL     1       6.079   4.992  15.899  0.00  0.00    +0.000 A 
ENDROOT
BRANCH   1   8
ATOM      7  C   UNL     1       7.672   7.789  17.631  0.00  0.00    +0.000 C 
ATOM      8  O   UNL     1       7.531   6.702  16.721  0.00  0.00    +0.000 OA
ENDBRANCH   1   8
BRANCH   3   9
ATOM      9  O   UNL     1       4.108   5.093  19.583  0.00  0.00    +0.000 OA
ATOM     10  C   UNL     1       3.035   6.027  19.675  0.00  0.00    +0.000 C 
ENDBRANCH   3   9
BRANCH   4  11
ATOM     11  C   UNL     1       3.072   3.254  17.415  0.00  0.00    +0.000 C 
ATOM     12  O   UNL     1       2.114   3.457  16.677  0.00  0.00    +0.000 OA
BRANCH  11  13
ATOM     13  C   UNL     1       2.978   2.113  18.425  0.00  0.00    +0.000 C 
ATOM     14  C   UNL     1       1.858   2.171  19.426  0.00  0.00    +0.000 C 
ATOM     15  O   UNL     1       3.803   1.206  18.428  0.00  0.00    +0.000 OA
ENDBRANCH  11  13
ENDBRANCH   4  11
BRANCH   6  16
ATOM     16  O   UNL     1       6.611   4.845  14.645  0.00  0.00    +0.000 OA
ATOM     17  C   UNL     1       6.092   3.848  13.780  0.00  0.00    +0.000 C 
ENDBRANCH   6  16
TORSDOF 5
ENDMDL
MODEL 5
REMARK VINA RESULT:      -6.1      2.088      2.885
REMARK  Name = 
REMARK  9 active torsions:
REMARK  status: ('A' for Active; 'I' for Inactive)
REMARK    1  A    between atoms: C_1  and  O_2
REMARK    2  A    between atoms: O_2  and  C_3
REMARK    3  A    between atoms: C_5  and  O_6
REMARK    4  A    between atoms: O_6  and  C_7
REMARK    5  A    between atoms: C_8  and  C_9
REMARK    6  A    between atoms: C_9  and  C_11
REMARK    7  A    between atoms: C_11  and  C_12
REMARK    8  A    between atoms: C_15  and  O_16
REMARK    9  A    between atoms: O_16  and  C_17
REMARK                            x       y       z     vdW  Elec       q    Type
REMARK                         _______ _______ _______ _____ _____    ______ ____
ROOT
ATOM      1  C   UNL     1       4.329   3.619  19.134  0.00  0.00    +0.000 A 
ATOM      2  C   UNL     1       5.340   4.592  19.182  0.00  0.00    +0.000 A 
ATOM      3  C   UNL     1       5.695   5.344  18.049  0.00  0.00    +0.000 A 
ATOM      4  C   UNL     1       5.088   5.062  16.820  0.00  0.00    +0.000 A 
ATOM      5  C   UNL     1       4.104   4.065  16.766  0.00  0.00    +0.000 A 
ATOM      6  C   UNL     1       3.722   3.337  17.903  0.00  0.00    +0.000 A 
ENDROOT
BRANCH   1   8
ATOM      7  C   UNL     1       4.696   1.736  20.542  0.00  0.00    +0.000 C 
ATOM      8  O   UNL     1       3.950   2.913  20.243  0.00  0.00    +0.000 OA
ENDBRANCH   1   8
BRANCH   3   9
ATOM      9  O   UNL     1       6.686   6.258  18.288  0.00  0.00    +0.000 OA
ATOM     10  C   UNL     1       7.813   5.787  19.024  0.00  0.00    +0.000 C 
ENDBRANCH   3   9
BRANCH   4  11
ATOM     11  C   UNL     1       5.546   5.679  15.547  0.00  0.00    +0.000 C 
ATOM     12  O   UNL     1       5.077   6.745  15.162  0.00  0.00    +0.000 OA
BRANCH  11  13
ATOM     13  C   UNL     1       6.614   5.007  14.688  0.00  0.00    +0.000 C 
ATOM     14  C   UNL     1       6.160   3.925  13.748  0.00  0.00    +0.000 C 
ATOM     15  O   UNL     1       7.793   5.324  14.790  0.00  0.00    +0.000 OA
ENDBRANCH  11  13
ENDBRANCH   4  11
BRANCH   6  16
ATOM     16  O   UNL     1       2.752   2.414  17.613  0.00  0.00    +0.000 OA
ATOM     17  C   UNL     1       1.492   2.500  18.259  0.00  0.00    +0.000 C 
ENDBRANCH   6  16
TORSDOF 5
ENDMDL
MODEL 6
REMARK VINA RESULT:      -6.1      1.484      4.810
REMARK  Name = 
REMARK  9 active torsions:
REMARK  status: ('A' for Active; 'I' for Inactive)
REMARK    1  A    between atoms: C_1  and  O_2
REMARK    2  A    between atoms: O_2  and  C_3
REMARK    3  A    between atoms: C_5  and  O_6
REMARK    4  A    between atoms: O_6  and  C_7
REMARK    5  A    between atoms: C_8  and  C_9
REMARK    6  A    between atoms: C_9  and  C_11
REMARK    7  A    between atoms: C_11  and  C_12
REMARK    8  A    between atoms: C_15  and  O_16
REMARK    9  A    between atoms: O_16  and  C_17
REMARK                            x       y       z     vdW  Elec       q    Type
REMARK                         _______ _______ _______ _____ _____    ______ ____
ROOT
ATOM      1  C   UNL     1       5.305   6.416  16.948  0.00  0.00    +0.000 A 
ATOM      2  C   UNL     1       4.197   7.095  17.479  0.00  0.00    +0.000 A 
ATOM      3  C   UNL     1       3.061   6.407  17.939  0.00  0.00    +0.000 A 
ATOM      4  C   UNL     1       2.992   5.018  17.789  0.00  0.00    +0.000 A 
ATOM      5  C   UNL     1       4.085   4.345  17.226  0.00  0.00    +0.000 A 
ATOM      6  C   UNL     1       5.236   5.025  16.798  0.00  0.00    +0.000 A 
ENDROOT
BRANCH   1   8
ATOM      7  C   UNL     1       7.460   7.256  17.506  0.00  0.00    +0.000 C 
ATOM      8  O   UNL     1       6.431   7.077  16.537  0.00  0.00    +0.000 OA
ENDBRANCH   1   8
BRANCH   3   9
ATOM      9  O   UNL     1       2.089   7.231  18.440  0.00  0.00    +0.000 OA
ATOM     10  C   UNL     1       2.153   7.504  19.838  0.00  0.00    +0.000 C 
ENDBRANCH   3   9
BRANCH   4  11
ATOM     11  C   UNL     1       1.752   4.247  18.073  0.00  0.00    +0.000 C 
ATOM     12  O   UNL     1       0.908   4.073  17.201  0.00  0.00    +0.000 OA
BRANCH  11  13
ATOM     13  C   UNL     1       1.500   3.647  19.454  0.00  0.00    +0.000 C 
ATOM     14  C   UNL     1       2.109   2.303  19.741  0.00  0.00    +0.000 C 
ATOM     15  O   UNL     1       0.806   4.232  20.277  0.00  0.00    +0.000 OA
ENDBRANCH  11  13
ENDBRANCH   4  11
BRANCH   6  16
ATOM     16  O   UNL     1       6.168   4.167  16.277  0.00  0.00    +0.000 OA
ATOM     17  C   UNL     1       6.205   3.944  14.877  0.00  0.00    +0.000 C 
ENDBRANCH   6  16
TORSDOF 5
ENDMDL
MODEL 7
REMARK VINA RESULT:      -6.0      1.837      3.281
REMARK  Name = 
REMARK  9 active torsions:
REMARK  status: ('A' for Active; 'I' for Inactive)
REMARK    1  A    between atoms: C_1  and  O_2
REMARK    2  A    between atoms: O_2  and  C_3
REMARK    3  A    between atoms: C_5  and  O_6
REMARK    4  A    between atoms: O_6  and  C_7
REMARK    5  A    between atoms: C_8  and  C_9
REMARK    6  A    between atoms: C_9  and  C_11
REMARK    7  A    between atoms: C_11  and  C_12
REMARK    8  A    between atoms: C_15  and  O_16
REMARK    9  A    between atoms: O_16  and  C_17
REMARK                            x       y       z     vdW  Elec       q    Type
REMARK                         _______ _______ _______ _____ _____    ______ ____
ROOT
ATOM      1  C   UNL     1       2.713   4.130  17.881  0.00  0.00    +0.000 A 
ATOM      2  C   UNL     1       3.668   3.711  16.940  0.00  0.00    +0.000 A 
ATOM      3  C   UNL     1       5.021   4.072  17.051  0.00  0.00    +0.000 A 
ATOM      4  C   UNL     1       5.419   4.940  18.074  0.00  0.00    +0.000 A 
ATOM      5  C   UNL     1       4.457   5.386  18.992  0.00  0.00    +0.000 A 
ATOM      6  C   UNL     1       3.111   4.999  18.904  0.00  0.00    +0.000 A 
ENDROOT
BRANCH   1   8
ATOM      7  C   UNL     1       1.003   2.648  18.616  0.00  0.00    +0.000 C 
ATOM      8  O   UNL     1       1.402   3.747  17.802  0.00  0.00    +0.000 OA
ENDBRANCH   1   8
BRANCH   3   9
ATOM      9  O   UNL     1       5.808   3.557  16.055  0.00  0.00    +0.000 OA
ATOM     10  C   UNL     1       5.728   4.207  14.789  0.00  0.00    +0.000 C 
ENDBRANCH   3   9
BRANCH   4  11
ATOM     11  C   UNL     1       6.788   5.516  18.142  0.00  0.00    +0.000 C 
ATOM     12  O   UNL     1       7.690   4.923  18.723  0.00  0.00    +0.000 OA
BRANCH  11  13
ATOM     13  C   UNL     1       7.109   6.856  17.484  0.00  0.00    +0.000 C 
ATOM     14  C   UNL     1       8.110   7.739  18.175  0.00  0.00    +0.000 C 
ATOM     15  O   UNL     1       6.547   7.199  16.450  0.00  0.00    +0.000 OA
ENDBRANCH  11  13
ENDBRANCH   4  11
BRANCH   6  16
ATOM     16  O   UNL     1       2.357   5.561  19.900  0.00  0.00    +0.000 OA
ATOM     17  C   UNL     1       2.210   6.970  19.953  0.00  0.00    +0.000 C 
ENDBRANCH   6  16
TORSDOF 5
ENDMDL
MODEL 8
REMARK VINA RESULT:      -6.0      1.517      4.775
REMARK  Name = 
REMARK  9 active torsions:
REMARK  status: ('A' for Active; 'I' for Inactive)
REMARK    1  A    between atoms: C_1  and  O_2
REMARK    2  A    between atoms: O_2  and  C_3
REMARK    3  A    between atoms: C_5  and  O_6
REMARK    4  A    between atoms: O_6  and  C_7
REMARK    5  A    between atoms: C_8  and  C_9
REMARK    6  A    between atoms: C_9  and  C_11
REMARK    7  A    between atoms: C_11  and  C_12
REMARK    8  A    between atoms: C_15  and  O_16
REMARK    9  A    between atoms: O_16  and  C_17
REMARK                            x       y       z     vdW  Elec       q    Type
REMARK                         _______ _______ _______ _____ _____    ______ ____
ROOT
ATOM      1  C   UNL     1       6.073   6.420  16.930  0.00  0.00    +0.000 A 
ATOM      2  C   UNL     1       4.943   6.700  17.714  0.00  0.00    +0.000 A 
ATOM      3  C   UNL     1       4.005   5.706  18.039  0.00  0.00    +0.000 A 
ATOM      4  C   UNL     1       4.150   4.423  17.501  0.00  0.00    +0.000 A 
ATOM      5  C   UNL     1       5.261   4.153  16.689  0.00  0.00    +0.000 A 
ATOM      6  C   UNL     1       6.219   5.135  16.392  0.00  0.00    +0.000 A 
ENDROOT
BRANCH   1   8
ATOM      7  C   UNL     1       7.766   7.882  17.742  0.00  0.00    +0.000 C 
ATOM      8  O   UNL     1       7.012   7.374  16.645  0.00  0.00    +0.000 OA
ENDBRANCH   1   8
BRANCH   3   9
ATOM      9  O   UNL     1       2.979   6.159  18.826  0.00  0.00    +0.000 OA
ATOM     10  C   UNL     1       2.487   7.464  18.531  0.00  0.00    +0.000 C 
ENDBRANCH   3   9
BRANCH   4  11
ATOM     11  C   UNL     1       3.103   3.377  17.642  0.00  0.00    +0.000 C 
ATOM     12  O   UNL     1       2.280   3.189  16.752  0.00  0.00    +0.000 OA
BRANCH  11  13
ATOM     13  C   UNL     1       3.027   2.505  18.893  0.00  0.00    +0.000 C 
ATOM     14  C   UNL     1       4.251   2.446  19.765  0.00  0.00    +0.000 C 
ATOM     15  O   UNL     1       2.017   1.862  19.151  0.00  0.00    +0.000 OA
ENDBRANCH  11  13
ENDBRANCH   4  11
BRANCH   6  16
ATOM     16  O   UNL     1       7.208   4.648  15.579  0.00  0.00    +0.000 OA
ATOM     17  C   UNL     1       7.028   4.669  14.172  0.00  0.00    +0.000 C 
ENDBRANCH   6  16
TORSDOF 5
ENDMDL
MODEL 9
REMARK VINA RESULT:      -6.0      1.776      2.542
REMARK  Name = 
REMARK  9 active torsions:
REMARK  status: ('A' for Active; 'I' for Inactive)
REMARK    1  A    between atoms: C_1  and  O_2
REMARK    2  A    between atoms: O_2  and  C_3
REMARK    3  A    between atoms: C_5  and  O_6
REMARK    4  A    between atoms: O_6  and  C_7
REMARK    5  A    between atoms: C_8  and  C_9
REMARK    6  A    between atoms: C_9  and  C_11
REMARK    7  A    between atoms: C_11  and  C_12
REMARK    8  A    between atoms: C_15  and  O_16
REMARK    9  A    between atoms: O_16  and  C_17
REMARK                            x       y       z     vdW  Elec       q    Type
REMARK                         _______ _______ _______ _____ _____    ______ ____
ROOT
ATOM      1  C   UNL     1       3.749   4.422  19.377  0.00  0.00    +0.000 A 
ATOM      2  C   UNL     1       4.943   5.159  19.410  0.00  0.00    +0.000 A 
ATOM      3  C   UNL     1       5.532   5.664  18.238  0.00  0.00    +0.000 A 
ATOM      4  C   UNL     1       4.964   5.357  16.997  0.00  0.00    +0.000 A 
ATOM      5  C   UNL     1       3.791   4.589  16.963  0.00  0.00    +0.000 A 
ATOM      6  C   UNL     1       3.181   4.113  18.134  0.00  0.00    +0.000 A 
ENDROOT
BRANCH   1   8
ATOM      7  C   UNL     1       2.103   4.765  21.060  0.00  0.00    +0.000 C 
ATOM      8  O   UNL     1       3.149   3.963  20.518  0.00  0.00    +0.000 OA
ENDBRANCH   1   8
BRANCH   3   9
ATOM      9  O   UNL     1       6.681   6.374  18.465  0.00  0.00    +0.000 OA
ATOM     10  C   UNL     1       7.741   5.668  19.106  0.00  0.00    +0.000 C 
ENDBRANCH   3   9
BRANCH   4  11
ATOM     11  C   UNL     1       5.632   5.691  15.711  0.00  0.00    +0.000 C 
ATOM     12  O   UNL     1       5.347   6.718  15.104  0.00  0.00    +0.000 OA
BRANCH  11  13
ATOM     13  C   UNL     1       6.694   4.770  15.116  0.00  0.00    +0.000 C 
ATOM     14  C   UNL     1       6.323   4.003  13.878  0.00  0.00    +0.000 C 
ATOM     15  O   UNL     1       7.791   4.648  15.650  0.00  0.00    +0.000 OA
ENDBRANCH  11  13
ENDBRANCH   4  11
BRANCH   6  16
ATOM     16  O   UNL     1       2.054   3.385  17.859  0.00  0.00    +0.000 OA
ATOM     17  C   UNL     1       1.967   2.040  18.302  0.00  0.00    +0.000 C 
ENDBRANCH   6  16
TORSDOF 5
ENDMDL
