MODEL 1
REMARK VINA RESULT:      -7.8      0.000      0.000
REMARK  Name = 
REMARK  7 active torsions:
REMARK  status: ('A' for Active; 'I' for Inactive)
REMARK    1  A    between atoms: C_1  and  C_2
REMARK    2  A    between atoms: C_2  and  O_3
REMARK    3  A    between atoms: O_3  and  C_4
REMARK    4  A    between atoms: C_8  and  N_9
REMARK    5  A    between atoms: N_9  and  C_10
REMARK    6  A    between atoms: C_14  and  O_15
REMARK    7  A    between atoms: O_15  and  C_16
REMARK                            x       y       z     vdW  Elec       q    Type
REMARK                         _______ _______ _______ _____ _____    ______ ____
ROOT
ATOM      1  C   UNL     1       6.241   4.171  14.065  0.00  0.00    +0.000 A 
ATOM      2  C   UNL     1       5.422   3.356  14.837  0.00  0.00    +0.000 A 
ATOM      3  C   UNL     1       5.374   3.529  16.220  0.00  0.00    +0.000 A 
ATOM      4  C   UNL     1       6.143   4.522  16.865  0.00  0.00    +0.000 A 
ATOM      5  C   UNL     1       6.144   4.717  18.273  0.00  0.00    +0.000 A 
ATOM      6  C   UNL     1       6.863   5.786  18.800  0.00  0.00    +0.000 A 
ATOM      7  C   UNL     1       7.597   6.576  17.939  0.00  0.00    +0.000 A 
ATOM      8  N   UNL     1       7.654   6.382  16.605  0.00  0.00    +0.000 NA
ATOM      9  C   UNL     1       6.938   5.379  16.074  0.00  0.00    +0.000 A 
ATOM     10  C   UNL     1       6.980   5.177  14.695  0.00  0.00    +0.000 A 
ENDROOT
BRANCH   5  11
ATOM     11  N   UNL     1       5.425   3.846  19.121  0.00  0.00    +0.000 N 
ATOM     12  H   UNL     1       5.986   3.084  19.485  0.00  0.00    +0.000 HD
BRANCH  11  13
ATOM     13  C   UNL     1       4.091   3.853  19.564  0.00  0.00    +0.000 A 
ATOM     14  C   UNL     1       3.341   2.683  19.722  0.00  0.00    +0.000 A 
ATOM     15  C   UNL     1       2.033   2.735  20.206  0.00  0.00    +0.000 A 
ATOM     16  C   UNL     1       1.459   3.963  20.528  0.00  0.00    +0.000 A 
ATOM     17  C   UNL     1       2.174   5.146  20.349  0.00  0.00    +0.000 A 
ATOM     18  C   UNL     1       3.480   5.086  19.854  0.00  0.00    +0.000 A 
BRANCH  17  19
ATOM     19  O   UNL     1       1.500   6.282  20.706  0.00  0.00    +0.000 OA
ATOM     20  C   UNL     1       1.953   7.507  20.145  0.00  0.00    +0.000 C 
ENDBRANCH  17  19
ENDBRANCH  11  13
ENDBRANCH   5  11
BRANCH   1  21
ATOM     21  O   UNL     1       6.391   4.084  12.704  0.00  0.00    +0.000 OA
BRANCH  21  23
ATOM     22  C   UNL     1       4.473   3.283  11.489  0.00  0.00    +0.000 C 
ATOM     23  C   UNL     1       5.825   2.929  12.081  0.00  0.00    +0.000 C 
ENDBRANCH  21  23
ENDBRANCH   1  21
TORSDOF 5
ENDMDL
MODEL 2
REMARK VINA RESULT:      -7.8      2.218      4.295
REMARK  Name = 
REMARK  7 active torsions:
REMARK  status: ('A' for Active; 'I' for Inactive)
REMARK    1  A    between atoms: C_1  and  C_2
REMARK    2  A    between atoms: C_2  and  O_3
REMARK    3  A    between atoms: O_3  and  C_4
REMARK    4  A    between atoms: C_8  and  N_9
REMARK    5  A    between atoms: N_9  and  C_10
REMARK    6  A    between atoms: C_14  and  O_15
REMARK    7  A    between atoms: O_15  and  C_16
REMARK                            x       y       z     vdW  Elec       q    Type
REMARK                         _______ _______ _______ _____ _____    ______ ____
ROOT
ATOM      1  C   UNL     1       7.870   6.954  18.416  0.00  0.00    +0.000 A 
ATOM      2  C   UNL     1       7.377   5.978  19.274  0.00  0.00    +0.000 A 
ATOM      3  C   UNL     1       6.507   5.001  18.788  0.00  0.00    +0.000 A 
ATOM      4  C   UNL     1       6.110   4.978  17.434  0.00  0.00    +0.000 A 
ATOM      5  C   UNL     1       5.207   4.017  16.902  0.00  0.00    +0.000 A 
ATOM      6  C   UNL     1       4.954   4.022  15.533  0.00  0.00    +0.000 A 
ATOM      7  C   UNL     1       5.543   4.998  14.757  0.00  0.00    +0.000 A 
ATOM      8  N   UNL     1       6.364   5.952  15.243  0.00  0.00    +0.000 NA
ATOM      9  C   UNL     1       6.648   5.942  16.555  0.00  0.00    +0.000 A 
ATOM     10  C   UNL     1       7.505   6.915  17.067  0.00  0.00    +0.000 A 
ENDROOT
BRANCH   5  11
ATOM     11  N   UNL     1       4.580   3.073  17.745  0.00  0.00    +0.000 N 
ATOM     12  H   UNL     1       5.124   2.228  17.878  0.00  0.00    +0.000 HD
BRANCH  11  13
ATOM     13  C   UNL     1       3.361   3.099  18.444  0.00  0.00    +0.000 A 
ATOM     14  C   UNL     1       2.482   2.011  18.471  0.00  0.00    +0.000 A 
ATOM     15  C   UNL     1       1.301   2.067  19.214  0.00  0.00    +0.000 A 
ATOM     16  C   UNL     1       0.984   3.219  19.930  0.00  0.00    +0.000 A 
ATOM     17  C   UNL     1       1.828   4.328  19.894  0.00  0.00    +0.000 A 
ATOM     18  C   UNL     1       3.003   4.268  19.139  0.00  0.00    +0.000 A 
BRANCH  17  19
ATOM     19  O   UNL     1       1.406   5.393  20.643  0.00  0.00    +0.000 OA
ATOM     20  C   UNL     1       1.964   6.664  20.334  0.00  0.00    +0.000 C 
ENDBRANCH  17  19
ENDBRANCH  11  13
ENDBRANCH   5  11
BRANCH   1  21
ATOM     21  O   UNL     1       8.710   7.976  18.778  0.00  0.00    +0.000 OA
BRANCH  21  23
ATOM     22  C   UNL     1       9.208  10.326  18.948  0.00  0.00    +0.000 C 
ATOM     23  C   UNL     1       8.427   9.256  18.208  0.00  0.00    +0.000 C 
ENDBRANCH  21  23
ENDBRANCH   1  21
TORSDOF 5
ENDMDL
MODEL 3
REMARK VINA RESULT:      -7.7      2.110      7.168
REMARK  Name = 
REMARK  7 active torsions:
REMARK  status: ('A' for Active; 'I' for Inactive)
REMARK    1  A    between atoms: C_1  and  C_2
REMARK    2  A    between atoms: C_2  and  O_3
REMARK    3  A    between atoms: O_3  and  C_4
REMARK    4  A    between atoms: C_8  and  N_9
REMARK    5  A    between atoms: N_9  and  C_10
REMARK    6  A    between atoms: C_14  and  O_15
REMARK    7  A    between atoms: O_15  and  C_16
REMARK                            x       y       z     vdW  Elec       q    Type
REMARK                         _______ _______ _______ _____ _____    ______ ____
ROOT
ATOM      1  C   UNL     1       2.120   3.232  18.690  0.00  0.00    +0.000 A 
ATOM      2  C   UNL     1       3.156   2.501  18.120  0.00  0.00    +0.000 A 
ATOM      3  C   UNL     1       4.182   3.161  17.444  0.00  0.00    +0.000 A 
ATOM      4  C   UNL     1       4.198   4.567  17.323  0.00  0.00    +0.000 A 
ATOM      5  C   UNL     1       5.210   5.279  16.623  0.00  0.00    +0.000 A 
ATOM      6  C   UNL     1       5.185   6.671  16.643  0.00  0.00    +0.000 A 
ATOM      7  C   UNL     1       4.144   7.303  17.292  0.00  0.00    +0.000 A 
ATOM      8  N   UNL     1       3.144   6.652  17.921  0.00  0.00    +0.000 NA
ATOM      9  C   UNL     1       3.169   5.310  17.943  0.00  0.00    +0.000 A 
ATOM     10  C   UNL     1       2.148   4.626  18.600  0.00  0.00    +0.000 A 
ENDROOT
BRANCH   5  11
ATOM     11  N   UNL     1       6.223   4.588  15.923  0.00  0.00    +0.000 N 
ATOM     12  H   UNL     1       6.850   4.070  16.528  0.00  0.00    +0.000 HD
BRANCH  11  13
ATOM     13  C   UNL     1       6.508   4.473  14.552  0.00  0.00    +0.000 A 
ATOM     14  C   UNL     1       7.467   5.263  13.909  0.00  0.00    +0.000 A 
ATOM     15  C   UNL     1       7.747   5.084  12.553  0.00  0.00    +0.000 A 
ATOM     16  C   UNL     1       7.060   4.116  11.824  0.00  0.00    +0.000 A 
ATOM     17  C   UNL     1       6.077   3.337  12.433  0.00  0.00    +0.000 A 
ATOM     18  C   UNL     1       5.795   3.530  13.788  0.00  0.00    +0.000 A 
BRANCH  17  19
ATOM     19  O   UNL     1       5.481   2.421  11.610  0.00  0.00    +0.000 OA
ATOM     20  C   UNL     1       6.280   1.333  11.165  0.00  0.00    +0.000 C 
ENDBRANCH  17  19
ENDBRANCH  11  13
ENDBRANCH   5  11
BRANCH   1  21
ATOM     21  O   UNL     1       1.047   2.698  19.357  0.00  0.00    +0.000 OA
BRANCH  21  23
ATOM     22  C   UNL     1       1.947   2.598  21.588  0.00  0.00    +0.000 C 
ATOM     23  C   UNL     1       0.850   3.151  20.698  0.00  0.00    +0.000 C 
ENDBRANCH  21  23
ENDBRANCH   1  21
TORSDOF 5
ENDMDL
MODEL 4
REMARK VINA RESULT:      -7.5      2.618      5.084
REMARK  Name = 
REMARK  7 active torsions:
REMARK  status: ('A' for Active; 'I' for Inactive)
REMARK    1  A    between atoms: C_1  and  C_2
REMARK    2  A    between atoms: C_2  and  O_3
REMARK    3  A    between atoms: O_3  and  C_4
REMARK    4  A    between atoms: C_8  and  N_9
REMARK    5  A    between atoms: N_9  and  C_10
REMARK    6  A    between atoms: C_14  and  O_15
REMARK    7  A    between atoms: O_15  and  C_16
REMARK                            x       y       z     vdW  Elec       q    Type
REMARK                         _______ _______ _______ _____ _____    ______ ____
ROOT
ATOM      1  C   UNL     1       4.823   4.129  17.007  0.00  0.00    +0.000 A 
ATOM      2  C   UNL     1       5.027   5.349  17.640  0.00  0.00    +0.000 A 
ATOM      3  C   UNL     1       4.149   5.769  18.640  0.00  0.00    +0.000 A 
ATOM      4  C   UNL     1       3.047   4.978  19.030  0.00  0.00    +0.000 A 
ATOM      5  C   UNL     1       2.114   5.376  20.026  0.00  0.00    +0.000 A 
ATOM      6  C   UNL     1       1.116   4.482  20.405  0.00  0.00    +0.000 A 
ATOM      7  C   UNL     1       1.038   3.267  19.755  0.00  0.00    +0.000 A 
ATOM      8  N   UNL     1       1.879   2.884  18.772  0.00  0.00    +0.000 NA
ATOM      9  C   UNL     1       2.869   3.718  18.418  0.00  0.00    +0.000 A 
ATOM     10  C   UNL     1       3.752   3.328  17.412  0.00  0.00    +0.000 A 
ENDROOT
BRANCH   5  11
ATOM     11  N   UNL     1       2.198   6.654  20.622  0.00  0.00    +0.000 N 
ATOM     12  H   UNL     1       2.811   6.682  21.429  0.00  0.00    +0.000 HD
BRANCH  11  13
ATOM     13  C   UNL     1       1.608   7.886  20.293  0.00  0.00    +0.000 A 
ATOM     14  C   UNL     1       1.808   8.515  19.060  0.00  0.00    +0.000 A 
ATOM     15  C   UNL     1       1.167   9.719  18.761  0.00  0.00    +0.000 A 
ATOM     16  C   UNL     1       0.327  10.311  19.702  0.00  0.00    +0.000 A 
ATOM     17  C   UNL     1       0.137   9.721  20.951  0.00  0.00    +0.000 A 
ATOM     18  C   UNL     1       0.791   8.522  21.245  0.00  0.00    +0.000 A 
BRANCH  17  19
ATOM     19  O   UNL     1      -0.713  10.399  21.780  0.00  0.00    +0.000 OA
ATOM     20  C   UNL     1      -0.617  10.126  23.172  0.00  0.00    +0.000 C 
ENDBRANCH  17  19
ENDBRANCH  11  13
ENDBRANCH   5  11
BRANCH   1  21
ATOM     21  O   UNL     1       5.601   3.620  15.998  0.00  0.00    +0.000 OA
BRANCH  21  23
ATOM     22  C   UNL     1       6.725   4.785  14.215  0.00  0.00    +0.000 C 
ATOM     23  C   UNL     1       6.776   4.365  15.672  0.00  0.00    +0.000 C 
ENDBRANCH  21  23
ENDBRANCH   1  21
TORSDOF 5
ENDMDL
MODEL 5
REMARK VINA RESULT:      -7.5      1.714      6.786
REMARK  Name = 
REMARK  7 active torsions:
REMARK  status: ('A' for Active; 'I' for Inactive)
REMARK    1  A    between atoms: C_1  and  C_2
REMARK    2  A    between atoms: C_2  and  O_3
REMARK    3  A    between atoms: O_3  and  C_4
REMARK    4  A    between atoms: C_8  and  N_9
REMARK    5  A    between atoms: N_9  and  C_10
REMARK    6  A    between atoms: C_14  and  O_15
REMARK    7  A    between atoms: O_15  and  C_16
REMARK                            x       y       z     vdW  Elec       q    Type
REMARK                         _______ _______ _______ _____ _____    ______ ____
ROOT
ATOM      1  C   UNL     1       3.509   2.965  19.024  0.00  0.00    +0.000 A 
ATOM      2  C   UNL     1       3.267   3.129  17.665  0.00  0.00    +0.000 A 
ATOM      3  C   UNL     1       4.123   3.917  16.896  0.00  0.00    +0.000 A 
ATOM      4  C   UNL     1       5.243   4.560  17.467  0.00  0.00    +0.000 A 
ATOM      5  C   UNL     1       6.127   5.392  16.727  0.00  0.00    +0.000 A 
ATOM      6  C   UNL     1       7.256   5.902  17.363  0.00  0.00    +0.000 A 
ATOM      7  C   UNL     1       7.437   5.629  18.703  0.00  0.00    +0.000 A 
ATOM      8  N   UNL     1       6.588   4.885  19.441  0.00  0.00    +0.000 NA
ATOM      9  C   UNL     1       5.513   4.355  18.837  0.00  0.00    +0.000 A 
ATOM     10  C   UNL     1       4.635   3.574  19.586  0.00  0.00    +0.000 A 
ENDROOT
BRANCH   5  11
ATOM     11  N   UNL     1       5.868   5.692  15.372  0.00  0.00    +0.000 N 
ATOM     12  H   UNL     1       5.287   6.513  15.244  0.00  0.00    +0.000 HD
BRANCH  11  13
ATOM     13  C   UNL     1       6.280   5.078  14.177  0.00  0.00    +0.000 A 
ATOM     14  C   UNL     1       7.516   5.343  13.578  0.00  0.00    +0.000 A 
ATOM     15  C   UNL     1       7.901   4.678  12.412  0.00  0.00    +0.000 A 
ATOM     16  C   UNL     1       7.046   3.746  11.829  0.00  0.00    +0.000 A 
ATOM     17  C   UNL     1       5.794   3.487  12.388  0.00  0.00    +0.000 A 
ATOM     18  C   UNL     1       5.413   4.166  13.549  0.00  0.00    +0.000 A 
BRANCH  17  19
ATOM     19  O   UNL     1       5.053   2.550  11.723  0.00  0.00    +0.000 OA
ATOM     20  C   UNL     1       3.888   3.005  11.048  0.00  0.00    +0.000 C 
ENDBRANCH  17  19
ENDBRANCH  11  13
ENDBRANCH   5  11
BRANCH   1  21
ATOM     21  O   UNL     1       2.730   2.237  19.886  0.00  0.00    +0.000 OA
BRANCH  21  23
ATOM     22  C   UNL     1       1.124   3.884  20.594  0.00  0.00    +0.000 C 
ATOM     23  C   UNL     1       1.337   2.554  19.896  0.00  0.00    +0.000 C 
ENDBRANCH  21  23
ENDBRANCH   1  21
TORSDOF 5
ENDMDL
MODEL 6
REMARK VINA RESULT:      -7.5      2.387      7.215
REMARK  Name = 
REMARK  7 active torsions:
REMARK  status: ('A' for Active; 'I' for Inactive)
REMARK    1  A    between atoms: C_1  and  C_2
REMARK    2  A    between atoms: C_2  and  O_3
REMARK    3  A    between atoms: O_3  and  C_4
REMARK    4  A    between atoms: C_8  and  N_9
REMARK    5  A    between atoms: N_9  and  C_10
REMARK    6  A    between atoms: C_14  and  O_15
REMARK    7  A    between atoms: O_15  and  C_16
REMARK                            x       y       z     vdW  Elec       q    Type
REMARK                         _______ _______ _______ _____ _____    ______ ____
ROOT
ATOM      1  C   UNL     1       1.789   7.392  20.253  0.00  0.00    +0.000 A 
ATOM      2  C   UNL     1       2.398   7.456  19.005  0.00  0.00    +0.000 A 
ATOM      3  C   UNL     1       2.654   6.282  18.295  0.00  0.00    +0.000 A 
ATOM      4  C   UNL     1       2.306   5.017  18.815  0.00  0.00    +0.000 A 
ATOM      5  C   UNL     1       2.570   3.795  18.138  0.00  0.00    +0.000 A 
ATOM      6  C   UNL     1       2.100   2.608  18.693  0.00  0.00    +0.000 A 
ATOM      7  C   UNL     1       1.451   2.659  19.909  0.00  0.00    +0.000 A 
ATOM      8  N   UNL     1       1.232   3.799  20.597  0.00  0.00    +0.000 NA
ATOM      9  C   UNL     1       1.645   4.958  20.062  0.00  0.00    +0.000 A 
ATOM     10  C   UNL     1       1.413   6.143  20.757  0.00  0.00    +0.000 A 
ENDROOT
BRANCH   5  11
ATOM     11  N   UNL     1       3.291   3.786  16.924  0.00  0.00    +0.000 N 
ATOM     12  H   UNL     1       2.732   3.508  16.125  0.00  0.00    +0.000 HD
BRANCH  11  13
ATOM     13  C   UNL     1       4.625   4.107  16.620  0.00  0.00    +0.000 A 
ATOM     14  C   UNL     1       5.057   4.388  15.319  0.00  0.00    +0.000 A 
ATOM     15  C   UNL     1       6.384   4.744  15.070  0.00  0.00    +0.000 A 
ATOM     16  C   UNL     1       7.294   4.812  16.122  0.00  0.00    +0.000 A 
ATOM     17  C   UNL     1       6.896   4.506  17.423  0.00  0.00    +0.000 A 
ATOM     18  C   UNL     1       5.569   4.140  17.662  0.00  0.00    +0.000 A 
BRANCH  17  19
ATOM     19  O   UNL     1       7.883   4.615  18.364  0.00  0.00    +0.000 OA
ATOM     20  C   UNL     1       7.864   5.772  19.191  0.00  0.00    +0.000 C 
ENDBRANCH  17  19
ENDBRANCH  11  13
ENDBRANCH   5  11
BRANCH   1  21
ATOM     21  O   UNL     1       1.507   8.469  21.054  0.00  0.00    +0.000 OA
BRANCH  21  23
ATOM     22  C   UNL     1      -0.145  10.058  21.791  0.00  0.00    +0.000 C 
ATOM     23  C   UNL     1       0.147   8.604  21.472  0.00  0.00    +0.000 C 
ENDBRANCH  21  23
ENDBRANCH   1  21
TORSDOF 5
ENDMDL
MODEL 7
REMARK VINA RESULT:      -7.2      2.370      4.311
REMARK  Name = 
REMARK  7 active torsions:
REMARK  status: ('A' for Active; 'I' for Inactive)
REMARK    1  A    between atoms: C_1  and  C_2
REMARK    2  A    between atoms: C_2  and  O_3
REMARK    3  A    between atoms: O_3  and  C_4
REMARK    4  A    between atoms: C_8  and  N_9
REMARK    5  A    between atoms: N_9  and  C_10
REMARK    6  A    between atoms: C_14  and  O_15
REMARK    7  A    between atoms: O_15  and  C_16
REMARK                            x       y       z     vdW  Elec       q    Type
REMARK                         _______ _______ _______ _____ _____    ______ ____
ROOT
ATOM      1  C   UNL     1       5.783   5.082  15.674  0.00  0.00    +0.000 A 
ATOM      2  C   UNL     1       5.811   6.235  16.450  0.00  0.00    +0.000 A 
ATOM      3  C   UNL     1       4.909   6.386  17.504  0.00  0.00    +0.000 A 
ATOM      4  C   UNL     1       3.958   5.388  17.807  0.00  0.00    +0.000 A 
ATOM      5  C   UNL     1       3.005   5.510  18.855  0.00  0.00    +0.000 A 
ATOM      6  C   UNL     1       2.174   4.429  19.133  0.00  0.00    +0.000 A 
ATOM      7  C   UNL     1       2.267   3.304  18.340  0.00  0.00    +0.000 A 
ATOM      8  N   UNL     1       3.127   3.180  17.308  0.00  0.00    +0.000 NA
ATOM      9  C   UNL     1       3.962   4.198  17.047  0.00  0.00    +0.000 A 
ATOM     10  C   UNL     1       4.864   4.078  15.991  0.00  0.00    +0.000 A 
ENDROOT
BRANCH   5  11
ATOM     11  N   UNL     1       2.905   6.704  19.602  0.00  0.00    +0.000 N 
ATOM     12  H   UNL     1       3.559   6.752  20.375  0.00  0.00    +0.000 HD
BRANCH  11  13
ATOM     13  C   UNL     1       2.087   7.838  19.459  0.00  0.00    +0.000 A 
ATOM     14  C   UNL     1       1.941   8.517  18.245  0.00  0.00    +0.000 A 
ATOM     15  C   UNL     1       1.083   9.614  18.141  0.00  0.00    +0.000 A 
ATOM     16  C   UNL     1       0.371  10.049  19.256  0.00  0.00    +0.000 A 
ATOM     17  C   UNL     1       0.524   9.408  20.486  0.00  0.00    +0.000 A 
ATOM     18  C   UNL     1       1.392   8.318  20.584  0.00  0.00    +0.000 A 
BRANCH  17  19
ATOM     19  O   UNL     1      -0.234   9.928  21.499  0.00  0.00    +0.000 OA
ATOM     20  C   UNL     1      -0.196  11.338  21.679  0.00  0.00    +0.000 C 
ENDBRANCH  17  19
ENDBRANCH  11  13
ENDBRANCH   5  11
BRANCH   1  21
ATOM     21  O   UNL     1       6.599   4.829  14.602  0.00  0.00    +0.000 OA
BRANCH  21  23
ATOM     22  C   UNL     1       6.658   3.994  12.344  0.00  0.00    +0.000 C 
ATOM     23  C   UNL     1       6.226   3.725  13.773  0.00  0.00    +0.000 C 
ENDBRANCH  21  23
ENDBRANCH   1  21
TORSDOF 5
ENDMDL
MODEL 8
REMARK VINA RESULT:      -7.2      2.566      5.064
REMARK  Name = 
REMARK  7 active torsions:
REMARK  status: ('A' for Active; 'I' for Inactive)
REMARK    1  A    between atoms: C_1  and  C_2
REMARK    2  A    between atoms: C_2  and  O_3
REMARK    3  A    between atoms: O_3  and  C_4
REMARK    4  A    between atoms: C_8  and  N_9
REMARK    5  A    between atoms: N_9  and  C_10
REMARK    6  A    between atoms: C_14  and  O_15
REMARK    7  A    between atoms: O_15  and  C_16
REMARK                            x       y       z     vdW  Elec       q    Type
REMARK                         _______ _______ _______ _____ _____    ______ ____
ROOT
ATOM      1  C   UNL     1       4.785   4.064  17.121  0.00  0.00    +0.000 A 
ATOM      2  C   UNL     1       5.016   5.239  17.827  0.00  0.00    +0.000 A 
ATOM      3  C   UNL     1       4.130   5.633  18.831  0.00  0.00    +0.000 A 
ATOM      4  C   UNL     1       2.993   4.861  19.152  0.00  0.00    +0.000 A 
ATOM      5  C   UNL     1       2.052   5.237  20.149  0.00  0.00    +0.000 A 
ATOM      6  C   UNL     1       1.016   4.359  20.456  0.00  0.00    +0.000 A 
ATOM      7  C   UNL     1       0.910   3.186  19.737  0.00  0.00    +0.000 A 
ATOM      8  N   UNL     1       1.759   2.829  18.752  0.00  0.00    +0.000 NA
ATOM      9  C   UNL     1       2.786   3.645  18.466  0.00  0.00    +0.000 A 
ATOM     10  C   UNL     1       3.677   3.281  17.458  0.00  0.00    +0.000 A 
ENDROOT
BRANCH   5  11
ATOM     11  N   UNL     1       2.166   6.475  20.818  0.00  0.00    +0.000 N 
ATOM     12  H   UNL     1       2.904   6.491  21.514  0.00  0.00    +0.000 HD
BRANCH  11  13
ATOM     13  C   UNL     1       1.465   7.685  20.684  0.00  0.00    +0.000 A 
ATOM     14  C   UNL     1       0.517   8.117  21.618  0.00  0.00    +0.000 A 
ATOM     15  C   UNL     1      -0.124   9.348  21.465  0.00  0.00    +0.000 A 
ATOM     16  C   UNL     1       0.171  10.155  20.368  0.00  0.00    +0.000 A 
ATOM     17  C   UNL     1       1.088   9.733  19.407  0.00  0.00    +0.000 A 
ATOM     18  C   UNL     1       1.718   8.494  19.561  0.00  0.00    +0.000 A 
BRANCH  17  19
ATOM     19  O   UNL     1       1.292  10.617  18.383  0.00  0.00    +0.000 OA
ATOM     20  C   UNL     1       1.203  12.001  18.695  0.00  0.00    +0.000 C 
ENDBRANCH  17  19
ENDBRANCH  11  13
ENDBRANCH   5  11
BRANCH   1  21
ATOM     21  O   UNL     1       5.567   3.585  16.101  0.00  0.00    +0.000 OA
BRANCH  21  23
ATOM     22  C   UNL     1       6.161   3.988  13.803  0.00  0.00    +0.000 C 
ATOM     23  C   UNL     1       6.103   4.562  15.206  0.00  0.00    +0.000 C 
ENDBRANCH  21  23
ENDBRANCH   1  21
TORSDOF 5
ENDMDL
MODEL 9
REMARK VINA RESULT:      -7.2      2.075      7.040
REMARK  Name = 
REMARK  7 active torsions:
REMARK  status: ('A' for Active; 'I' for Inactive)
REMARK    1  A    between atoms: C_1  and  C_2
REMARK    2  A    between atoms: C_2  and  O_3
REMARK    3  A    between atoms: O_3  and  C_4
REMARK    4  A    between atoms: C_8  and  N_9
REMARK    5  A    between atoms: N_9  and  C_10
REMARK    6  A    between atoms: C_14  and  O_15
REMARK    7  A    between atoms: O_15  and  C_16
REMARK                            x       y       z     vdW  Elec       q    Type
REMARK                         _______ _______ _______ _____ _____    ______ ____
ROOT
ATOM      1  C   UNL     1       1.821   7.164  20.186  0.00  0.00    +0.000 A 
ATOM      2  C   UNL     1       2.874   7.116  19.280  0.00  0.00    +0.000 A 
ATOM      3  C   UNL     1       3.601   5.936  19.121  0.00  0.00    +0.000 A 
ATOM      4  C   UNL     1       3.291   4.775  19.863  0.00  0.00    +0.000 A 
ATOM      5  C   UNL     1       4.020   3.560  19.751  0.00  0.00    +0.000 A 
ATOM      6  C   UNL     1       3.575   2.445  20.456  0.00  0.00    +0.000 A 
ATOM      7  C   UNL     1       2.479   2.582  21.283  0.00  0.00    +0.000 A 
ATOM      8  N   UNL     1       1.800   3.736  21.447  0.00  0.00    +0.000 NA
ATOM      9  C   UNL     1       2.192   4.813  20.748  0.00  0.00    +0.000 A 
ATOM     10  C   UNL     1       1.490   6.008  20.899  0.00  0.00    +0.000 A 
ENDROOT
BRANCH   5  11
ATOM     11  N   UNL     1       5.172   3.483  18.938  0.00  0.00    +0.000 N 
ATOM     12  H   UNL     1       5.868   2.832  19.285  0.00  0.00    +0.000 HD
BRANCH  11  13
ATOM     13  C   UNL     1       5.520   4.123  17.736  0.00  0.00    +0.000 A 
ATOM     14  C   UNL     1       4.926   3.805  16.511  0.00  0.00    +0.000 A 
ATOM     15  C   UNL     1       5.273   4.497  15.349  0.00  0.00    +0.000 A 
ATOM     16  C   UNL     1       6.228   5.510  15.402  0.00  0.00    +0.000 A 
ATOM     17  C   UNL     1       6.858   5.824  16.606  0.00  0.00    +0.000 A 
ATOM     18  C   UNL     1       6.513   5.119  17.762  0.00  0.00    +0.000 A 
BRANCH  17  19
ATOM     19  O   UNL     1       7.772   6.839  16.525  0.00  0.00    +0.000 OA
ATOM     20  C   UNL     1       7.675   7.878  17.491  0.00  0.00    +0.000 C 
ENDBRANCH  17  19
ENDBRANCH  11  13
ENDBRANCH   5  11
BRANCH   1  21
ATOM     21  O   UNL     1       1.050   8.268  20.447  0.00  0.00    +0.000 OA
BRANCH  21  23
ATOM     22  C   UNL     1      -0.132   9.162  22.344  0.00  0.00    +0.000 C 
ATOM     23  C   UNL     1       1.225   8.869  21.731  0.00  0.00    +0.000 C 
ENDBRANCH  21  23
ENDBRANCH   1  21
TORSDOF 5
ENDMDL
