MODEL 1
REMARK VINA RESULT:      -7.4      0.000      0.000
REMARK  Name = 
REMARK  5 active torsions:
REMARK  status: ('A' for Active; 'I' for Inactive)
REMARK    1  A    between atoms: N_1  and  C_2
REMARK    2  A    between atoms: C_2  and  C_3
REMARK    3  A    between atoms: C_3  and  C_4
REMARK    4  A    between atoms: C_7  and  C_8
REMARK    5  A    between atoms: C_13  and  C_14
REMARK                            x       y       z     vdW  Elec       q    Type
REMARK                         _______ _______ _______ _____ _____    ______ ____
ROOT
ATOM      1  C   UNL     1       3.814   4.342  17.866  0.00  0.00    +0.000 A 
ATOM      2  C   UNL     1       3.922   2.951  17.608  0.00  0.00    +0.000 A 
ATOM      3  C   UNL     1       2.844   2.085  17.770  0.00  0.00    +0.000 A 
ATOM      4  C   UNL     1       1.626   2.585  18.196  0.00  0.00    +0.000 A 
ATOM      5  C   UNL     1       1.500   3.945  18.487  0.00  0.00    +0.000 A 
ATOM      6  C   UNL     1       2.567   4.860  18.339  0.00  0.00    +0.000 A 
ENDROOT
BRANCH   6   7
ATOM      7  C   UNL     1       2.315   6.304  18.673  0.00  0.00    +0.000 A 
ATOM      8  C   UNL     1       2.282   7.314  17.699  0.00  0.00    +0.000 A 
ATOM      9  C   UNL     1       1.895   8.624  18.005  0.00  0.00    +0.000 A 
ATOM     10  C   UNL     1       1.628   8.984  19.317  0.00  0.00    +0.000 A 
ATOM     11  C   UNL     1       1.750   8.029  20.324  0.00  0.00    +0.000 A 
ATOM     12  C   UNL     1       2.075   6.707  20.002  0.00  0.00    +0.000 A 
ENDBRANCH   6   7
BRANCH   1  16
ATOM     13  C   UNL     1       6.898   6.634  17.764  0.00  0.00    +0.000 A 
ATOM     14  N   UNL     1       6.281   6.755  16.611  0.00  0.00    +0.000 NA
ATOM     15  N   UNL     1       5.221   5.880  16.497  0.00  0.00    +0.000 NA
ATOM     16  C   UNL     1       4.991   5.196  17.603  0.00  0.00    +0.000 A 
ATOM     17  S   UNL     1       6.208   5.459  18.806  0.00  0.00    +0.000 S 
BRANCH  13  18
ATOM     18  C   UNL     1       8.091   7.435  18.168  0.00  0.00    +0.000 C 
BRANCH  18  19
ATOM     19  C   UNL     1       7.931   8.906  17.775  0.00  0.00    +0.000 C 
BRANCH  19  20
ATOM     20  N   UNL     1       8.801   9.769  18.577  0.00  0.00    +0.000 NA
ATOM     21  H   UNL     1       9.692   9.297  18.732  0.00  0.00    +0.000 HD
ATOM     22  H   UNL     1       8.392   9.900  19.503  0.00  0.00    +0.000 HD
ENDBRANCH  19  20
ENDBRANCH  18  19
ENDBRANCH  13  18
ENDBRANCH   1  16
TORSDOF 5
ENDMDL
MODEL 2
REMARK VINA RESULT:      -7.4      3.124      5.355
REMARK  Name = 
REMARK  5 active torsions:
REMARK  status: ('A' for Active; 'I' for Inactive)
REMARK    1  A    between atoms: N_1  and  C_2
REMARK    2  A    between atoms: C_2  and  C_3
REMARK    3  A    between atoms: C_3  and  C_4
REMARK    4  A    between atoms: C_7  and  C_8
REMARK    5  A    between atoms: C_13  and  C_14
REMARK                            x       y       z     vdW  Elec       q    Type
REMARK                         _______ _______ _______ _____ _____    ______ ____
ROOT
ATOM      1  C   UNL     1       3.650   6.192  17.668  0.00  0.00    +0.000 A 
ATOM      2  C   UNL     1       4.495   6.818  16.715  0.00  0.00    +0.000 A 
ATOM      3  C   UNL     1       5.312   6.085  15.859  0.00  0.00    +0.000 A 
ATOM      4  C   UNL     1       5.310   4.703  15.931  0.00  0.00    +0.000 A 
ATOM      5  C   UNL     1       4.511   4.062  16.881  0.00  0.00    +0.000 A 
ATOM      6  C   UNL     1       3.668   4.765  17.771  0.00  0.00    +0.000 A 
ENDROOT
BRANCH   6   7
ATOM      7  C   UNL     1       2.845   3.970  18.745  0.00  0.00    +0.000 A 
ATOM      8  C   UNL     1       3.338   3.554  19.991  0.00  0.00    +0.000 A 
ATOM      9  C   UNL     1       2.514   2.949  20.949  0.00  0.00    +0.000 A 
ATOM     10  C   UNL     1       1.195   2.652  20.644  0.00  0.00    +0.000 A 
ATOM     11  C   UNL     1       0.701   2.959  19.378  0.00  0.00    +0.000 A 
ATOM     12  C   UNL     1       1.512   3.621  18.450  0.00  0.00    +0.000 A 
ENDBRANCH   6   7
BRANCH   1  16
ATOM     13  C   UNL     1       1.516   8.846  19.448  0.00  0.00    +0.000 A 
ATOM     14  N   UNL     1       1.796   7.912  20.328  0.00  0.00    +0.000 NA
ATOM     15  N   UNL     1       2.462   6.848  19.759  0.00  0.00    +0.000 NA
ATOM     16  C   UNL     1       2.768   7.046  18.490  0.00  0.00    +0.000 A 
ATOM     17  S   UNL     1       2.073   8.502  17.862  0.00  0.00    +0.000 S 
BRANCH  13  18
ATOM     18  C   UNL     1       0.786  10.109  19.765  0.00  0.00    +0.000 C 
BRANCH  18  19
ATOM     19  C   UNL     1      -0.005   9.982  21.069  0.00  0.00    +0.000 C 
BRANCH  19  20
ATOM     20  N   UNL     1       0.858  10.166  22.237  0.00  0.00    +0.000 NA
ATOM     21  H   UNL     1       1.558   9.424  22.258  0.00  0.00    +0.000 HD
ATOM     22  H   UNL     1       0.308  10.053  23.089  0.00  0.00    +0.000 HD
ENDBRANCH  19  20
ENDBRANCH  18  19
ENDBRANCH  13  18
ENDBRANCH   1  16
TORSDOF 5
ENDMDL
MODEL 3
REMARK VINA RESULT:      -7.4      2.414      2.756
REMARK  Name = 
REMARK  5 active torsions:
REMARK  status: ('A' for Active; 'I' for Inactive)
REMARK    1  A    between atoms: N_1  and  C_2
REMARK    2  A    between atoms: C_2  and  C_3
REMARK    3  A    between atoms: C_3  and  C_4
REMARK    4  A    between atoms: C_7  and  C_8
REMARK    5  A    between atoms: C_13  and  C_14
REMARK                            x       y       z     vdW  Elec       q    Type
REMARK                         _______ _______ _______ _____ _____    ______ ____
ROOT
ATOM      1  C   UNL     1       3.468   4.059  19.871  0.00  0.00    +0.000 A 
ATOM      2  C   UNL     1       3.406   2.751  20.418  0.00  0.00    +0.000 A 
ATOM      3  C   UNL     1       2.254   2.260  21.026  0.00  0.00    +0.000 A 
ATOM      4  C   UNL     1       1.130   3.063  21.107  0.00  0.00    +0.000 A 
ATOM      5  C   UNL     1       1.173   4.365  20.605  0.00  0.00    +0.000 A 
ATOM      6  C   UNL     1       2.321   4.906  19.981  0.00  0.00    +0.000 A 
ENDROOT
BRANCH   6   7
ATOM      7  C   UNL     1       2.250   6.317  19.469  0.00  0.00    +0.000 A 
ATOM      8  C   UNL     1       2.555   6.660  18.143  0.00  0.00    +0.000 A 
ATOM      9  C   UNL     1       2.338   7.949  17.642  0.00  0.00    +0.000 A 
ATOM     10  C   UNL     1       1.904   8.960  18.486  0.00  0.00    +0.000 A 
ATOM     11  C   UNL     1       1.689   8.678  19.834  0.00  0.00    +0.000 A 
ATOM     12  C   UNL     1       1.847   7.373  20.312  0.00  0.00    +0.000 A 
ENDBRANCH   6   7
BRANCH   1  16
ATOM     13  C   UNL     1       6.574   4.714  17.703  0.00  0.00    +0.000 A 
ATOM     14  N   UNL     1       6.852   5.121  18.921  0.00  0.00    +0.000 NA
ATOM     15  N   UNL     1       5.757   5.040  19.756  0.00  0.00    +0.000 NA
ATOM     16  C   UNL     1       4.710   4.473  19.186  0.00  0.00    +0.000 A 
ATOM     17  S   UNL     1       4.958   4.175  17.499  0.00  0.00    +0.000 S 
BRANCH  13  18
ATOM     18  C   UNL     1       7.552   4.701  16.577  0.00  0.00    +0.000 C 
BRANCH  18  19
ATOM     19  C   UNL     1       6.840   4.653  15.223  0.00  0.00    +0.000 C 
BRANCH  19  20
ATOM     20  N   UNL     1       7.599   5.369  14.196  0.00  0.00    +0.000 NA
ATOM     21  H   UNL     1       7.162   6.275  14.026  0.00  0.00    +0.000 HD
ATOM     22  H   UNL     1       7.539   4.863  13.312  0.00  0.00    +0.000 HD
ENDBRANCH  19  20
ENDBRANCH  18  19
ENDBRANCH  13  18
ENDBRANCH   1  16
TORSDOF 5
ENDMDL
MODEL 4
REMARK VINA RESULT:      -7.3      3.215      5.364
REMARK  Name = 
REMARK  5 active torsions:
REMARK  status: ('A' for Active; 'I' for Inactive)
REMARK    1  A    between atoms: N_1  and  C_2
REMARK    2  A    between atoms: C_2  and  C_3
REMARK    3  A    between atoms: C_3  and  C_4
REMARK    4  A    between atoms: C_7  and  C_8
REMARK    5  A    between atoms: C_13  and  C_14
REMARK                            x       y       z     vdW  Elec       q    Type
REMARK                         _______ _______ _______ _____ _____    ______ ____
ROOT
ATOM      1  C   UNL     1       3.531   6.374  17.786  0.00  0.00    +0.000 A 
ATOM      2  C   UNL     1       4.398   6.959  16.828  0.00  0.00    +0.000 A 
ATOM      3  C   UNL     1       5.232   6.190  16.020  0.00  0.00    +0.000 A 
ATOM      4  C   UNL     1       5.224   4.813  16.149  0.00  0.00    +0.000 A 
ATOM      5  C   UNL     1       4.404   4.212  17.106  0.00  0.00    +0.000 A 
ATOM      6  C   UNL     1       3.543   4.953  17.948  0.00  0.00    +0.000 A 
ENDROOT
BRANCH   6   7
ATOM      7  C   UNL     1       2.698   4.199  18.936  0.00  0.00    +0.000 A 
ATOM      8  C   UNL     1       1.404   3.746  18.638  0.00  0.00    +0.000 A 
ATOM      9  C   UNL     1       0.691   2.916  19.511  0.00  0.00    +0.000 A 
ATOM     10  C   UNL     1       1.214   2.600  20.755  0.00  0.00    +0.000 A 
ATOM     11  C   UNL     1       2.454   3.118  21.125  0.00  0.00    +0.000 A 
ATOM     12  C   UNL     1       3.188   3.894  20.222  0.00  0.00    +0.000 A 
ENDBRANCH   6   7
BRANCH   1  16
ATOM     13  C   UNL     1       1.361   9.101  19.407  0.00  0.00    +0.000 A 
ATOM     14  N   UNL     1       1.630   8.210  20.334  0.00  0.00    +0.000 NA
ATOM     15  N   UNL     1       2.307   7.123  19.825  0.00  0.00    +0.000 NA
ATOM     16  C   UNL     1       2.634   7.262  18.553  0.00  0.00    +0.000 A 
ATOM     17  S   UNL     1       1.945   8.685  17.848  0.00  0.00    +0.000 S 
BRANCH  13  18
ATOM     18  C   UNL     1       0.624  10.375  19.653  0.00  0.00    +0.000 C 
BRANCH  18  19
ATOM     19  C   UNL     1      -0.186  10.307  20.950  0.00  0.00    +0.000 C 
BRANCH  19  20
ATOM     20  N   UNL     1       0.663  10.538  22.120  0.00  0.00    +0.000 NA
ATOM     21  H   UNL     1       0.185  11.172  22.762  0.00  0.00    +0.000 HD
ATOM     22  H   UNL     1       1.514  11.024  21.834  0.00  0.00    +0.000 HD
ENDBRANCH  19  20
ENDBRANCH  18  19
ENDBRANCH  13  18
ENDBRANCH   1  16
TORSDOF 5
ENDMDL
MODEL 5
REMARK VINA RESULT:      -7.2      3.118      5.381
REMARK  Name = 
REMARK  5 active torsions:
REMARK  status: ('A' for Active; 'I' for Inactive)
REMARK    1  A    between atoms: N_1  and  C_2
REMARK    2  A    between atoms: C_2  and  C_3
REMARK    3  A    between atoms: C_3  and  C_4
REMARK    4  A    between atoms: C_7  and  C_8
REMARK    5  A    between atoms: C_13  and  C_14
REMARK                            x       y       z     vdW  Elec       q    Type
REMARK                         _______ _______ _______ _____ _____    ______ ____
ROOT
ATOM      1  C   UNL     1       3.648   6.215  17.696  0.00  0.00    +0.000 A 
ATOM      2  C   UNL     1       4.504   6.824  16.741  0.00  0.00    +0.000 A 
ATOM      3  C   UNL     1       5.332   6.075  15.910  0.00  0.00    +0.000 A 
ATOM      4  C   UNL     1       5.332   4.695  16.010  0.00  0.00    +0.000 A 
ATOM      5  C   UNL     1       4.523   4.071  16.963  0.00  0.00    +0.000 A 
ATOM      6  C   UNL     1       3.667   4.790  17.828  0.00  0.00    +0.000 A 
ENDROOT
BRANCH   6   7
ATOM      7  C   UNL     1       2.834   4.013  18.808  0.00  0.00    +0.000 A 
ATOM      8  C   UNL     1       3.309   3.631  20.072  0.00  0.00    +0.000 A 
ATOM      9  C   UNL     1       2.474   3.044  21.030  0.00  0.00    +0.000 A 
ATOM     10  C   UNL     1       1.162   2.729  20.711  0.00  0.00    +0.000 A 
ATOM     11  C   UNL     1       0.687   3.002  19.430  0.00  0.00    +0.000 A 
ATOM     12  C   UNL     1       1.508   3.647  18.499  0.00  0.00    +0.000 A 
ENDBRANCH   6   7
BRANCH   1  16
ATOM     13  C   UNL     1       1.482   8.898  19.394  0.00  0.00    +0.000 A 
ATOM     14  N   UNL     1       1.763   7.989  20.299  0.00  0.00    +0.000 NA
ATOM     15  N   UNL     1       2.440   6.915  19.761  0.00  0.00    +0.000 NA
ATOM     16  C   UNL     1       2.754   7.083  18.490  0.00  0.00    +0.000 A 
ATOM     17  S   UNL     1       2.054   8.518  17.821  0.00  0.00    +0.000 S 
BRANCH  13  18
ATOM     18  C   UNL     1       0.742  10.164  19.673  0.00  0.00    +0.000 C 
BRANCH  18  19
ATOM     19  C   UNL     1      -0.314  10.438  18.600  0.00  0.00    +0.000 C 
BRANCH  19  20
ATOM     20  N   UNL     1      -0.302  11.843  18.188  0.00  0.00    +0.000 NA
ATOM     21  H   UNL     1       0.624  12.235  18.357  0.00  0.00    +0.000 HD
ATOM     22  H   UNL     1      -0.941  12.377  18.778  0.00  0.00    +0.000 HD
ENDBRANCH  19  20
ENDBRANCH  18  19
ENDBRANCH  13  18
ENDBRANCH   1  16
TORSDOF 5
ENDMDL
MODEL 6
REMARK VINA RESULT:      -7.2      1.290      1.290
REMARK  Name = 
REMARK  5 active torsions:
REMARK  status: ('A' for Active; 'I' for Inactive)
REMARK    1  A    between atoms: N_1  and  C_2
REMARK    2  A    between atoms: C_2  and  C_3
REMARK    3  A    between atoms: C_3  and  C_4
REMARK    4  A    between atoms: C_7  and  C_8
REMARK    5  A    between atoms: C_13  and  C_14
REMARK                            x       y       z     vdW  Elec       q    Type
REMARK                         _______ _______ _______ _____ _____    ______ ____
ROOT
ATOM      1  C   UNL     1       3.877   4.155  18.641  0.00  0.00    +0.000 A 
ATOM      2  C   UNL     1       4.004   2.786  18.288  0.00  0.00    +0.000 A 
ATOM      3  C   UNL     1       2.896   1.992  18.006  0.00  0.00    +0.000 A 
ATOM      4  C   UNL     1       1.628   2.542  18.069  0.00  0.00    +0.000 A 
ATOM      5  C   UNL     1       1.472   3.878  18.444  0.00  0.00    +0.000 A 
ATOM      6  C   UNL     1       2.567   4.722  18.741  0.00  0.00    +0.000 A 
ENDROOT
BRANCH   6   7
ATOM      7  C   UNL     1       2.281   6.146  19.124  0.00  0.00    +0.000 A 
ATOM      8  C   UNL     1       2.361   7.209  18.211  0.00  0.00    +0.000 A 
ATOM      9  C   UNL     1       1.944   8.503  18.544  0.00  0.00    +0.000 A 
ATOM     10  C   UNL     1       1.529   8.792  19.835  0.00  0.00    +0.000 A 
ATOM     11  C   UNL     1       1.535   7.782  20.795  0.00  0.00    +0.000 A 
ATOM     12  C   UNL     1       1.892   6.477  20.439  0.00  0.00    +0.000 A 
ENDBRANCH   6   7
BRANCH   1  16
ATOM     13  C   UNL     1       7.105   6.241  18.626  0.00  0.00    +0.000 A 
ATOM     14  N   UNL     1       7.104   5.527  19.729  0.00  0.00    +0.000 NA
ATOM     15  N   UNL     1       5.926   4.828  19.891  0.00  0.00    +0.000 NA
ATOM     16  C   UNL     1       5.110   4.939  18.859  0.00  0.00    +0.000 A 
ATOM     17  S   UNL     1       5.674   6.086  17.692  0.00  0.00    +0.000 S 
BRANCH  13  18
ATOM     18  C   UNL     1       8.234   7.114  18.191  0.00  0.00    +0.000 C 
BRANCH  18  19
ATOM     19  C   UNL     1       7.729   8.472  17.697  0.00  0.00    +0.000 C 
BRANCH  19  20
ATOM     20  N   UNL     1       8.555   9.567  18.209  0.00  0.00    +0.000 NA
ATOM     21  H   UNL     1       8.180   9.879  19.105  0.00  0.00    +0.000 HD
ATOM     22  H   UNL     1       8.482  10.370  17.583  0.00  0.00    +0.000 HD
ENDBRANCH  19  20
ENDBRANCH  18  19
ENDBRANCH  13  18
ENDBRANCH   1  16
TORSDOF 5
ENDMDL
MODEL 7
REMARK VINA RESULT:      -7.2      3.193      5.485
REMARK  Name = 
REMARK  5 active torsions:
REMARK  status: ('A' for Active; 'I' for Inactive)
REMARK    1  A    between atoms: N_1  and  C_2
REMARK    2  A    between atoms: C_2  and  C_3
REMARK    3  A    between atoms: C_3  and  C_4
REMARK    4  A    between atoms: C_7  and  C_8
REMARK    5  A    between atoms: C_13  and  C_14
REMARK                            x       y       z     vdW  Elec       q    Type
REMARK                         _______ _______ _______ _____ _____    ______ ____
ROOT
ATOM      1  C   UNL     1       3.503   6.488  17.827  0.00  0.00    +0.000 A 
ATOM      2  C   UNL     1       4.382   7.069  16.877  0.00  0.00    +0.000 A 
ATOM      3  C   UNL     1       5.235   6.297  16.093  0.00  0.00    +0.000 A 
ATOM      4  C   UNL     1       5.236   4.921  16.237  0.00  0.00    +0.000 A 
ATOM      5  C   UNL     1       4.404   4.325  17.187  0.00  0.00    +0.000 A 
ATOM      6  C   UNL     1       3.523   5.068  18.005  0.00  0.00    +0.000 A 
ENDROOT
BRANCH   6   7
ATOM      7  C   UNL     1       2.666   4.319  18.987  0.00  0.00    +0.000 A 
ATOM      8  C   UNL     1       1.401   3.810  18.656  0.00  0.00    +0.000 A 
ATOM      9  C   UNL     1       0.684   2.985  19.531  0.00  0.00    +0.000 A 
ATOM     10  C   UNL     1       1.169   2.731  20.805  0.00  0.00    +0.000 A 
ATOM     11  C   UNL     1       2.374   3.305  21.202  0.00  0.00    +0.000 A 
ATOM     12  C   UNL     1       3.116   4.076  20.301  0.00  0.00    +0.000 A 
ENDBRANCH   6   7
BRANCH   1  16
ATOM     13  C   UNL     1       1.284   9.216  19.379  0.00  0.00    +0.000 A 
ATOM     14  N   UNL     1       1.544   8.337  20.321  0.00  0.00    +0.000 NA
ATOM     15  N   UNL     1       2.238   7.249  19.836  0.00  0.00    +0.000 NA
ATOM     16  C   UNL     1       2.586   7.377  18.569  0.00  0.00    +0.000 A 
ATOM     17  S   UNL     1       1.898   8.787  17.835  0.00  0.00    +0.000 S 
BRANCH  13  18
ATOM     18  C   UNL     1       0.533  10.486  19.598  0.00  0.00    +0.000 C 
BRANCH  18  19
ATOM     19  C   UNL     1      -0.899  10.384  19.067  0.00  0.00    +0.000 C 
BRANCH  19  20
ATOM     20  N   UNL     1      -1.025  11.013  17.751  0.00  0.00    +0.000 NA
ATOM     21  H   UNL     1      -0.119  11.388  17.469  0.00  0.00    +0.000 HD
ATOM     22  H   UNL     1      -1.651  11.817  17.816  0.00  0.00    +0.000 HD
ENDBRANCH  19  20
ENDBRANCH  18  19
ENDBRANCH  13  18
ENDBRANCH   1  16
TORSDOF 5
ENDMDL
MODEL 8
REMARK VINA RESULT:      -7.1      0.184      1.086
REMARK  Name = 
REMARK  5 active torsions:
REMARK  status: ('A' for Active; 'I' for Inactive)
REMARK    1  A    between atoms: N_1  and  C_2
REMARK    2  A    between atoms: C_2  and  C_3
REMARK    3  A    between atoms: C_3  and  C_4
REMARK    4  A    between atoms: C_7  and  C_8
REMARK    5  A    between atoms: C_13  and  C_14
REMARK                            x       y       z     vdW  Elec       q    Type
REMARK                         _______ _______ _______ _____ _____    ______ ____
ROOT
ATOM      1  C   UNL     1       3.809   4.186  17.927  0.00  0.00    +0.000 A 
ATOM      2  C   UNL     1       3.953   2.791  17.712  0.00  0.00    +0.000 A 
ATOM      3  C   UNL     1       2.892   1.906  17.881  0.00  0.00    +0.000 A 
ATOM      4  C   UNL     1       1.656   2.388  18.272  0.00  0.00    +0.000 A 
ATOM      5  C   UNL     1       1.495   3.753  18.521  0.00  0.00    +0.000 A 
ATOM      6  C   UNL     1       2.543   4.688  18.364  0.00  0.00    +0.000 A 
ENDROOT
BRANCH   6   7
ATOM      7  C   UNL     1       2.252   6.134  18.652  0.00  0.00    +0.000 A 
ATOM      8  C   UNL     1       2.007   6.616  19.947  0.00  0.00    +0.000 A 
ATOM      9  C   UNL     1       1.890   7.985  20.218  0.00  0.00    +0.000 A 
ATOM     10  C   UNL     1       1.913   8.904  19.181  0.00  0.00    +0.000 A 
ATOM     11  C   UNL     1       2.052   8.452  17.870  0.00  0.00    +0.000 A 
ATOM     12  C   UNL     1       2.233   7.089  17.614  0.00  0.00    +0.000 A 
ENDBRANCH   6   7
BRANCH   1  16
ATOM     13  C   UNL     1       6.850   6.534  17.811  0.00  0.00    +0.000 A 
ATOM     14  N   UNL     1       6.233   6.633  16.656  0.00  0.00    +0.000 NA
ATOM     15  N   UNL     1       5.190   5.738  16.548  0.00  0.00    +0.000 NA
ATOM     16  C   UNL     1       4.970   5.060  17.659  0.00  0.00    +0.000 A 
ATOM     17  S   UNL     1       6.179   5.356  18.863  0.00  0.00    +0.000 S 
BRANCH  13  18
ATOM     18  C   UNL     1       8.027   7.361  18.210  0.00  0.00    +0.000 C 
BRANCH  18  19
ATOM     19  C   UNL     1       7.873   8.810  17.740  0.00  0.00    +0.000 C 
BRANCH  19  20
ATOM     20  N   UNL     1       8.727   9.714  18.512  0.00  0.00    +0.000 NA
ATOM     21  H   UNL     1       8.511   9.615  19.504  0.00  0.00    +0.000 HD
ATOM     22  H   UNL     1       8.503  10.681  18.275  0.00  0.00    +0.000 HD
ENDBRANCH  19  20
ENDBRANCH  18  19
ENDBRANCH  13  18
ENDBRANCH   1  16
TORSDOF 5
ENDMDL
MODEL 9
REMARK VINA RESULT:      -7.1      2.813      5.099
REMARK  Name = 
REMARK  5 active torsions:
REMARK  status: ('A' for Active; 'I' for Inactive)
REMARK    1  A    between atoms: N_1  and  C_2
REMARK    2  A    between atoms: C_2  and  C_3
REMARK    3  A    between atoms: C_3  and  C_4
REMARK    4  A    between atoms: C_7  and  C_8
REMARK    5  A    between atoms: C_13  and  C_14
REMARK                            x       y       z     vdW  Elec       q    Type
REMARK                         _______ _______ _______ _____ _____    ______ ____
ROOT
ATOM      1  C   UNL     1       2.639   4.895  18.478  0.00  0.00    +0.000 A 
ATOM      2  C   UNL     1       1.536   4.005  18.403  0.00  0.00    +0.000 A 
ATOM      3  C   UNL     1       1.697   2.654  18.108  0.00  0.00    +0.000 A 
ATOM      4  C   UNL     1       2.965   2.153  17.877  0.00  0.00    +0.000 A 
ATOM      5  C   UNL     1       4.066   3.013  17.913  0.00  0.00    +0.000 A 
ATOM      6  C   UNL     1       3.950   4.390  18.207  0.00  0.00    +0.000 A 
ENDROOT
BRANCH   6   7
ATOM      7  C   UNL     1       5.204   5.219  18.227  0.00  0.00    +0.000 A 
ATOM      8  C   UNL     1       6.139   5.154  19.271  0.00  0.00    +0.000 A 
ATOM      9  C   UNL     1       7.372   5.814  19.201  0.00  0.00    +0.000 A 
ATOM     10  C   UNL     1       7.660   6.642  18.127  0.00  0.00    +0.000 A 
ATOM     11  C   UNL     1       6.710   6.809  17.121  0.00  0.00    +0.000 A 
ATOM     12  C   UNL     1       5.507   6.097  17.166  0.00  0.00    +0.000 A 
ENDBRANCH   6   7
BRANCH   1  16
ATOM     13  C   UNL     1       1.636   8.322  19.901  0.00  0.00    +0.000 A 
ATOM     14  N   UNL     1       1.933   8.494  18.633  0.00  0.00    +0.000 NA
ATOM     15  N   UNL     1       2.422   7.342  18.055  0.00  0.00    +0.000 NA
ATOM     16  C   UNL     1       2.382   6.298  18.862  0.00  0.00    +0.000 A 
ATOM     17  S   UNL     1       1.908   6.726  20.471  0.00  0.00    +0.000 S 
BRANCH  13  18
ATOM     18  C   UNL     1       1.101   9.391  20.794  0.00  0.00    +0.000 C 
BRANCH  18  19
ATOM     19  C   UNL     1       0.766   8.841  22.182  0.00  0.00    +0.000 C 
BRANCH  19  20
ATOM     20  N   UNL     1       0.518   9.922  23.138  0.00  0.00    +0.000 NA
ATOM     21  H   UNL     1      -0.467  10.185  23.098  0.00  0.00    +0.000 HD
ATOM     22  H   UNL     1       1.039  10.753  22.856  0.00  0.00    +0.000 HD
ENDBRANCH  19  20
ENDBRANCH  18  19
ENDBRANCH  13  18
ENDBRANCH   1  16
TORSDOF 5
ENDMDL
