MODEL 1
REMARK VINA RESULT:      -5.5      0.000      0.000
REMARK  Name = 
REMARK  3 active torsions:
REMARK  status: ('A' for Active; 'I' for Inactive)
REMARK    1  A    between atoms: N_1  and  C_2
REMARK    2  A    between atoms: C_2  and  C_3
REMARK    3  A    between atoms: C_10  and  O_11
REMARK                            x       y       z     vdW  Elec       q    Type
REMARK                         _______ _______ _______ _____ _____    ______ ____
ROOT
ATOM      1  C   UNL     1       6.636   5.319  18.394  0.00  0.00    +0.000 A 
ATOM      2  C   UNL     1       5.355   5.437  18.961  0.00  0.00    +0.000 A 
ATOM      3  C   UNL     1       4.245   4.870  18.329  0.00  0.00    +0.000 A 
ATOM      4 CL   UNL     1       2.652   5.023  19.049  0.00  0.00    +0.000 Cl
ATOM      5  C   UNL     1       4.404   4.179  17.126  0.00  0.00    +0.000 A 
ATOM      6  C   UNL     1       5.670   4.053  16.550  0.00  0.00    +0.000 A 
ATOM      7  F   UNL     1       5.803   3.376  15.382  0.00  0.00    +0.000 F 
ATOM      8  C   UNL     1       6.793   4.621  17.178  0.00  0.00    +0.000 A 
ENDROOT
BRANCH   8   9
ATOM      9  O   UNL     1       8.021   4.495  16.630  0.00  0.00    +0.000 OA
ATOM     10  H   UNL     1       8.154   4.253  15.702  0.00  0.00    +0.000 HD
ENDBRANCH   8   9
BRANCH   1  11
ATOM     11  C   UNL     1       7.828   5.923  19.095  0.00  0.00    +0.000 C 
BRANCH  11  12
ATOM     12  N   UNL     1       7.966   5.367  20.437  0.00  0.00    +0.000 NA
ATOM     13  H   UNL     1       7.913   6.152  21.127  0.00  0.00    +0.000 HD
ATOM     14  H   UNL     1       8.910   4.924  20.527  0.00  0.00    +0.000 HD
ENDBRANCH  11  12
ENDBRANCH   1  11
TORSDOF 3
ENDMDL
MODEL 2
REMARK VINA RESULT:      -5.4      2.954      3.617
REMARK  Name = 
REMARK  3 active torsions:
REMARK  status: ('A' for Active; 'I' for Inactive)
REMARK    1  A    between atoms: N_1  and  C_2
REMARK    2  A    between atoms: C_2  and  C_3
REMARK    3  A    between atoms: C_10  and  O_11
REMARK                            x       y       z     vdW  Elec       q    Type
REMARK                         _______ _______ _______ _____ _____    ______ ____
ROOT
ATOM      1  C   UNL     1       5.173   4.070  17.968  0.00  0.00    +0.000 A 
ATOM      2  C   UNL     1       5.023   3.838  16.589  0.00  0.00    +0.000 A 
ATOM      3  C   UNL     1       5.876   4.456  15.670  0.00  0.00    +0.000 A 
ATOM      4 CL   UNL     1       5.680   4.156  13.953  0.00  0.00    +0.000 Cl
ATOM      5  C   UNL     1       6.886   5.310  16.119  0.00  0.00    +0.000 A 
ATOM      6  C   UNL     1       7.047   5.550  17.486  0.00  0.00    +0.000 A 
ATOM      7  F   UNL     1       8.036   6.381  17.901  0.00  0.00    +0.000 F 
ATOM      8  C   UNL     1       6.194   4.933  18.418  0.00  0.00    +0.000 A 
ENDROOT
BRANCH   8   9
ATOM      9  O   UNL     1       6.351   5.156  19.741  0.00  0.00    +0.000 OA
ATOM     10  H   UNL     1       6.985   4.663  20.280  0.00  0.00    +0.000 HD
ENDBRANCH   8   9
BRANCH   1  11
ATOM     11  C   UNL     1       4.255   3.384  18.950  0.00  0.00    +0.000 C 
BRANCH  11  12
ATOM     12  N   UNL     1       4.996   2.417  19.752  0.00  0.00    +0.000 NA
ATOM     13  H   UNL     1       4.451   2.223  20.624  0.00  0.00    +0.000 HD
ATOM     14  H   UNL     1       5.912   2.836  20.032  0.00  0.00    +0.000 HD
ENDBRANCH  11  12
ENDBRANCH   1  11
TORSDOF 3
ENDMDL
MODEL 3
REMARK VINA RESULT:      -5.4      2.480      3.104
REMARK  Name = 
REMARK  3 active torsions:
REMARK  status: ('A' for Active; 'I' for Inactive)
REMARK    1  A    between atoms: N_1  and  C_2
REMARK    2  A    between atoms: C_2  and  C_3
REMARK    3  A    between atoms: C_10  and  O_11
REMARK                            x       y       z     vdW  Elec       q    Type
REMARK                         _______ _______ _______ _____ _____    ______ ____
ROOT
ATOM      1  C   UNL     1       5.822   4.410  16.403  0.00  0.00    +0.000 A 
ATOM      2  C   UNL     1       4.421   4.460  16.506  0.00  0.00    +0.000 A 
ATOM      3  C   UNL     1       3.811   4.790  17.720  0.00  0.00    +0.000 A 
ATOM      4 CL   UNL     1       2.061   4.852  17.835  0.00  0.00    +0.000 Cl
ATOM      5  C   UNL     1       4.594   5.072  18.841  0.00  0.00    +0.000 A 
ATOM      6  C   UNL     1       5.988   5.027  18.754  0.00  0.00    +0.000 A 
ATOM      7  F   UNL     1       6.730   5.308  19.854  0.00  0.00    +0.000 F 
ATOM      8  C   UNL     1       6.610   4.696  17.537  0.00  0.00    +0.000 A 
ENDROOT
BRANCH   8   9
ATOM      9  O   UNL     1       7.957   4.658  17.446  0.00  0.00    +0.000 OA
ATOM     10  H   UNL     1       8.438   5.012  16.684  0.00  0.00    +0.000 HD
ENDBRANCH   8   9
BRANCH   1  11
ATOM     11  C   UNL     1       6.467   4.068  15.082  0.00  0.00    +0.000 C 
BRANCH  11  12
ATOM     12  N   UNL     1       7.371   5.133  14.664  0.00  0.00    +0.000 NA
ATOM     13  H   UNL     1       6.831   6.028  14.622  0.00  0.00    +0.000 HD
ATOM     14  H   UNL     1       7.722   4.924  13.701  0.00  0.00    +0.000 HD
ENDBRANCH  11  12
ENDBRANCH   1  11
TORSDOF 3
ENDMDL
MODEL 4
REMARK VINA RESULT:      -5.4      1.708      1.708
REMARK  Name = 
REMARK  3 active torsions:
REMARK  status: ('A' for Active; 'I' for Inactive)
REMARK    1  A    between atoms: N_1  and  C_2
REMARK    2  A    between atoms: C_2  and  C_3
REMARK    3  A    between atoms: C_10  and  O_11
REMARK                            x       y       z     vdW  Elec       q    Type
REMARK                         _______ _______ _______ _____ _____    ______ ____
ROOT
ATOM      1  C   UNL     1       6.663   5.776  18.485  0.00  0.00    +0.000 A 
ATOM      2  C   UNL     1       5.557   5.365  19.250  0.00  0.00    +0.000 A 
ATOM      3  C   UNL     1       4.261   5.472  18.737  0.00  0.00    +0.000 A 
ATOM      4 CL   UNL     1       2.890   4.952  19.701  0.00  0.00    +0.000 Cl
ATOM      5  C   UNL     1       4.057   5.990  17.456  0.00  0.00    +0.000 A 
ATOM      6  C   UNL     1       5.146   6.403  16.685  0.00  0.00    +0.000 A 
ATOM      7  F   UNL     1       4.927   6.901  15.442  0.00  0.00    +0.000 F 
ATOM      8  C   UNL     1       6.453   6.300  17.192  0.00  0.00    +0.000 A 
ENDROOT
BRANCH   8   9
ATOM      9  O   UNL     1       7.510   6.690  16.446  0.00  0.00    +0.000 OA
ATOM     10  H   UNL     1       7.555   7.560  16.023  0.00  0.00    +0.000 HD
ENDBRANCH   8   9
BRANCH   1  11
ATOM     11  C   UNL     1       8.057   5.641  19.046  0.00  0.00    +0.000 C 
BRANCH  11  12
ATOM     12  N   UNL     1       8.008   5.421  20.487  0.00  0.00    +0.000 NA
ATOM     13  H   UNL     1       7.830   4.405  20.661  0.00  0.00    +0.000 HD
ATOM     14  H   UNL     1       7.206   5.961  20.888  0.00  0.00    +0.000 HD
ENDBRANCH  11  12
ENDBRANCH   1  11
TORSDOF 3
ENDMDL
MODEL 5
REMARK VINA RESULT:      -5.4      1.174      1.174
REMARK  Name = 
REMARK  3 active torsions:
REMARK  status: ('A' for Active; 'I' for Inactive)
REMARK    1  A    between atoms: N_1  and  C_2
REMARK    2  A    between atoms: C_2  and  C_3
REMARK    3  A    between atoms: C_10  and  O_11
REMARK                            x       y       z     vdW  Elec       q    Type
REMARK                         _______ _______ _______ _____ _____    ______ ____
ROOT
ATOM      1  C   UNL     1       6.647   5.362  18.167  0.00  0.00    +0.000 A 
ATOM      2  C   UNL     1       5.690   4.609  18.870  0.00  0.00    +0.000 A 
ATOM      3  C   UNL     1       4.635   3.992  18.192  0.00  0.00    +0.000 A 
ATOM      4 CL   UNL     1       3.450   3.053  19.082  0.00  0.00    +0.000 Cl
ATOM      5  C   UNL     1       4.525   4.121  16.806  0.00  0.00    +0.000 A 
ATOM      6  C   UNL     1       5.468   4.866  16.093  0.00  0.00    +0.000 A 
ATOM      7  F   UNL     1       5.345   4.976  14.747  0.00  0.00    +0.000 F 
ATOM      8  C   UNL     1       6.532   5.491  16.767  0.00  0.00    +0.000 A 
ENDROOT
BRANCH   8   9
ATOM      9  O   UNL     1       7.451   6.205  16.081  0.00  0.00    +0.000 OA
ATOM     10  H   UNL     1       8.396   6.173  16.287  0.00  0.00    +0.000 HD
ENDBRANCH   8   9
BRANCH   1  11
ATOM     11  C   UNL     1       7.788   6.010  18.910  0.00  0.00    +0.000 C 
BRANCH  11  12
ATOM     12  N   UNL     1       7.898   5.460  20.257  0.00  0.00    +0.000 NA
ATOM     13  H   UNL     1       6.947   5.464  20.694  0.00  0.00    +0.000 HD
ATOM     14  H   UNL     1       8.518   6.079  20.829  0.00  0.00    +0.000 HD
ENDBRANCH  11  12
ENDBRANCH   1  11
TORSDOF 3
ENDMDL
MODEL 6
REMARK VINA RESULT:      -5.3      4.394      4.891
REMARK  Name = 
REMARK  3 active torsions:
REMARK  status: ('A' for Active; 'I' for Inactive)
REMARK    1  A    between atoms: N_1  and  C_2
REMARK    2  A    between atoms: C_2  and  C_3
REMARK    3  A    between atoms: C_10  and  O_11
REMARK                            x       y       z     vdW  Elec       q    Type
REMARK                         _______ _______ _______ _____ _____    ______ ____
ROOT
ATOM      1  C   UNL     1       1.777   3.719  20.229  0.00  0.00    +0.000 A 
ATOM      2  C   UNL     1       1.890   5.119  20.278  0.00  0.00    +0.000 A 
ATOM      3  C   UNL     1       2.199   5.846  19.125  0.00  0.00    +0.000 A 
ATOM      4 CL   UNL     1       2.334   7.594  19.200  0.00  0.00    +0.000 Cl
ATOM      5  C   UNL     1       2.399   5.182  17.913  0.00  0.00    +0.000 A 
ATOM      6  C   UNL     1       2.291   3.791  17.849  0.00  0.00    +0.000 A 
ATOM      7  F   UNL     1       2.486   3.165  16.661  0.00  0.00    +0.000 F 
ATOM      8  C   UNL     1       1.980   3.051  19.004  0.00  0.00    +0.000 A 
ENDROOT
BRANCH   8   9
ATOM      9  O   UNL     1       1.867   1.706  18.945  0.00  0.00    +0.000 OA
ATOM     10  H   UNL     1       2.591   1.135  18.653  0.00  0.00    +0.000 HD
ENDBRANCH   8   9
BRANCH   1  11
ATOM     11  C   UNL     1       1.427   2.949  21.478  0.00  0.00    +0.000 C 
BRANCH  11  12
ATOM     12  N   UNL     1       2.623   2.347  22.059  0.00  0.00    +0.000 NA
ATOM     13  H   UNL     1       2.427   1.336  22.246  0.00  0.00    +0.000 HD
ATOM     14  H   UNL     1       2.827   2.810  22.975  0.00  0.00    +0.000 HD
ENDBRANCH  11  12
ENDBRANCH   1  11
TORSDOF 3
ENDMDL
MODEL 7
REMARK VINA RESULT:      -5.3      2.633      2.999
REMARK  Name = 
REMARK  3 active torsions:
REMARK  status: ('A' for Active; 'I' for Inactive)
REMARK    1  A    between atoms: N_1  and  C_2
REMARK    2  A    between atoms: C_2  and  C_3
REMARK    3  A    between atoms: C_10  and  O_11
REMARK                            x       y       z     vdW  Elec       q    Type
REMARK                         _______ _______ _______ _____ _____    ______ ____
ROOT
ATOM      1  C   UNL     1       6.727   5.365  18.005  0.00  0.00    +0.000 A 
ATOM      2  C   UNL     1       7.052   5.010  16.683  0.00  0.00    +0.000 A 
ATOM      3  C   UNL     1       6.115   4.363  15.873  0.00  0.00    +0.000 A 
ATOM      4 CL   UNL     1       6.531   3.929  14.225  0.00  0.00    +0.000 Cl
ATOM      5  C   UNL     1       4.846   4.063  16.375  0.00  0.00    +0.000 A 
ATOM      6  C   UNL     1       4.510   4.408  17.686  0.00  0.00    +0.000 A 
ATOM      7  F   UNL     1       3.271   4.110  18.153  0.00  0.00    +0.000 F 
ATOM      8  C   UNL     1       5.446   5.060  18.508  0.00  0.00    +0.000 A 
ENDROOT
BRANCH   8   9
ATOM      9  O   UNL     1       5.122   5.403  19.774  0.00  0.00    +0.000 OA
ATOM     10  H   UNL     1       4.381   5.990  19.981  0.00  0.00    +0.000 HD
ENDBRANCH   8   9
BRANCH   1  11
ATOM     11  C   UNL     1       7.744   6.077  18.863  0.00  0.00    +0.000 C 
BRANCH  11  12
ATOM     12  N   UNL     1       7.901   5.393  20.142  0.00  0.00    +0.000 NA
ATOM     13  H   UNL     1       8.209   6.094  20.856  0.00  0.00    +0.000 HD
ATOM     14  H   UNL     1       8.654   4.673  20.053  0.00  0.00    +0.000 HD
ENDBRANCH  11  12
ENDBRANCH   1  11
TORSDOF 3
ENDMDL
MODEL 8
REMARK VINA RESULT:      -5.3      2.806      3.308
REMARK  Name = 
REMARK  3 active torsions:
REMARK  status: ('A' for Active; 'I' for Inactive)
REMARK    1  A    between atoms: N_1  and  C_2
REMARK    2  A    between atoms: C_2  and  C_3
REMARK    3  A    between atoms: C_10  and  O_11
REMARK                            x       y       z     vdW  Elec       q    Type
REMARK                         _______ _______ _______ _____ _____    ______ ____
ROOT
ATOM      1  C   UNL     1       5.196   5.031  17.839  0.00  0.00    +0.000 A 
ATOM      2  C   UNL     1       4.565   6.232  17.471  0.00  0.00    +0.000 A 
ATOM      3  C   UNL     1       3.436   6.681  18.163  0.00  0.00    +0.000 A 
ATOM      4 CL   UNL     1       2.660   8.183  17.696  0.00  0.00    +0.000 Cl
ATOM      5  C   UNL     1       2.928   5.934  19.229  0.00  0.00    +0.000 A 
ATOM      6  C   UNL     1       3.545   4.739  19.606  0.00  0.00    +0.000 A 
ATOM      7  F   UNL     1       3.038   4.030  20.646  0.00  0.00    +0.000 F 
ATOM      8  C   UNL     1       4.680   4.280  18.915  0.00  0.00    +0.000 A 
ENDROOT
BRANCH   8   9
ATOM      9  O   UNL     1       5.285   3.128  19.281  0.00  0.00    +0.000 OA
ATOM     10  H   UNL     1       6.200   2.922  19.043  0.00  0.00    +0.000 HD
ENDBRANCH   8   9
BRANCH   1  11
ATOM     11  C   UNL     1       6.422   4.567  17.092  0.00  0.00    +0.000 C 
BRANCH  11  12
ATOM     12  N   UNL     1       7.536   4.367  18.013  0.00  0.00    +0.000 NA
ATOM     13  H   UNL     1       8.059   5.269  18.101  0.00  0.00    +0.000 HD
ATOM     14  H   UNL     1       8.189   3.656  17.610  0.00  0.00    +0.000 HD
ENDBRANCH  11  12
ENDBRANCH   1  11
TORSDOF 3
ENDMDL
MODEL 9
REMARK VINA RESULT:      -5.2      3.156      3.974
REMARK  Name = 
REMARK  3 active torsions:
REMARK  status: ('A' for Active; 'I' for Inactive)
REMARK    1  A    between atoms: N_1  and  C_2
REMARK    2  A    between atoms: C_2  and  C_3
REMARK    3  A    between atoms: C_10  and  O_11
REMARK                            x       y       z     vdW  Elec       q    Type
REMARK                         _______ _______ _______ _____ _____    ______ ____
ROOT
ATOM      1  C   UNL     1       2.999   3.704  19.764  0.00  0.00    +0.000 A 
ATOM      2  C   UNL     1       2.387   4.904  19.359  0.00  0.00    +0.000 A 
ATOM      3  C   UNL     1       3.109   5.860  18.640  0.00  0.00    +0.000 A 
ATOM      4 CL   UNL     1       2.332   7.351  18.138  0.00  0.00    +0.000 Cl
ATOM      5  C   UNL     1       4.448   5.629  18.319  0.00  0.00    +0.000 A 
ATOM      6  C   UNL     1       5.070   4.442  18.714  0.00  0.00    +0.000 A 
ATOM      7  F   UNL     1       6.371   4.236  18.390  0.00  0.00    +0.000 F 
ATOM      8  C   UNL     1       4.352   3.474  19.438  0.00  0.00    +0.000 A 
ENDROOT
BRANCH   8   9
ATOM      9  O   UNL     1       4.947   2.322  19.816  0.00  0.00    +0.000 OA
ATOM     10  H   UNL     1       4.917   1.994  20.726  0.00  0.00    +0.000 HD
ENDBRANCH   8   9
BRANCH   1  11
ATOM     11  C   UNL     1       2.204   2.674  20.526  0.00  0.00    +0.000 C 
BRANCH  11  12
ATOM     12  N   UNL     1       2.610   2.650  21.927  0.00  0.00    +0.000 NA
ATOM     13  H   UNL     1       3.542   2.180  21.993  0.00  0.00    +0.000 HD
ATOM     14  H   UNL     1       1.923   2.079  22.472  0.00  0.00    +0.000 HD
ENDBRANCH  11  12
ENDBRANCH   1  11
TORSDOF 3
ENDMDL
