MODEL 1
REMARK VINA RESULT:      -7.4      0.000      0.000
REMARK  Name = 
REMARK  7 active torsions:
REMARK  status: ('A' for Active; 'I' for Inactive)
REMARK    1  A    between atoms: C_1  and  O_2
REMARK    2  A    between atoms: O_2  and  C_3
REMARK    3  A    between atoms: C_6  and  C_7
REMARK    4  A    between atoms: C_12  and  N_13
REMARK    5  A    between atoms: N_17  and  C_18
REMARK    6  A    between atoms: C_18  and  C_19
REMARK    7  A    between atoms: C_19  and  O_20
REMARK                            x       y       z     vdW  Elec       q    Type
REMARK                         _______ _______ _______ _____ _____    ______ ____
ROOT
ATOM      1  N   UNL     1      -0.986  11.507  17.607  0.00  0.00    +0.000 N 
ATOM      2  C   UNL     1      -2.363  11.411  17.345  0.00  0.00    +0.000 A 
ATOM      3  N   UNL     1      -2.699  10.966  16.134  0.00  0.00    +0.000 NA
ATOM      4  C   UNL     1      -3.989  11.006  15.853  0.00  0.00    +0.000 A 
ATOM      5  N   UNL     1      -4.471  10.593  14.620  0.00  0.00    +0.000 N 
ATOM      6  N   UNL     1      -4.924  11.428  16.687  0.00  0.00    +0.000 NA
ATOM      7  C   UNL     1      -4.517  11.793  17.899  0.00  0.00    +0.000 A 
ATOM      8  N   UNL     1      -5.489  12.144  18.810  0.00  0.00    +0.000 N 
ATOM      9  C   UNL     1      -5.156  12.443  20.191  0.00  0.00    +0.000 C 
ATOM     10  C   UNL     1      -6.301  11.819  20.986  0.00  0.00    +0.000 C 
ATOM     11  C   UNL     1      -7.478  11.862  20.022  0.00  0.00    +0.000 C 
ATOM     12  C   UNL     1      -6.836  11.617  18.659  0.00  0.00    +0.000 C 
ATOM     13  N   UNL     1      -3.243  11.844  18.243  0.00  0.00    +0.000 NA
ATOM     14  H   UNL     1      -0.516  10.956  16.899  0.00  0.00    +0.000 HD
ATOM     15  H   UNL     1      -4.961  11.380  14.208  0.00  0.00    +0.000 HD
ENDROOT
BRANCH   1  21
ATOM     16  C   UNL     1      -0.012  12.566  19.643  0.00  0.00    +0.000 A 
ATOM     17  C   UNL     1       0.618  12.396  20.882  0.00  0.00    +0.000 A 
ATOM     18  C   UNL     1       0.812  11.120  21.415  0.00  0.00    +0.000 A 
ATOM     19  C   UNL     1       0.370   9.992  20.720  0.00  0.00    +0.000 A 
ATOM     20  C   UNL     1      -0.207  10.164  19.451  0.00  0.00    +0.000 A 
ATOM     21  C   UNL     1      -0.353  11.436  18.871  0.00  0.00    +0.000 A 
BRANCH  19  22
ATOM     22  C   UNL     1       0.506   8.615  21.324  0.00  0.00    +0.000 C 
ATOM     23  F   UNL     1       1.205   7.744  20.539  0.00  0.00    +0.000 F 
ATOM     24  F   UNL     1       1.155   8.635  22.523  0.00  0.00    +0.000 F 
ATOM     25  F   UNL     1      -0.696   8.020  21.560  0.00  0.00    +0.000 F 
ENDBRANCH  19  22
BRANCH  16  27
ATOM     26  C   UNL     1      -1.058  14.662  20.013  0.00  0.00    +0.000 C 
ATOM     27  O   UNL     1      -0.337  13.801  19.138  0.00  0.00    +0.000 OA
ENDBRANCH  16  27
ENDBRANCH   1  21
BRANCH   5  28
ATOM     28  C   UNL     1      -3.579   9.864  13.733  0.00  0.00    +0.000 C 
BRANCH  28  29
ATOM     29  C   UNL     1      -4.254   9.691  12.358  0.00  0.00    +0.000 C 
BRANCH  29  30
ATOM     30  O   UNL     1      -3.271   9.739  11.326  0.00  0.00    +0.000 OA
ATOM     31  H   UNL     1      -2.741  10.537  11.525  0.00  0.00    +0.000 HD
ENDBRANCH  29  30
ENDBRANCH  28  29
ENDBRANCH   5  28
TORSDOF 6
ENDMDL
MODEL 2
REMARK VINA RESULT:      -7.2      1.910      2.609
REMARK  Name = 
REMARK  7 active torsions:
REMARK  status: ('A' for Active; 'I' for Inactive)
REMARK    1  A    between atoms: C_1  and  O_2
REMARK    2  A    between atoms: O_2  and  C_3
REMARK    3  A    between atoms: C_6  and  C_7
REMARK    4  A    between atoms: C_12  and  N_13
REMARK    5  A    between atoms: N_17  and  C_18
REMARK    6  A    between atoms: C_18  and  C_19
REMARK    7  A    between atoms: C_19  and  O_20
REMARK                            x       y       z     vdW  Elec       q    Type
REMARK                         _______ _______ _______ _____ _____    ______ ____
ROOT
ATOM      1  N   UNL     1      -0.960  10.688  17.635  0.00  0.00    +0.000 N 
ATOM      2  C   UNL     1      -2.309  10.888  17.299  0.00  0.00    +0.000 A 
ATOM      3  N   UNL     1      -2.651  10.593  16.045  0.00  0.00    +0.000 NA
ATOM      4  C   UNL     1      -3.886  10.910  15.702  0.00  0.00    +0.000 A 
ATOM      5  N   UNL     1      -4.362  10.676  14.421  0.00  0.00    +0.000 N 
ATOM      6  N   UNL     1      -4.769  11.462  16.516  0.00  0.00    +0.000 NA
ATOM      7  C   UNL     1      -4.375  11.666  17.770  0.00  0.00    +0.000 A 
ATOM      8  N   UNL     1      -5.313  12.152  18.654  0.00  0.00    +0.000 N 
ATOM      9  C   UNL     1      -5.016  12.295  20.067  0.00  0.00    +0.000 C 
ATOM     10  C   UNL     1      -6.310  11.871  20.758  0.00  0.00    +0.000 C 
ATOM     11  C   UNL     1      -7.391  12.208  19.742  0.00  0.00    +0.000 C 
ATOM     12  C   UNL     1      -6.726  11.919  18.398  0.00  0.00    +0.000 C 
ATOM     13  N   UNL     1      -3.141  11.438  18.180  0.00  0.00    +0.000 NA
ATOM     14  H   UNL     1      -0.565  10.096  16.915  0.00  0.00    +0.000 HD
ATOM     15  H   UNL     1      -4.659  11.569  14.042  0.00  0.00    +0.000 HD
ENDROOT
BRANCH   1  21
ATOM     16  C   UNL     1       0.767   9.713  19.146  0.00  0.00    +0.000 A 
ATOM     17  C   UNL     1       1.205   9.488  20.458  0.00  0.00    +0.000 A 
ATOM     18  C   UNL     1       0.527  10.048  21.542  0.00  0.00    +0.000 A 
ATOM     19  C   UNL     1      -0.597  10.850  21.333  0.00  0.00    +0.000 A 
ATOM     20  C   UNL     1      -1.067  11.024  20.020  0.00  0.00    +0.000 A 
ATOM     21  C   UNL     1      -0.435  10.416  18.922  0.00  0.00    +0.000 A 
BRANCH  19  22
ATOM     22  C   UNL     1      -1.289  11.522  22.494  0.00  0.00    +0.000 C 
ATOM     23  F   UNL     1      -0.597  12.585  22.998  0.00  0.00    +0.000 F 
ATOM     24  F   UNL     1      -2.517  12.008  22.156  0.00  0.00    +0.000 F 
ATOM     25  F   UNL     1      -1.496  10.680  23.545  0.00  0.00    +0.000 F 
ENDBRANCH  19  22
BRANCH  16  27
ATOM     26  C   UNL     1       2.231   8.098  18.213  0.00  0.00    +0.000 C 
ATOM     27  O   UNL     1       1.470   9.290  18.045  0.00  0.00    +0.000 OA
ENDBRANCH  16  27
ENDBRANCH   1  21
BRANCH   5  28
ATOM     28  C   UNL     1      -3.578   9.835  13.531  0.00  0.00    +0.000 C 
BRANCH  28  29
ATOM     29  C   UNL     1      -4.298   9.717  12.173  0.00  0.00    +0.000 C 
BRANCH  29  30
ATOM     30  O   UNL     1      -3.349   9.802  11.112  0.00  0.00    +0.000 OA
ATOM     31  H   UNL     1      -3.708  10.488  10.513  0.00  0.00    +0.000 HD
ENDBRANCH  29  30
ENDBRANCH  28  29
ENDBRANCH   5  28
TORSDOF 6
ENDMDL
MODEL 3
REMARK VINA RESULT:      -6.8      7.383      9.959
REMARK  Name = 
REMARK  7 active torsions:
REMARK  status: ('A' for Active; 'I' for Inactive)
REMARK    1  A    between atoms: C_1  and  O_2
REMARK    2  A    between atoms: O_2  and  C_3
REMARK    3  A    between atoms: C_6  and  C_7
REMARK    4  A    between atoms: C_12  and  N_13
REMARK    5  A    between atoms: N_17  and  C_18
REMARK    6  A    between atoms: C_18  and  C_19
REMARK    7  A    between atoms: C_19  and  O_20
REMARK                            x       y       z     vdW  Elec       q    Type
REMARK                         _______ _______ _______ _____ _____    ______ ____
ROOT
ATOM      1  N   UNL     1       5.142   7.122  17.133  0.00  0.00    +0.000 N 
ATOM      2  C   UNL     1       3.990   6.982  17.924  0.00  0.00    +0.000 A 
ATOM      3  N   UNL     1       3.141   8.010  17.911  0.00  0.00    +0.000 NA
ATOM      4  C   UNL     1       2.132   7.924  18.758  0.00  0.00    +0.000 A 
ATOM      5  N   UNL     1       1.189   8.935  18.861  0.00  0.00    +0.000 N 
ATOM      6  N   UNL     1       1.920   6.900  19.567  0.00  0.00    +0.000 NA
ATOM      7  C   UNL     1       2.772   5.883  19.475  0.00  0.00    +0.000 A 
ATOM      8  N   UNL     1       2.510   4.771  20.243  0.00  0.00    +0.000 N 
ATOM      9  C   UNL     1       3.312   3.566  20.125  0.00  0.00    +0.000 C 
ATOM     10  C   UNL     1       2.293   2.435  20.244  0.00  0.00    +0.000 C 
ATOM     11  C   UNL     1       1.186   3.034  21.099  0.00  0.00    +0.000 C 
ATOM     12  C   UNL     1       1.145   4.497  20.665  0.00  0.00    +0.000 C 
ATOM     13  N   UNL     1       3.843   5.914  18.703  0.00  0.00    +0.000 NA
ATOM     14  H   UNL     1       4.964   7.885  16.491  0.00  0.00    +0.000 HD
ATOM     15  H   UNL     1       1.196   9.258  19.823  0.00  0.00    +0.000 HD
ENDROOT
BRANCH   1  21
ATOM     16  C   UNL     1       6.931   5.388  17.235  0.00  0.00    +0.000 A 
ATOM     17  C   UNL     1       7.641   4.376  16.575  0.00  0.00    +0.000 A 
ATOM     18  C   UNL     1       7.275   3.968  15.292  0.00  0.00    +0.000 A 
ATOM     19  C   UNL     1       6.186   4.560  14.648  0.00  0.00    +0.000 A 
ATOM     20  C   UNL     1       5.515   5.615  15.288  0.00  0.00    +0.000 A 
ATOM     21  C   UNL     1       5.910   6.083  16.554  0.00  0.00    +0.000 A 
BRANCH  19  22
ATOM     22  C   UNL     1       5.736   4.072  13.292  0.00  0.00    +0.000 C 
ATOM     23  F   UNL     1       6.493   4.552  12.263  0.00  0.00    +0.000 F 
ATOM     24  F   UNL     1       5.787   2.714  13.186  0.00  0.00    +0.000 F 
ATOM     25  F   UNL     1       4.452   4.422  13.004  0.00  0.00    +0.000 F 
ENDBRANCH  19  22
BRANCH  16  27
ATOM     26  C   UNL     1       8.125   6.775  18.743  0.00  0.00    +0.000 C 
ATOM     27  O   UNL     1       7.173   5.736  18.542  0.00  0.00    +0.000 OA
ENDBRANCH  16  27
ENDBRANCH   1  21
BRANCH   5  28
ATOM     28  C   UNL     1       1.167   9.972  17.842  0.00  0.00    +0.000 C 
BRANCH  28  29
ATOM     29  C   UNL     1       1.693  11.290  18.442  0.00  0.00    +0.000 C 
BRANCH  29  30
ATOM     30  O   UNL     1       2.478  11.984  17.474  0.00  0.00    +0.000 OA
ATOM     31  H   UNL     1       1.913  12.729  17.186  0.00  0.00    +0.000 HD
ENDBRANCH  29  30
ENDBRANCH  28  29
ENDBRANCH   5  28
TORSDOF 6
ENDMDL
MODEL 4
REMARK VINA RESULT:      -6.6      5.759      8.831
REMARK  Name = 
REMARK  7 active torsions:
REMARK  status: ('A' for Active; 'I' for Inactive)
REMARK    1  A    between atoms: C_1  and  O_2
REMARK    2  A    between atoms: O_2  and  C_3
REMARK    3  A    between atoms: C_6  and  C_7
REMARK    4  A    between atoms: C_12  and  N_13
REMARK    5  A    between atoms: N_17  and  C_18
REMARK    6  A    between atoms: C_18  and  C_19
REMARK    7  A    between atoms: C_19  and  O_20
REMARK                            x       y       z     vdW  Elec       q    Type
REMARK                         _______ _______ _______ _____ _____    ______ ____
ROOT
ATOM      1  N   UNL     1       2.179   8.643  17.719  0.00  0.00    +0.000 N 
ATOM      2  C   UNL     1       2.900   7.478  18.028  0.00  0.00    +0.000 A 
ATOM      3  N   UNL     1       4.198   7.494  17.725  0.00  0.00    +0.000 NA
ATOM      4  C   UNL     1       4.836   6.350  17.897  0.00  0.00    +0.000 A 
ATOM      5  N   UNL     1       6.184   6.226  17.598  0.00  0.00    +0.000 N 
ATOM      6  N   UNL     1       4.277   5.244  18.356  0.00  0.00    +0.000 NA
ATOM      7  C   UNL     1       2.995   5.325  18.699  0.00  0.00    +0.000 A 
ATOM      8  N   UNL     1       2.424   4.208  19.268  0.00  0.00    +0.000 N 
ATOM      9  C   UNL     1       1.068   4.233  19.784  0.00  0.00    +0.000 C 
ATOM     10  C   UNL     1       1.145   3.394  21.057  0.00  0.00    +0.000 C 
ATOM     11  C   UNL     1       2.282   2.421  20.782  0.00  0.00    +0.000 C 
ATOM     12  C   UNL     1       3.268   3.243  19.956  0.00  0.00    +0.000 C 
ATOM     13  N   UNL     1       2.267   6.408  18.502  0.00  0.00    +0.000 NA
ATOM     14  H   UNL     1       2.860   9.375  17.566  0.00  0.00    +0.000 HD
ATOM     15  H   UNL     1       6.273   5.489  16.906  0.00  0.00    +0.000 HD
ENDROOT
BRANCH   1  21
ATOM     16  C   UNL     1       0.880   9.293  19.746  0.00  0.00    +0.000 A 
ATOM     17  C   UNL     1      -0.329   9.755  20.282  0.00  0.00    +0.000 A 
ATOM     18  C   UNL     1      -1.377  10.144  19.447  0.00  0.00    +0.000 A 
ATOM     19  C   UNL     1      -1.232  10.085  18.059  0.00  0.00    +0.000 A 
ATOM     20  C   UNL     1      -0.040   9.565  17.526  0.00  0.00    +0.000 A 
ATOM     21  C   UNL     1       1.002   9.109  18.353  0.00  0.00    +0.000 A 
BRANCH  19  22
ATOM     22  C   UNL     1      -2.331  10.577  17.149  0.00  0.00    +0.000 C 
ATOM     23  F   UNL     1      -3.550  10.028  17.425  0.00  0.00    +0.000 F 
ATOM     24  F   UNL     1      -2.507  11.926  17.227  0.00  0.00    +0.000 F 
ATOM     25  F   UNL     1      -2.091  10.306  15.835  0.00  0.00    +0.000 F 
ENDBRANCH  19  22
BRANCH  16  27
ATOM     26  C   UNL     1       1.736   8.858  21.914  0.00  0.00    +0.000 C 
ATOM     27  O   UNL     1       1.981   9.019  20.521  0.00  0.00    +0.000 OA
ENDBRANCH  16  27
ENDBRANCH   1  21
BRANCH   5  28
ATOM     28  C   UNL     1       6.956   7.431  17.348  0.00  0.00    +0.000 C 
BRANCH  28  29
ATOM     29  C   UNL     1       8.143   7.492  18.329  0.00  0.00    +0.000 C 
BRANCH  29  30
ATOM     30  O   UNL     1       8.133   6.344  19.175  0.00  0.00    +0.000 OA
ATOM     31  H   UNL     1       8.982   5.894  18.991  0.00  0.00    +0.000 HD
ENDBRANCH  29  30
ENDBRANCH  28  29
ENDBRANCH   5  28
TORSDOF 6
ENDMDL
MODEL 5
REMARK VINA RESULT:      -6.5      6.024      9.018
REMARK  Name = 
REMARK  7 active torsions:
REMARK  status: ('A' for Active; 'I' for Inactive)
REMARK    1  A    between atoms: C_1  and  O_2
REMARK    2  A    between atoms: O_2  and  C_3
REMARK    3  A    between atoms: C_6  and  C_7
REMARK    4  A    between atoms: C_12  and  N_13
REMARK    5  A    between atoms: N_17  and  C_18
REMARK    6  A    between atoms: C_18  and  C_19
REMARK    7  A    between atoms: C_19  and  O_20
REMARK                            x       y       z     vdW  Elec       q    Type
REMARK                         _______ _______ _______ _____ _____    ______ ____
ROOT
ATOM      1  N   UNL     1       2.675   8.575  17.898  0.00  0.00    +0.000 N 
ATOM      2  C   UNL     1       3.238   7.291  17.812  0.00  0.00    +0.000 A 
ATOM      3  N   UNL     1       4.543   7.240  17.547  0.00  0.00    +0.000 NA
ATOM      4  C   UNL     1       5.033   6.032  17.337  0.00  0.00    +0.000 A 
ATOM      5  N   UNL     1       6.372   5.841  17.029  0.00  0.00    +0.000 N 
ATOM      6  N   UNL     1       4.326   4.917  17.397  0.00  0.00    +0.000 NA
ATOM      7  C   UNL     1       3.045   5.044  17.733  0.00  0.00    +0.000 A 
ATOM      8  N   UNL     1       2.319   3.884  17.893  0.00  0.00    +0.000 N 
ATOM      9  C   UNL     1       0.949   3.912  18.372  0.00  0.00    +0.000 C 
ATOM     10  C   UNL     1       0.861   2.700  19.296  0.00  0.00    +0.000 C 
ATOM     11  C   UNL     1       1.890   1.734  18.727  0.00  0.00    +0.000 C 
ATOM     12  C   UNL     1       3.008   2.649  18.232  0.00  0.00    +0.000 C 
ATOM     13  N   UNL     1       2.460   6.216  17.897  0.00  0.00    +0.000 NA
ATOM     14  H   UNL     1       3.444   9.224  18.004  0.00  0.00    +0.000 HD
ATOM     15  H   UNL     1       6.411   5.367  16.133  0.00  0.00    +0.000 HD
ENDROOT
BRANCH   1  21
ATOM     16  C   UNL     1       1.283   8.554  19.968  0.00  0.00    +0.000 A 
ATOM     17  C   UNL     1       0.116   8.977  20.616  0.00  0.00    +0.000 A 
ATOM     18  C   UNL     1      -0.754   9.881  20.003  0.00  0.00    +0.000 A 
ATOM     19  C   UNL     1      -0.466  10.384  18.732  0.00  0.00    +0.000 A 
ATOM     20  C   UNL     1       0.675   9.912  18.061  0.00  0.00    +0.000 A 
ATOM     21  C   UNL     1       1.528   8.954  18.637  0.00  0.00    +0.000 A 
BRANCH  19  22
ATOM     22  C   UNL     1      -1.360  11.420  18.095  0.00  0.00    +0.000 C 
ATOM     23  F   UNL     1      -1.862  11.034  16.886  0.00  0.00    +0.000 F 
ATOM     24  F   UNL     1      -2.443  11.718  18.867  0.00  0.00    +0.000 F 
ATOM     25  F   UNL     1      -0.722  12.603  17.871  0.00  0.00    +0.000 F 
ENDBRANCH  19  22
BRANCH  16  27
ATOM     26  C   UNL     1       1.775   6.507  21.058  0.00  0.00    +0.000 C 
ATOM     27  O   UNL     1       2.229   7.768  20.578  0.00  0.00    +0.000 OA
ENDBRANCH  16  27
ENDBRANCH   1  21
BRANCH   5  28
ATOM     28  C   UNL     1       7.291   6.954  17.201  0.00  0.00    +0.000 C 
BRANCH  28  29
ATOM     29  C   UNL     1       8.023   6.809  18.550  0.00  0.00    +0.000 C 
BRANCH  29  30
ATOM     30  O   UNL     1       8.669   8.035  18.886  0.00  0.00    +0.000 OA
ATOM     31  H   UNL     1       8.212   8.342  19.695  0.00  0.00    +0.000 HD
ENDBRANCH  29  30
ENDBRANCH  28  29
ENDBRANCH   5  28
TORSDOF 6
ENDMDL
MODEL 6
REMARK VINA RESULT:      -6.4      8.696     11.136
REMARK  Name = 
REMARK  7 active torsions:
REMARK  status: ('A' for Active; 'I' for Inactive)
REMARK    1  A    between atoms: C_1  and  O_2
REMARK    2  A    between atoms: O_2  and  C_3
REMARK    3  A    between atoms: C_6  and  C_7
REMARK    4  A    between atoms: C_12  and  N_13
REMARK    5  A    between atoms: N_17  and  C_18
REMARK    6  A    between atoms: C_18  and  C_19
REMARK    7  A    between atoms: C_19  and  O_20
REMARK                            x       y       z     vdW  Elec       q    Type
REMARK                         _______ _______ _______ _____ _____    ______ ____
ROOT
ATOM      1  N   UNL     1       4.680   3.295  17.049  0.00  0.00    +0.000 N 
ATOM      2  C   UNL     1       3.893   3.969  17.997  0.00  0.00    +0.000 A 
ATOM      3  N   UNL     1       3.604   3.291  19.108  0.00  0.00    +0.000 NA
ATOM      4  C   UNL     1       2.756   3.882  19.930  0.00  0.00    +0.000 A 
ATOM      5  N   UNL     1       2.355   3.275  21.110  0.00  0.00    +0.000 N 
ATOM      6  N   UNL     1       2.221   5.073  19.723  0.00  0.00    +0.000 NA
ATOM      7  C   UNL     1       2.609   5.716  18.625  0.00  0.00    +0.000 A 
ATOM      8  N   UNL     1       2.133   6.996  18.444  0.00  0.00    +0.000 N 
ATOM      9  C   UNL     1       2.590   7.822  17.342  0.00  0.00    +0.000 C 
ATOM     10  C   UNL     1       2.708   9.216  17.954  0.00  0.00    +0.000 C 
ATOM     11  C   UNL     1       1.675   9.210  19.072  0.00  0.00    +0.000 C 
ATOM     12  C   UNL     1       1.725   7.778  19.601  0.00  0.00    +0.000 C 
ATOM     13  N   UNL     1       3.401   5.174  17.719  0.00  0.00    +0.000 NA
ATOM     14  H   UNL     1       5.099   2.507  17.525  0.00  0.00    +0.000 HD
ATOM     15  H   UNL     1       1.345   3.190  21.078  0.00  0.00    +0.000 HD
ENDROOT
BRANCH   1  21
ATOM     16  C   UNL     1       6.652   4.681  16.411  0.00  0.00    +0.000 A 
ATOM     17  C   UNL     1       7.442   5.219  15.387  0.00  0.00    +0.000 A 
ATOM     18  C   UNL     1       7.211   4.878  14.053  0.00  0.00    +0.000 A 
ATOM     19  C   UNL     1       6.189   3.986  13.721  0.00  0.00    +0.000 A 
ATOM     20  C   UNL     1       5.361   3.496  14.745  0.00  0.00    +0.000 A 
ATOM     21  C   UNL     1       5.539   3.878  16.086  0.00  0.00    +0.000 A 
BRANCH  19  22
ATOM     22  C   UNL     1       5.982   3.552  12.290  0.00  0.00    +0.000 C 
ATOM     23  F   UNL     1       6.847   4.142  11.413  0.00  0.00    +0.000 F 
ATOM     24  F   UNL     1       6.147   2.209  12.125  0.00  0.00    +0.000 F 
ATOM     25  F   UNL     1       4.733   3.836  11.827  0.00  0.00    +0.000 F 
ENDBRANCH  19  22
BRANCH  16  27
ATOM     26  C   UNL     1       7.437   6.169  18.082  0.00  0.00    +0.000 C 
ATOM     27  O   UNL     1       6.919   4.887  17.743  0.00  0.00    +0.000 OA
ENDBRANCH  16  27
ENDBRANCH   1  21
BRANCH   5  28
ATOM     28  C   UNL     1       3.079   2.101  21.569  0.00  0.00    +0.000 C 
BRANCH  28  29
ATOM     29  C   UNL     1       4.456   2.046  20.880  0.00  0.00    +0.000 C 
BRANCH  29  30
ATOM     30  O   UNL     1       5.375   1.317  21.691  0.00  0.00    +0.000 OA
ATOM     31  H   UNL     1       5.483   0.459  21.232  0.00  0.00    +0.000 HD
ENDBRANCH  29  30
ENDBRANCH  28  29
ENDBRANCH   5  28
TORSDOF 6
ENDMDL
MODEL 7
REMARK VINA RESULT:      -6.3      8.198     10.602
REMARK  Name = 
REMARK  7 active torsions:
REMARK  status: ('A' for Active; 'I' for Inactive)
REMARK    1  A    between atoms: C_1  and  O_2
REMARK    2  A    between atoms: O_2  and  C_3
REMARK    3  A    between atoms: C_6  and  C_7
REMARK    4  A    between atoms: C_12  and  N_13
REMARK    5  A    between atoms: N_17  and  C_18
REMARK    6  A    between atoms: C_18  and  C_19
REMARK    7  A    between atoms: C_19  and  O_20
REMARK                            x       y       z     vdW  Elec       q    Type
REMARK                         _______ _______ _______ _____ _____    ______ ____
ROOT
ATOM      1  N   UNL     1       4.026   3.505  17.112  0.00  0.00    +0.000 N 
ATOM      2  C   UNL     1       3.170   4.272  17.920  0.00  0.00    +0.000 A 
ATOM      3  N   UNL     1       2.544   3.616  18.897  0.00  0.00    +0.000 NA
ATOM      4  C   UNL     1       1.643   4.315  19.564  0.00  0.00    +0.000 A 
ATOM      5  N   UNL     1       0.904   3.747  20.590  0.00  0.00    +0.000 N 
ATOM      6  N   UNL     1       1.362   5.586  19.332  0.00  0.00    +0.000 NA
ATOM      7  C   UNL     1       2.076   6.190  18.386  0.00  0.00    +0.000 A 
ATOM      8  N   UNL     1       1.861   7.537  18.199  0.00  0.00    +0.000 N 
ATOM      9  C   UNL     1       2.672   8.309  17.276  0.00  0.00    +0.000 C 
ATOM     10  C   UNL     1       2.875   9.642  17.993  0.00  0.00    +0.000 C 
ATOM     11  C   UNL     1       1.638   9.775  18.869  0.00  0.00    +0.000 C 
ATOM     12  C   UNL     1       1.343   8.339  19.297  0.00  0.00    +0.000 C 
ATOM     13  N   UNL     1       2.949   5.551  17.630  0.00  0.00    +0.000 NA
ATOM     14  H   UNL     1       4.201   2.641  17.610  0.00  0.00    +0.000 HD
ATOM     15  H   UNL     1      -0.075   3.837  20.343  0.00  0.00    +0.000 HD
ENDROOT
BRANCH   1  21
ATOM     16  C   UNL     1       6.311   4.498  17.000  0.00  0.00    +0.000 A 
ATOM     17  C   UNL     1       7.378   4.931  16.202  0.00  0.00    +0.000 A 
ATOM     18  C   UNL     1       7.360   4.738  14.820  0.00  0.00    +0.000 A 
ATOM     19  C   UNL     1       6.277   4.100  14.212  0.00  0.00    +0.000 A 
ATOM     20  C   UNL     1       5.183   3.720  15.008  0.00  0.00    +0.000 A 
ATOM     21  C   UNL     1       5.155   3.964  16.392  0.00  0.00    +0.000 A 
BRANCH  19  22
ATOM     22  C   UNL     1       6.284   3.819  12.729  0.00  0.00    +0.000 C 
ATOM     23  F   UNL     1       7.119   4.637  12.025  0.00  0.00    +0.000 F 
ATOM     24  F   UNL     1       6.684   2.547  12.443  0.00  0.00    +0.000 F 
ATOM     25  F   UNL     1       5.055   3.961  12.158  0.00  0.00    +0.000 F 
ENDBRANCH  19  22
BRANCH  16  27
ATOM     26  C   UNL     1       7.190   5.542  18.939  0.00  0.00    +0.000 C 
ATOM     27  O   UNL     1       6.339   4.551  18.373  0.00  0.00    +0.000 OA
ENDBRANCH  16  27
ENDBRANCH   1  21
BRANCH   5  28
ATOM     28  C   UNL     1       1.314   2.452  21.107  0.00  0.00    +0.000 C 
BRANCH  28  29
ATOM     29  C   UNL     1       2.533   2.633  22.033  0.00  0.00    +0.000 C 
BRANCH  29  30
ATOM     30  O   UNL     1       3.719   2.215  21.360  0.00  0.00    +0.000 OA
ATOM     31  H   UNL     1       4.428   2.774  21.739  0.00  0.00    +0.000 HD
ENDBRANCH  29  30
ENDBRANCH  28  29
ENDBRANCH   5  28
TORSDOF 6
ENDMDL
MODEL 8
REMARK VINA RESULT:      -6.2      4.112      6.081
REMARK  Name = 
REMARK  7 active torsions:
REMARK  status: ('A' for Active; 'I' for Inactive)
REMARK    1  A    between atoms: C_1  and  O_2
REMARK    2  A    between atoms: O_2  and  C_3
REMARK    3  A    between atoms: C_6  and  C_7
REMARK    4  A    between atoms: C_12  and  N_13
REMARK    5  A    between atoms: N_17  and  C_18
REMARK    6  A    between atoms: C_18  and  C_19
REMARK    7  A    between atoms: C_19  and  O_20
REMARK                            x       y       z     vdW  Elec       q    Type
REMARK                         _______ _______ _______ _____ _____    ______ ____
ROOT
ATOM      1  N   UNL     1       1.988   7.711  17.541  0.00  0.00    +0.000 N 
ATOM      2  C   UNL     1       1.047   8.570  18.132  0.00  0.00    +0.000 A 
ATOM      3  N   UNL     1       0.119   9.072  17.317  0.00  0.00    +0.000 NA
ATOM      4  C   UNL     1      -0.677   9.980  17.853  0.00  0.00    +0.000 A 
ATOM      5  N   UNL     1      -1.671  10.597  17.109  0.00  0.00    +0.000 N 
ATOM      6  N   UNL     1      -0.613  10.380  19.111  0.00  0.00    +0.000 NA
ATOM      7  C   UNL     1       0.295   9.785  19.879  0.00  0.00    +0.000 A 
ATOM      8  N   UNL     1       0.309  10.123  21.214  0.00  0.00    +0.000 N 
ATOM      9  C   UNL     1       1.181   9.444  22.155  0.00  0.00    +0.000 C 
ATOM     10  C   UNL     1       0.325   9.303  23.411  0.00  0.00    +0.000 C 
ATOM     11  C   UNL     1      -0.631  10.484  23.333  0.00  0.00    +0.000 C 
ATOM     12  C   UNL     1      -0.903  10.630  21.838  0.00  0.00    +0.000 C 
ATOM     13  N   UNL     1       1.171   8.916  19.410  0.00  0.00    +0.000 NA
ATOM     14  H   UNL     1       1.606   7.431  16.646  0.00  0.00    +0.000 HD
ATOM     15  H   UNL     1      -1.493  11.596  17.138  0.00  0.00    +0.000 HD
ENDROOT
BRANCH   1  21
ATOM     16  C   UNL     1       4.116   6.543  18.109  0.00  0.00    +0.000 A 
ATOM     17  C   UNL     1       4.746   5.481  18.770  0.00  0.00    +0.000 A 
ATOM     18  C   UNL     1       4.017   4.617  19.589  0.00  0.00    +0.000 A 
ATOM     19  C   UNL     1       2.645   4.805  19.767  0.00  0.00    +0.000 A 
ATOM     20  C   UNL     1       2.006   5.835  19.056  0.00  0.00    +0.000 A 
ATOM     21  C   UNL     1       2.713   6.676  18.178  0.00  0.00    +0.000 A 
BRANCH  19  22
ATOM     22  C   UNL     1       1.863   3.923  20.710  0.00  0.00    +0.000 C 
ATOM     23  F   UNL     1       2.266   4.027  22.010  0.00  0.00    +0.000 F 
ATOM     24  F   UNL     1       0.531   4.214  20.711  0.00  0.00    +0.000 F 
ATOM     25  F   UNL     1       1.957   2.601  20.397  0.00  0.00    +0.000 F 
ENDBRANCH  19  22
BRANCH  16  27
ATOM     26  C   UNL     1       6.144   7.148  17.039  0.00  0.00    +0.000 C 
ATOM     27  O   UNL     1       4.809   7.491  17.397  0.00  0.00    +0.000 OA
ENDBRANCH  16  27
ENDBRANCH   1  21
BRANCH   5  28
ATOM     28  C   UNL     1      -2.008  10.047  15.806  0.00  0.00    +0.000 C 
BRANCH  28  29
ATOM     29  C   UNL     1      -3.319  10.683  15.306  0.00  0.00    +0.000 C 
BRANCH  29  30
ATOM     30  O   UNL     1      -3.729  11.717  16.198  0.00  0.00    +0.000 OA
ATOM     31  H   UNL     1      -4.658  11.504  16.415  0.00  0.00    +0.000 HD
ENDBRANCH  29  30
ENDBRANCH  28  29
ENDBRANCH   5  28
TORSDOF 6
ENDMDL
MODEL 9
REMARK VINA RESULT:      -6.2      5.304      8.275
REMARK  Name = 
REMARK  7 active torsions:
REMARK  status: ('A' for Active; 'I' for Inactive)
REMARK    1  A    between atoms: C_1  and  O_2
REMARK    2  A    between atoms: O_2  and  C_3
REMARK    3  A    between atoms: C_6  and  C_7
REMARK    4  A    between atoms: C_12  and  N_13
REMARK    5  A    between atoms: N_17  and  C_18
REMARK    6  A    between atoms: C_18  and  C_19
REMARK    7  A    between atoms: C_19  and  O_20
REMARK                            x       y       z     vdW  Elec       q    Type
REMARK                         _______ _______ _______ _____ _____    ______ ____
ROOT
ATOM      1  N   UNL     1       2.010   8.779  18.031  0.00  0.00    +0.000 N 
ATOM      2  C   UNL     1       2.700   7.564  18.176  0.00  0.00    +0.000 A 
ATOM      3  N   UNL     1       3.922   7.517  17.645  0.00  0.00    +0.000 NA
ATOM      4  C   UNL     1       4.507   6.333  17.671  0.00  0.00    +0.000 A 
ATOM      5  N   UNL     1       5.771   6.143  17.132  0.00  0.00    +0.000 N 
ATOM      6  N   UNL     1       3.971   5.245  18.194  0.00  0.00    +0.000 NA
ATOM      7  C   UNL     1       2.777   5.386  18.765  0.00  0.00    +0.000 A 
ATOM      8  N   UNL     1       2.248   4.284  19.398  0.00  0.00    +0.000 N 
ATOM      9  C   UNL     1       1.009   4.368  20.149  0.00  0.00    +0.000 C 
ATOM     10  C   UNL     1       1.258   3.480  21.366  0.00  0.00    +0.000 C 
ATOM     11  C   UNL     1       2.266   2.455  20.867  0.00  0.00    +0.000 C 
ATOM     12  C   UNL     1       3.139   3.249  19.899  0.00  0.00    +0.000 C 
ATOM     13  N   UNL     1       2.095   6.516  18.728  0.00  0.00    +0.000 NA
ATOM     14  H   UNL     1       2.698   9.476  17.776  0.00  0.00    +0.000 HD
ATOM     15  H   UNL     1       5.689   5.428  16.416  0.00  0.00    +0.000 HD
ENDROOT
BRANCH   1  21
ATOM     16  C   UNL     1      -0.246   9.771  18.412  0.00  0.00    +0.000 A 
ATOM     17  C   UNL     1      -1.186  10.261  19.327  0.00  0.00    +0.000 A 
ATOM     18  C   UNL     1      -0.958  10.174  20.701  0.00  0.00    +0.000 A 
ATOM     19  C   UNL     1       0.213   9.587  21.185  0.00  0.00    +0.000 A 
ATOM     20  C   UNL     1       1.181   9.151  20.264  0.00  0.00    +0.000 A 
ATOM     21  C   UNL     1       0.996   9.288  18.877  0.00  0.00    +0.000 A 
BRANCH  19  22
ATOM     22  C   UNL     1       0.433   9.419  22.669  0.00  0.00    +0.000 C 
ATOM     23  F   UNL     1       1.747   9.276  23.011  0.00  0.00    +0.000 F 
ATOM     24  F   UNL     1      -0.021  10.486  23.386  0.00  0.00    +0.000 F 
ATOM     25  F   UNL     1      -0.204   8.328  23.178  0.00  0.00    +0.000 F 
ENDBRANCH  19  22
BRANCH  16  27
ATOM     26  C   UNL     1      -1.841   9.842  16.660  0.00  0.00    +0.000 C 
ATOM     27  O   UNL     1      -0.481   9.720  17.060  0.00  0.00    +0.000 OA
ENDBRANCH  16  27
ENDBRANCH   1  21
BRANCH   5  28
ATOM     28  C   UNL     1       6.560   7.311  16.778  0.00  0.00    +0.000 C 
BRANCH  28  29
ATOM     29  C   UNL     1       7.694   7.493  17.805  0.00  0.00    +0.000 C 
BRANCH  29  30
ATOM     30  O   UNL     1       7.873   6.289  18.549  0.00  0.00    +0.000 OA
ATOM     31  H   UNL     1       7.320   5.628  18.086  0.00  0.00    +0.000 HD
ENDBRANCH  29  30
ENDBRANCH  28  29
ENDBRANCH   5  28
TORSDOF 6
ENDMDL
