MODEL 1
REMARK VINA RESULT:      -9.4      0.000      0.000
REMARK  Name = 
REMARK  2 active torsions:
REMARK  status: ('A' for Active; 'I' for Inactive)
REMARK    1  A    between atoms: C_2  and  C_14
REMARK    2  A    between atoms: N_3  and  C_4
REMARK                            x       y       z     vdW  Elec       q    Type
REMARK                         _______ _______ _______ _____ _____    ______ ____
ROOT
ATOM      1  O   UNL     1       8.035   6.554  18.897  0.00  0.00    +0.000 OA
ATOM      2  C   UNL     1       7.510   6.925  17.852  0.00  0.00    +0.000 C 
ATOM      3  N   UNL     1       7.507   8.231  17.388  0.00  0.00    +0.000 N 
ATOM      4  H   UNL     1       6.934   8.420  16.566  0.00  0.00    +0.000 HD
ENDROOT
BRANCH   2   5
ATOM      5  C   UNL     1       6.785   5.893  17.048  0.00  0.00    +0.000 A 
ATOM      6  C   UNL     1       7.407   5.496  15.849  0.00  0.00    +0.000 A 
ATOM      7  C   UNL     1       6.799   4.579  15.008  0.00  0.00    +0.000 A 
ATOM      8  C   UNL     1       5.560   4.064  15.363  0.00  0.00    +0.000 A 
ATOM      9  C   UNL     1       4.931   4.432  16.544  0.00  0.00    +0.000 A 
ATOM     10  N   UNL     1       3.733   3.884  16.813  0.00  0.00    +0.000 NA
ATOM     11  C   UNL     1       3.130   4.225  17.964  0.00  0.00    +0.000 A 
ATOM     12  C   UNL     1       1.893   3.679  18.285  0.00  0.00    +0.000 A 
ATOM     13  C   UNL     1       1.250   3.996  19.482  0.00  0.00    +0.000 A 
ATOM     14  C   UNL     1       1.850   4.879  20.369  0.00  0.00    +0.000 A 
ATOM     15  C   UNL     1       3.085   5.441  20.049  0.00  0.00    +0.000 A 
ATOM     16  C   UNL     1       3.734   5.127  18.861  0.00  0.00    +0.000 A 
ATOM     17  N   UNL     1       4.929   5.684  18.590  0.00  0.00    +0.000 NA
ATOM     18  C   UNL     1       5.545   5.355  17.425  0.00  0.00    +0.000 A 
ENDBRANCH   2   5
BRANCH   3  19
ATOM     19  C   UNL     1       8.178   9.323  17.981  0.00  0.00    +0.000 A 
ATOM     20  C   UNL     1       8.984   9.182  19.116  0.00  0.00    +0.000 A 
ATOM     21  C   UNL     1       9.617  10.284  19.689  0.00  0.00    +0.000 A 
ATOM     22  C   UNL     1       9.442  11.545  19.137  0.00  0.00    +0.000 A 
ATOM     23  C   UNL     1       8.665  11.700  17.984  0.00  0.00    +0.000 A 
ATOM     24  C   UNL     1       8.042  10.590  17.401  0.00  0.00    +0.000 A 
ATOM     25  O   UNL     1       8.457  12.919  17.388  0.00  0.00    +0.000 OA
ATOM     26  C   UNL     1       9.382  13.905  17.863  0.00  0.00    +0.000 C 
ATOM     27  C   UNL     1       9.535  13.841  19.374  0.00  0.00    +0.000 C 
ATOM     28  O   UNL     1      10.070  12.580  19.777  0.00  0.00    +0.000 OA
ENDBRANCH   3  19
TORSDOF 2
ENDMDL
MODEL 2
REMARK VINA RESULT:      -9.2      4.823      7.368
REMARK  Name = 
REMARK  2 active torsions:
REMARK  status: ('A' for Active; 'I' for Inactive)
REMARK    1  A    between atoms: C_2  and  C_14
REMARK    2  A    between atoms: N_3  and  C_4
REMARK                            x       y       z     vdW  Elec       q    Type
REMARK                         _______ _______ _______ _____ _____    ______ ____
ROOT
ATOM      1  O   UNL     1       0.277   5.726  20.555  0.00  0.00    +0.000 OA
ATOM      2  C   UNL     1       1.481   5.962  20.531  0.00  0.00    +0.000 C 
ATOM      3  N   UNL     1       2.039   7.230  20.520  0.00  0.00    +0.000 N 
ATOM      4  H   UNL     1       3.047   7.282  20.380  0.00  0.00    +0.000 HD
ENDROOT
BRANCH   2   5
ATOM      5  C   UNL     1       2.406   4.788  20.466  0.00  0.00    +0.000 A 
ATOM      6  C   UNL     1       2.070   3.692  21.284  0.00  0.00    +0.000 A 
ATOM      7  C   UNL     1       2.882   2.572  21.334  0.00  0.00    +0.000 A 
ATOM      8  C   UNL     1       4.041   2.551  20.569  0.00  0.00    +0.000 A 
ATOM      9  C   UNL     1       4.388   3.614  19.748  0.00  0.00    +0.000 A 
ATOM     10  N   UNL     1       5.525   3.511  19.038  0.00  0.00    +0.000 NA
ATOM     11  C   UNL     1       5.856   4.531  18.228  0.00  0.00    +0.000 A 
ATOM     12  C   UNL     1       7.021   4.465  17.472  0.00  0.00    +0.000 A 
ATOM     13  C   UNL     1       7.381   5.498  16.606  0.00  0.00    +0.000 A 
ATOM     14  C   UNL     1       6.567   6.618  16.499  0.00  0.00    +0.000 A 
ATOM     15  C   UNL     1       5.404   6.697  17.263  0.00  0.00    +0.000 A 
ATOM     16  C   UNL     1       5.035   5.672  18.125  0.00  0.00    +0.000 A 
ATOM     17  N   UNL     1       3.901   5.781  18.840  0.00  0.00    +0.000 NA
ATOM     18  C   UNL     1       3.560   4.761  19.670  0.00  0.00    +0.000 A 
ENDBRANCH   2   5
BRANCH   3  19
ATOM     19  C   UNL     1       1.332   8.448  20.627  0.00  0.00    +0.000 A 
ATOM     20  C   UNL     1       1.116   9.289  19.530  0.00  0.00    +0.000 A 
ATOM     21  C   UNL     1       0.431  10.495  19.674  0.00  0.00    +0.000 A 
ATOM     22  C   UNL     1      -0.039  10.878  20.922  0.00  0.00    +0.000 A 
ATOM     23  C   UNL     1       0.139  10.034  22.023  0.00  0.00    +0.000 A 
ATOM     24  C   UNL     1       0.815   8.817  21.875  0.00  0.00    +0.000 A 
ATOM     25  O   UNL     1      -0.306  10.353  23.282  0.00  0.00    +0.000 OA
ATOM     26  C   UNL     1      -1.244  11.437  23.253  0.00  0.00    +0.000 C 
ATOM     27  C   UNL     1      -0.775  12.552  22.333  0.00  0.00    +0.000 C 
ATOM     28  O   UNL     1      -0.673  12.090  20.985  0.00  0.00    +0.000 OA
ENDBRANCH   3  19
TORSDOF 2
ENDMDL
MODEL 3
REMARK VINA RESULT:      -9.2      5.105      6.820
REMARK  Name = 
REMARK  2 active torsions:
REMARK  status: ('A' for Active; 'I' for Inactive)
REMARK    1  A    between atoms: C_2  and  C_14
REMARK    2  A    between atoms: N_3  and  C_4
REMARK                            x       y       z     vdW  Elec       q    Type
REMARK                         _______ _______ _______ _____ _____    ______ ____
ROOT
ATOM      1  O   UNL     1       2.179   9.105  17.081  0.00  0.00    +0.000 OA
ATOM      2  C   UNL     1       2.436   8.359  18.020  0.00  0.00    +0.000 C 
ATOM      3  N   UNL     1       1.906   8.478  19.295  0.00  0.00    +0.000 N 
ATOM      4  H   UNL     1       2.295   7.863  20.009  0.00  0.00    +0.000 HD
ENDROOT
BRANCH   2   5
ATOM      5  C   UNL     1       3.430   7.268  17.773  0.00  0.00    +0.000 A 
ATOM      6  C   UNL     1       4.367   7.508  16.750  0.00  0.00    +0.000 A 
ATOM      7  C   UNL     1       5.302   6.546  16.408  0.00  0.00    +0.000 A 
ATOM      8  C   UNL     1       5.295   5.334  17.087  0.00  0.00    +0.000 A 
ATOM      9  C   UNL     1       4.387   5.078  18.105  0.00  0.00    +0.000 A 
ATOM     10  N   UNL     1       4.451   3.881  18.713  0.00  0.00    +0.000 NA
ATOM     11  C   UNL     1       3.585   3.635  19.711  0.00  0.00    +0.000 A 
ATOM     12  C   UNL     1       3.618   2.412  20.370  0.00  0.00    +0.000 A 
ATOM     13  C   UNL     1       2.747   2.134  21.424  0.00  0.00    +0.000 A 
ATOM     14  C   UNL     1       1.824   3.093  21.822  0.00  0.00    +0.000 A 
ATOM     15  C   UNL     1       1.777   4.318  21.157  0.00  0.00    +0.000 A 
ATOM     16  C   UNL     1       2.643   4.604  20.110  0.00  0.00    +0.000 A 
ATOM     17  N   UNL     1       2.572   5.800  19.497  0.00  0.00    +0.000 NA
ATOM     18  C   UNL     1       3.435   6.057  18.480  0.00  0.00    +0.000 A 
ENDBRANCH   2   5
BRANCH   3  19
ATOM     19  C   UNL     1       0.922   9.407  19.700  0.00  0.00    +0.000 A 
ATOM     20  C   UNL     1       0.069  10.041  18.790  0.00  0.00    +0.000 A 
ATOM     21  C   UNL     1      -0.878  10.969  19.221  0.00  0.00    +0.000 A 
ATOM     22  C   UNL     1      -0.976  11.281  20.569  0.00  0.00    +0.000 A 
ATOM     23  C   UNL     1      -0.152  10.634  21.496  0.00  0.00    +0.000 A 
ATOM     24  C   UNL     1       0.789   9.691  21.064  0.00  0.00    +0.000 A 
ATOM     25  O   UNL     1      -0.203  10.895  22.843  0.00  0.00    +0.000 OA
ATOM     26  C   UNL     1      -1.392  11.612  23.198  0.00  0.00    +0.000 C 
ATOM     27  C   UNL     1      -1.675  12.740  22.219  0.00  0.00    +0.000 C 
ATOM     28  O   UNL     1      -1.909  12.225  20.907  0.00  0.00    +0.000 OA
ENDBRANCH   3  19
TORSDOF 2
ENDMDL
MODEL 4
REMARK VINA RESULT:      -9.0      5.969      8.601
REMARK  Name = 
REMARK  2 active torsions:
REMARK  status: ('A' for Active; 'I' for Inactive)
REMARK    1  A    between atoms: C_2  and  C_14
REMARK    2  A    between atoms: N_3  and  C_4
REMARK                            x       y       z     vdW  Elec       q    Type
REMARK                         _______ _______ _______ _____ _____    ______ ____
ROOT
ATOM      1  O   UNL     1       1.667   8.069  20.787  0.00  0.00    +0.000 OA
ATOM      2  C   UNL     1       1.367   8.747  19.810  0.00  0.00    +0.000 C 
ATOM      3  N   UNL     1       1.791   8.500  18.514  0.00  0.00    +0.000 N 
ATOM      4  H   UNL     1       1.563   9.209  17.818  0.00  0.00    +0.000 HD
ENDROOT
BRANCH   2   5
ATOM      5  C   UNL     1       0.514   9.952  20.051  0.00  0.00    +0.000 A 
ATOM      6  C   UNL     1       0.805  10.690  21.215  0.00  0.00    +0.000 A 
ATOM      7  C   UNL     1       0.047  11.797  21.557  0.00  0.00    +0.000 A 
ATOM      8  C   UNL     1      -1.012  12.163  20.737  0.00  0.00    +0.000 A 
ATOM      9  C   UNL     1      -1.313  11.457  19.580  0.00  0.00    +0.000 A 
ATOM     10  N   UNL     1      -2.352  11.880  18.841  0.00  0.00    +0.000 NA
ATOM     11  C   UNL     1      -2.635  11.210  17.711  0.00  0.00    +0.000 A 
ATOM     12  C   UNL     1      -3.699  11.615  16.914  0.00  0.00    +0.000 A 
ATOM     13  C   UNL     1      -4.006  10.955  15.724  0.00  0.00    +0.000 A 
ATOM     14  C   UNL     1      -3.240   9.865  15.329  0.00  0.00    +0.000 A 
ATOM     15  C   UNL     1      -2.178   9.445  16.129  0.00  0.00    +0.000 A 
ATOM     16  C   UNL     1      -1.864  10.101  17.313  0.00  0.00    +0.000 A 
ATOM     17  N   UNL     1      -0.828   9.670  18.055  0.00  0.00    +0.000 NA
ATOM     18  C   UNL     1      -0.537  10.333  19.205  0.00  0.00    +0.000 A 
ENDBRANCH   2   5
BRANCH   3  19
ATOM     19  C   UNL     1       2.553   7.390  18.088  0.00  0.00    +0.000 A 
ATOM     20  C   UNL     1       2.114   6.071  18.252  0.00  0.00    +0.000 A 
ATOM     21  C   UNL     1       2.900   4.997  17.839  0.00  0.00    +0.000 A 
ATOM     22  C   UNL     1       4.141   5.229  17.265  0.00  0.00    +0.000 A 
ATOM     23  C   UNL     1       4.582   6.541  17.065  0.00  0.00    +0.000 A 
ATOM     24  C   UNL     1       3.786   7.620  17.467  0.00  0.00    +0.000 A 
ATOM     25  O   UNL     1       5.798   6.838  16.499  0.00  0.00    +0.000 OA
ATOM     26  C   UNL     1       6.369   5.697  15.845  0.00  0.00    +0.000 C 
ATOM     27  C   UNL     1       6.239   4.445  16.697  0.00  0.00    +0.000 C 
ATOM     28  O   UNL     1       4.865   4.120  16.916  0.00  0.00    +0.000 OA
ENDBRANCH   3  19
TORSDOF 2
ENDMDL
MODEL 5
REMARK VINA RESULT:      -9.0      4.815      6.711
REMARK  Name = 
REMARK  2 active torsions:
REMARK  status: ('A' for Active; 'I' for Inactive)
REMARK    1  A    between atoms: C_2  and  C_14
REMARK    2  A    between atoms: N_3  and  C_4
REMARK                            x       y       z     vdW  Elec       q    Type
REMARK                         _______ _______ _______ _____ _____    ______ ____
ROOT
ATOM      1  O   UNL     1       1.870   7.842  21.130  0.00  0.00    +0.000 OA
ATOM      2  C   UNL     1       1.912   7.391  19.990  0.00  0.00    +0.000 C 
ATOM      3  N   UNL     1       1.678   8.127  18.839  0.00  0.00    +0.000 N 
ATOM      4  H   UNL     1       1.628   7.603  17.966  0.00  0.00    +0.000 HD
ENDROOT
BRANCH   2   5
ATOM      5  C   UNL     1       2.195   5.930  19.843  0.00  0.00    +0.000 A 
ATOM      6  C   UNL     1       1.575   5.084  20.783  0.00  0.00    +0.000 A 
ATOM      7  C   UNL     1       1.806   3.719  20.765  0.00  0.00    +0.000 A 
ATOM      8  C   UNL     1       2.667   3.198  19.809  0.00  0.00    +0.000 A 
ATOM      9  C   UNL     1       3.283   4.010  18.866  0.00  0.00    +0.000 A 
ATOM     10  N   UNL     1       4.099   3.424  17.973  0.00  0.00    +0.000 NA
ATOM     11  C   UNL     1       4.683   4.205  17.048  0.00  0.00    +0.000 A 
ATOM     12  C   UNL     1       5.532   3.641  16.103  0.00  0.00    +0.000 A 
ATOM     13  C   UNL     1       6.137   4.420  15.117  0.00  0.00    +0.000 A 
ATOM     14  C   UNL     1       5.894   5.787  15.079  0.00  0.00    +0.000 A 
ATOM     15  C   UNL     1       5.053   6.362  16.030  0.00  0.00    +0.000 A 
ATOM     16  C   UNL     1       4.444   5.593  17.013  0.00  0.00    +0.000 A 
ATOM     17  N   UNL     1       3.633   6.182  17.911  0.00  0.00    +0.000 NA
ATOM     18  C   UNL     1       3.044   5.406  18.858  0.00  0.00    +0.000 A 
ENDBRANCH   2   5
BRANCH   3  19
ATOM     19  C   UNL     1       1.447   9.519  18.778  0.00  0.00    +0.000 A 
ATOM     20  C   UNL     1       2.325  10.398  18.133  0.00  0.00    +0.000 A 
ATOM     21  C   UNL     1       2.078  11.769  18.108  0.00  0.00    +0.000 A 
ATOM     22  C   UNL     1       0.952  12.280  18.737  0.00  0.00    +0.000 A 
ATOM     23  C   UNL     1       0.047  11.413  19.358  0.00  0.00    +0.000 A 
ATOM     24  C   UNL     1       0.288  10.034  19.371  0.00  0.00    +0.000 A 
ATOM     25  O   UNL     1      -1.087  11.855  19.994  0.00  0.00    +0.000 OA
ATOM     26  C   UNL     1      -1.394  13.211  19.645  0.00  0.00    +0.000 C 
ATOM     27  C   UNL     1      -0.151  14.086  19.665  0.00  0.00    +0.000 C 
ATOM     28  O   UNL     1       0.798  13.640  18.694  0.00  0.00    +0.000 OA
ENDBRANCH   3  19
TORSDOF 2
ENDMDL
MODEL 6
REMARK VINA RESULT:      -9.0      5.852      8.534
REMARK  Name = 
REMARK  2 active torsions:
REMARK  status: ('A' for Active; 'I' for Inactive)
REMARK    1  A    between atoms: C_2  and  C_14
REMARK    2  A    between atoms: N_3  and  C_4
REMARK                            x       y       z     vdW  Elec       q    Type
REMARK                         _______ _______ _______ _____ _____    ______ ____
ROOT
ATOM      1  O   UNL     1       2.111   9.193  17.184  0.00  0.00    +0.000 OA
ATOM      2  C   UNL     1       1.769   8.765  18.282  0.00  0.00    +0.000 C 
ATOM      3  N   UNL     1       2.065   7.501  18.766  0.00  0.00    +0.000 N 
ATOM      4  H   UNL     1       1.619   7.234  19.643  0.00  0.00    +0.000 HD
ENDROOT
BRANCH   2   5
ATOM      5  C   UNL     1       0.936   9.667  19.136  0.00  0.00    +0.000 A 
ATOM      6  C   UNL     1       1.466   9.978  20.404  0.00  0.00    +0.000 A 
ATOM      7  C   UNL     1       0.755  10.769  21.291  0.00  0.00    +0.000 A 
ATOM      8  C   UNL     1      -0.494  11.243  20.914  0.00  0.00    +0.000 A 
ATOM      9  C   UNL     1      -1.033  10.958  19.667  0.00  0.00    +0.000 A 
ATOM     10  N   UNL     1      -2.247  11.459  19.380  0.00  0.00    +0.000 NA
ATOM     11  C   UNL     1      -2.764  11.199  18.167  0.00  0.00    +0.000 A 
ATOM     12  C   UNL     1      -4.015  11.701  17.827  0.00  0.00    +0.000 A 
ATOM     13  C   UNL     1      -4.570  11.468  16.568  0.00  0.00    +0.000 A 
ATOM     14  C   UNL     1      -3.866  10.715  15.638  0.00  0.00    +0.000 A 
ATOM     15  C   UNL     1      -2.616  10.198  15.976  0.00  0.00    +0.000 A 
ATOM     16  C   UNL     1      -2.055  10.429  17.225  0.00  0.00    +0.000 A 
ATOM     17  N   UNL     1      -0.843   9.919  17.513  0.00  0.00    +0.000 NA
ATOM     18  C   UNL     1      -0.313  10.166  18.739  0.00  0.00    +0.000 A 
ENDBRANCH   2   5
BRANCH   3  19
ATOM     19  C   UNL     1       2.876   6.537  18.127  0.00  0.00    +0.000 A 
ATOM     20  C   UNL     1       2.533   5.182  18.077  0.00  0.00    +0.000 A 
ATOM     21  C   UNL     1       3.366   4.253  17.456  0.00  0.00    +0.000 A 
ATOM     22  C   UNL     1       4.560   4.669  16.885  0.00  0.00    +0.000 A 
ATOM     23  C   UNL     1       4.904   6.025  16.898  0.00  0.00    +0.000 A 
ATOM     24  C   UNL     1       4.060   6.959  17.510  0.00  0.00    +0.000 A 
ATOM     25  O   UNL     1       6.068   6.500  16.348  0.00  0.00    +0.000 OA
ATOM     26  C   UNL     1       6.680   5.532  15.486  0.00  0.00    +0.000 C 
ATOM     27  C   UNL     1       6.674   4.147  16.113  0.00  0.00    +0.000 C 
ATOM     28  O   UNL     1       5.337   3.691  16.323  0.00  0.00    +0.000 OA
ENDBRANCH   3  19
TORSDOF 2
ENDMDL
MODEL 7
REMARK VINA RESULT:      -8.9      5.076      6.995
REMARK  Name = 
REMARK  2 active torsions:
REMARK  status: ('A' for Active; 'I' for Inactive)
REMARK    1  A    between atoms: C_2  and  C_14
REMARK    2  A    between atoms: N_3  and  C_4
REMARK                            x       y       z     vdW  Elec       q    Type
REMARK                         _______ _______ _______ _____ _____    ______ ____
ROOT
ATOM      1  O   UNL     1       0.327   5.692  20.678  0.00  0.00    +0.000 OA
ATOM      2  C   UNL     1       1.526   5.916  20.536  0.00  0.00    +0.000 C 
ATOM      3  N   UNL     1       2.098   7.177  20.509  0.00  0.00    +0.000 N 
ATOM      4  H   UNL     1       3.087   7.223  20.266  0.00  0.00    +0.000 HD
ENDROOT
BRANCH   2   5
ATOM      5  C   UNL     1       2.421   4.734  20.338  0.00  0.00    +0.000 A 
ATOM      6  C   UNL     1       2.280   3.689  21.271  0.00  0.00    +0.000 A 
ATOM      7  C   UNL     1       3.091   2.569  21.205  0.00  0.00    +0.000 A 
ATOM      8  C   UNL     1       4.054   2.497  20.208  0.00  0.00    +0.000 A 
ATOM      9  C   UNL     1       4.207   3.510  19.271  0.00  0.00    +0.000 A 
ATOM     10  N   UNL     1       5.161   3.360  18.337  0.00  0.00    +0.000 NA
ATOM     11  C   UNL     1       5.301   4.331  17.418  0.00  0.00    +0.000 A 
ATOM     12  C   UNL     1       6.272   4.215  16.431  0.00  0.00    +0.000 A 
ATOM     13  C   UNL     1       6.428   5.195  15.450  0.00  0.00    +0.000 A 
ATOM     14  C   UNL     1       5.603   6.312  15.460  0.00  0.00    +0.000 A 
ATOM     15  C   UNL     1       4.634   6.441  16.454  0.00  0.00    +0.000 A 
ATOM     16  C   UNL     1       4.470   5.468  17.432  0.00  0.00    +0.000 A 
ATOM     17  N   UNL     1       3.519   5.625  18.371  0.00  0.00    +0.000 NA
ATOM     18  C   UNL     1       3.374   4.655  19.312  0.00  0.00    +0.000 A 
ENDBRANCH   2   5
BRANCH   3  19
ATOM     19  C   UNL     1       1.423   8.399  20.728  0.00  0.00    +0.000 A 
ATOM     20  C   UNL     1       1.035   8.823  22.004  0.00  0.00    +0.000 A 
ATOM     21  C   UNL     1       0.352  10.025  22.184  0.00  0.00    +0.000 A 
ATOM     22  C   UNL     1       0.041  10.814  21.086  0.00  0.00    +0.000 A 
ATOM     23  C   UNL     1       0.449  10.421  19.807  0.00  0.00    +0.000 A 
ATOM     24  C   UNL     1       1.146   9.220  19.628  0.00  0.00    +0.000 A 
ATOM     25  O   UNL     1       0.175  11.158  18.681  0.00  0.00    +0.000 OA
ATOM     26  C   UNL     1      -0.243  12.489  19.010  0.00  0.00    +0.000 C 
ATOM     27  C   UNL     1      -1.246  12.491  20.153  0.00  0.00    +0.000 C 
ATOM     28  O   UNL     1      -0.659  11.962  21.343  0.00  0.00    +0.000 OA
ENDBRANCH   3  19
TORSDOF 2
ENDMDL
MODEL 8
REMARK VINA RESULT:      -8.9      6.228      9.206
REMARK  Name = 
REMARK  2 active torsions:
REMARK  status: ('A' for Active; 'I' for Inactive)
REMARK    1  A    between atoms: C_2  and  C_14
REMARK    2  A    between atoms: N_3  and  C_4
REMARK                            x       y       z     vdW  Elec       q    Type
REMARK                         _______ _______ _______ _____ _____    ______ ____
ROOT
ATOM      1  O   UNL     1       1.462   8.530  21.508  0.00  0.00    +0.000 OA
ATOM      2  C   UNL     1       1.060   9.089  20.492  0.00  0.00    +0.000 C 
ATOM      3  N   UNL     1       1.458   8.771  19.203  0.00  0.00    +0.000 N 
ATOM      4  H   UNL     1       1.137   9.392  18.462  0.00  0.00    +0.000 HD
ENDROOT
BRANCH   2   5
ATOM      5  C   UNL     1       0.102  10.223  20.671  0.00  0.00    +0.000 A 
ATOM      6  C   UNL     1       0.222  10.949  21.872  0.00  0.00    +0.000 A 
ATOM      7  C   UNL     1      -0.644  11.990  22.158  0.00  0.00    +0.000 A 
ATOM      8  C   UNL     1      -1.642  12.301  21.244  0.00  0.00    +0.000 A 
ATOM      9  C   UNL     1      -1.775  11.608  20.049  0.00  0.00    +0.000 A 
ATOM     10  N   UNL     1      -2.765  11.976  19.218  0.00  0.00    +0.000 NA
ATOM     11  C   UNL     1      -2.886  11.317  18.053  0.00  0.00    +0.000 A 
ATOM     12  C   UNL     1      -3.894  11.667  17.162  0.00  0.00    +0.000 A 
ATOM     13  C   UNL     1      -4.033  11.018  15.935  0.00  0.00    +0.000 A 
ATOM     14  C   UNL     1      -3.154   9.997  15.596  0.00  0.00    +0.000 A 
ATOM     15  C   UNL     1      -2.148   9.632  16.490  0.00  0.00    +0.000 A 
ATOM     16  C   UNL     1      -2.001  10.276  17.712  0.00  0.00    +0.000 A 
ATOM     17  N   UNL     1      -1.013   9.900  18.545  0.00  0.00    +0.000 NA
ATOM     18  C   UNL     1      -0.886  10.551  19.731  0.00  0.00    +0.000 A 
ENDBRANCH   2   5
BRANCH   3  19
ATOM     19  C   UNL     1       2.311   7.706  18.838  0.00  0.00    +0.000 A 
ATOM     20  C   UNL     1       3.258   7.820  17.814  0.00  0.00    +0.000 A 
ATOM     21  C   UNL     1       4.070   6.742  17.465  0.00  0.00    +0.000 A 
ATOM     22  C   UNL     1       3.937   5.532  18.130  0.00  0.00    +0.000 A 
ATOM     23  C   UNL     1       3.017   5.410  19.177  0.00  0.00    +0.000 A 
ATOM     24  C   UNL     1       2.211   6.497  19.537  0.00  0.00    +0.000 A 
ATOM     25  O   UNL     1       2.840   4.242  19.876  0.00  0.00    +0.000 OA
ATOM     26  C   UNL     1       3.915   3.321  19.649  0.00  0.00    +0.000 C 
ATOM     27  C   UNL     1       4.282   3.248  18.176  0.00  0.00    +0.000 C 
ATOM     28  O   UNL     1       4.749   4.514  17.706  0.00  0.00    +0.000 OA
ENDBRANCH   3  19
TORSDOF 2
ENDMDL
MODEL 9
REMARK VINA RESULT:      -8.8      5.037      7.465
REMARK  Name = 
REMARK  2 active torsions:
REMARK  status: ('A' for Active; 'I' for Inactive)
REMARK    1  A    between atoms: C_2  and  C_14
REMARK    2  A    between atoms: N_3  and  C_4
REMARK                            x       y       z     vdW  Elec       q    Type
REMARK                         _______ _______ _______ _____ _____    ______ ____
ROOT
ATOM      1  O   UNL     1       1.925   7.864  18.755  0.00  0.00    +0.000 OA
ATOM      2  C   UNL     1       1.894   7.265  19.825  0.00  0.00    +0.000 C 
ATOM      3  N   UNL     1       1.490   7.817  21.030  0.00  0.00    +0.000 N 
ATOM      4  H   UNL     1       1.626   7.244  21.862  0.00  0.00    +0.000 HD
ENDROOT
BRANCH   2   5
ATOM      5  C   UNL     1       2.370   5.847  19.828  0.00  0.00    +0.000 A 
ATOM      6  C   UNL     1       1.896   5.039  20.879  0.00  0.00    +0.000 A 
ATOM      7  C   UNL     1       2.309   3.723  21.000  0.00  0.00    +0.000 A 
ATOM      8  C   UNL     1       3.209   3.216  20.072  0.00  0.00    +0.000 A 
ATOM      9  C   UNL     1       3.683   3.989  19.022  0.00  0.00    +0.000 A 
ATOM     10  N   UNL     1       4.549   3.420  18.166  0.00  0.00    +0.000 NA
ATOM     11  C   UNL     1       4.997   4.160  17.138  0.00  0.00    +0.000 A 
ATOM     12  C   UNL     1       5.890   3.610  16.226  0.00  0.00    +0.000 A 
ATOM     13  C   UNL     1       6.357   4.345  15.137  0.00  0.00    +0.000 A 
ATOM     14  C   UNL     1       5.930   5.655  14.960  0.00  0.00    +0.000 A 
ATOM     15  C   UNL     1       5.044   6.218  15.877  0.00  0.00    +0.000 A 
ATOM     16  C   UNL     1       4.570   5.491  16.962  0.00  0.00    +0.000 A 
ATOM     17  N   UNL     1       3.710   6.067  17.822  0.00  0.00    +0.000 NA
ATOM     18  C   UNL     1       3.257   5.332  18.871  0.00  0.00    +0.000 A 
ENDBRANCH   2   5
BRANCH   3  19
ATOM     19  C   UNL     1       0.965   9.116  21.212  0.00  0.00    +0.000 A 
ATOM     20  C   UNL     1       1.423  10.220  20.485  0.00  0.00    +0.000 A 
ATOM     21  C   UNL     1       0.897  11.492  20.703  0.00  0.00    +0.000 A 
ATOM     22  C   UNL     1      -0.090  11.676  21.661  0.00  0.00    +0.000 A 
ATOM     23  C   UNL     1      -0.582  10.579  22.375  0.00  0.00    +0.000 A 
ATOM     24  C   UNL     1      -0.063   9.299  22.146  0.00  0.00    +0.000 A 
ATOM     25  O   UNL     1      -1.559  10.695  23.333  0.00  0.00    +0.000 OA
ATOM     26  C   UNL     1      -2.229  11.960  23.254  0.00  0.00    +0.000 C 
ATOM     27  C   UNL     1      -1.242  13.100  23.069  0.00  0.00    +0.000 C 
ATOM     28  O   UNL     1      -0.531  12.961  21.838  0.00  0.00    +0.000 OA
ENDBRANCH   3  19
TORSDOF 2
ENDMDL
