MODEL 1
REMARK VINA RESULT:      -7.3      0.000      0.000
REMARK  Name = 
REMARK  8 active torsions:
REMARK  status: ('A' for Active; 'I' for Inactive)
REMARK    1  A    between atoms: C_1  and  C_2
REMARK    2  A    between atoms: C_2  and  C_3
REMARK    3  A    between atoms: C_8  and  C_10
REMARK    4  A    between atoms: C_10  and  N_11
REMARK    5  A    between atoms: C_10  and  C_21
REMARK    6  A    between atoms: C_12  and  C_14
REMARK    7  A    between atoms: C_21  and  C_22
REMARK    8  A    between atoms: C_21  and  C_23
REMARK                            x       y       z     vdW  Elec       q    Type
REMARK                         _______ _______ _______ _____ _____    ______ ____
ROOT
ATOM      1  C   UNL     1       2.188   3.948  19.519  0.00  0.00    +0.000 C 
ENDROOT
BRANCH   1   7
ATOM      2  C   UNL     1       1.612   8.805  18.914  0.00  0.00    +0.000 A 
ATOM      3  N   UNL     1       2.038   7.827  18.149  0.00  0.00    +0.000 NA
ATOM      4  N   UNL     1       2.267   6.686  18.867  0.00  0.00    +0.000 NA
ATOM      5  C   UNL     1       2.001   6.832  20.137  0.00  0.00    +0.000 A 
ATOM      6  N   UNL     1       2.078   5.903  21.136  0.00  0.00    +0.000 N 
ATOM      7  C   UNL     1       2.281   4.569  20.940  0.00  0.00    +0.000 C 
ATOM      8  O   UNL     1       2.590   3.883  21.924  0.00  0.00    +0.000 OA
ATOM      9  S   UNL     1       1.505   8.398  20.587  0.00  0.00    +0.000 S 
ATOM     10  H   UNL     1       2.037   6.227  22.092  0.00  0.00    +0.000 HD
BRANCH   2  12
ATOM     11  C   UNL     1      -0.204  10.399  18.426  0.00  0.00    +0.000 C 
ATOM     12  C   UNL     1       1.295  10.163  18.400  0.00  0.00    +0.000 C 
ENDBRANCH   2  12
ENDBRANCH   1   7
BRANCH   1  13
ATOM     13  N   UNL     1       3.497   4.133  18.895  0.00  0.00    +0.000 N 
ATOM     14  C   UNL     1       3.657   4.193  17.528  0.00  0.00    +0.000 C 
ATOM     15  O   UNL     1       2.725   4.061  16.740  0.00  0.00    +0.000 OA
ATOM     16  H   UNL     1       4.311   4.167  19.499  0.00  0.00    +0.000 HD
BRANCH  14  17
ATOM     17  C   UNL     1       5.025   4.438  16.991  0.00  0.00    +0.000 A 
ATOM     18  C   UNL     1       5.220   4.121  15.633  0.00  0.00    +0.000 A 
ATOM     19  C   UNL     1       6.468   4.279  15.027  0.00  0.00    +0.000 A 
ATOM     20  C   UNL     1       7.541   4.754  15.771  0.00  0.00    +0.000 A 
ATOM     21  C   UNL     1       7.365   5.070  17.118  0.00  0.00    +0.000 A 
ATOM     22  C   UNL     1       6.115   4.912  17.734  0.00  0.00    +0.000 A 
ATOM     23 CL   UNL     1       6.044   5.287  19.421  0.00  0.00    +0.000 Cl
ENDBRANCH  14  17
ENDBRANCH   1  13
BRANCH   1  24
ATOM     24  C   UNL     1       1.775   2.457  19.578  0.00  0.00    +0.000 C 
ATOM     25  C   UNL     1       0.544   2.201  18.694  0.00  0.00    +0.000 C 
ATOM     26  C   UNL     1       2.906   1.539  19.096  0.00  0.00    +0.000 C 
ENDBRANCH   1  24
TORSDOF 5
ENDMDL
MODEL 2
REMARK VINA RESULT:      -7.1      4.140      6.388
REMARK  Name = 
REMARK  8 active torsions:
REMARK  status: ('A' for Active; 'I' for Inactive)
REMARK    1  A    between atoms: C_1  and  C_2
REMARK    2  A    between atoms: C_2  and  C_3
REMARK    3  A    between atoms: C_8  and  C_10
REMARK    4  A    between atoms: C_10  and  N_11
REMARK    5  A    between atoms: C_10  and  C_21
REMARK    6  A    between atoms: C_12  and  C_14
REMARK    7  A    between atoms: C_21  and  C_22
REMARK    8  A    between atoms: C_21  and  C_23
REMARK                            x       y       z     vdW  Elec       q    Type
REMARK                         _______ _______ _______ _____ _____    ______ ____
ROOT
ATOM      1  C   UNL     1       0.463  10.681  19.456  0.00  0.00    +0.000 C 
ENDROOT
BRANCH   1   7
ATOM      2  C   UNL     1       2.931  14.799  18.337  0.00  0.00    +0.000 A 
ATOM      3  N   UNL     1       2.763  13.638  17.748  0.00  0.00    +0.000 NA
ATOM      4  N   UNL     1       2.206  12.718  18.592  0.00  0.00    +0.000 NA
ATOM      5  C   UNL     1       1.962  13.208  19.777  0.00  0.00    +0.000 A 
ATOM      6  N   UNL     1       1.382  12.595  20.851  0.00  0.00    +0.000 N 
ATOM      7  C   UNL     1       0.774  11.374  20.811  0.00  0.00    +0.000 C 
ATOM      8  O   UNL     1       0.525  10.820  21.891  0.00  0.00    +0.000 OA
ATOM      9  S   UNL     1       2.449  14.826  19.994  0.00  0.00    +0.000 S 
ATOM     10  H   UNL     1       1.452  13.045  21.753  0.00  0.00    +0.000 HD
BRANCH   2  12
ATOM     11  C   UNL     1       2.483  17.066  17.477  0.00  0.00    +0.000 C 
ATOM     12  C   UNL     1       3.527  15.979  17.659  0.00  0.00    +0.000 C 
ENDBRANCH   2  12
ENDBRANCH   1   7
BRANCH   1  13
ATOM     13  N   UNL     1       1.148   9.390  19.480  0.00  0.00    +0.000 N 
ATOM     14  C   UNL     1       1.918   8.948  18.427  0.00  0.00    +0.000 C 
ATOM     15  O   UNL     1       2.055   9.584  17.386  0.00  0.00    +0.000 OA
ATOM     16  H   UNL     1       1.003   8.790  20.285  0.00  0.00    +0.000 HD
BRANCH  14  17
ATOM     17  C   UNL     1       2.619   7.640  18.570  0.00  0.00    +0.000 A 
ATOM     18  C   UNL     1       3.508   7.302  17.531  0.00  0.00    +0.000 A 
ATOM     19  C   UNL     1       4.198   6.087  17.540  0.00  0.00    +0.000 A 
ATOM     20  C   UNL     1       4.008   5.193  18.587  0.00  0.00    +0.000 A 
ATOM     21  C   UNL     1       3.128   5.513  19.621  0.00  0.00    +0.000 A 
ATOM     22  C   UNL     1       2.430   6.729  19.618  0.00  0.00    +0.000 A 
ATOM     23 CL   UNL     1       1.331   6.980  20.930  0.00  0.00    +0.000 Cl
ENDBRANCH  14  17
ENDBRANCH   1  13
BRANCH   1  24
ATOM     24  C   UNL     1      -1.061  10.530  19.233  0.00  0.00    +0.000 C 
ATOM     25  C   UNL     1      -1.787  11.850  19.539  0.00  0.00    +0.000 C 
ATOM     26  C   UNL     1      -1.383  10.136  17.786  0.00  0.00    +0.000 C 
ENDBRANCH   1  24
TORSDOF 5
ENDMDL
MODEL 3
REMARK VINA RESULT:      -7.1      2.825      6.347
REMARK  Name = 
REMARK  8 active torsions:
REMARK  status: ('A' for Active; 'I' for Inactive)
REMARK    1  A    between atoms: C_1  and  C_2
REMARK    2  A    between atoms: C_2  and  C_3
REMARK    3  A    between atoms: C_8  and  C_10
REMARK    4  A    between atoms: C_10  and  N_11
REMARK    5  A    between atoms: C_10  and  C_21
REMARK    6  A    between atoms: C_12  and  C_14
REMARK    7  A    between atoms: C_21  and  C_22
REMARK    8  A    between atoms: C_21  and  C_23
REMARK                            x       y       z     vdW  Elec       q    Type
REMARK                         _______ _______ _______ _____ _____    ______ ____
ROOT
ATOM      1  C   UNL     1       2.845   4.852  19.928  0.00  0.00    +0.000 C 
ENDROOT
BRANCH   1   7
ATOM      2  C   UNL     1       6.213   4.872  16.329  0.00  0.00    +0.000 A 
ATOM      3  N   UNL     1       6.068   5.528  17.457  0.00  0.00    +0.000 NA
ATOM      4  N   UNL     1       4.817   5.360  17.982  0.00  0.00    +0.000 NA
ATOM      5  C   UNL     1       4.066   4.582  17.250  0.00  0.00    +0.000 A 
ATOM      6  N   UNL     1       2.785   4.169  17.482  0.00  0.00    +0.000 N 
ATOM      7  C   UNL     1       2.109   4.360  18.652  0.00  0.00    +0.000 C 
ATOM      8  O   UNL     1       0.884   4.176  18.645  0.00  0.00    +0.000 OA
ATOM      9  S   UNL     1       4.797   4.032  15.813  0.00  0.00    +0.000 S 
ATOM     10  H   UNL     1       2.277   3.739  16.722  0.00  0.00    +0.000 HD
BRANCH   2  12
ATOM     11  C   UNL     1       7.153   4.886  14.050  0.00  0.00    +0.000 C 
ATOM     12  C   UNL     1       7.469   4.885  15.535  0.00  0.00    +0.000 C 
ENDBRANCH   2  12
ENDBRANCH   1   7
BRANCH   1  13
ATOM     13  N   UNL     1       2.096   6.004  20.425  0.00  0.00    +0.000 N 
ATOM     14  C   UNL     1       2.181   7.245  19.835  0.00  0.00    +0.000 C 
ATOM     15  O   UNL     1       2.914   7.482  18.879  0.00  0.00    +0.000 OA
ATOM     16  H   UNL     1       1.536   5.881  21.262  0.00  0.00    +0.000 HD
BRANCH  14  17
ATOM     17  C   UNL     1       1.336   8.344  20.384  0.00  0.00    +0.000 A 
ATOM     18  C   UNL     1       1.112   8.313  21.774  0.00  0.00    +0.000 A 
ATOM     19  C   UNL     1       0.309   9.271  22.396  0.00  0.00    +0.000 A 
ATOM     20  C   UNL     1      -0.283  10.274  21.638  0.00  0.00    +0.000 A 
ATOM     21  C   UNL     1      -0.073  10.316  20.260  0.00  0.00    +0.000 A 
ATOM     22  C   UNL     1       0.730   9.355  19.627  0.00  0.00    +0.000 A 
ATOM     23 CL   UNL     1       0.865   9.489  17.908  0.00  0.00    +0.000 Cl
ENDBRANCH  14  17
ENDBRANCH   1  13
BRANCH   1  24
ATOM     24  C   UNL     1       2.958   3.727  20.986  0.00  0.00    +0.000 C 
ATOM     25  C   UNL     1       1.564   3.308  21.480  0.00  0.00    +0.000 C 
ATOM     26  C   UNL     1       3.654   2.485  20.416  0.00  0.00    +0.000 C 
ENDBRANCH   1  24
TORSDOF 5
ENDMDL
MODEL 4
REMARK VINA RESULT:      -7.0      3.834      6.325
REMARK  Name = 
REMARK  8 active torsions:
REMARK  status: ('A' for Active; 'I' for Inactive)
REMARK    1  A    between atoms: C_1  and  C_2
REMARK    2  A    between atoms: C_2  and  C_3
REMARK    3  A    between atoms: C_8  and  C_10
REMARK    4  A    between atoms: C_10  and  N_11
REMARK    5  A    between atoms: C_10  and  C_21
REMARK    6  A    between atoms: C_12  and  C_14
REMARK    7  A    between atoms: C_21  and  C_22
REMARK    8  A    between atoms: C_21  and  C_23
REMARK                            x       y       z     vdW  Elec       q    Type
REMARK                         _______ _______ _______ _____ _____    ______ ____
ROOT
ATOM      1  C   UNL     1       0.599  10.369  19.595  0.00  0.00    +0.000 C 
ENDROOT
BRANCH   1   7
ATOM      2  C   UNL     1       2.937  14.467  18.172  0.00  0.00    +0.000 A 
ATOM      3  N   UNL     1       2.796  13.265  17.665  0.00  0.00    +0.000 NA
ATOM      4  N   UNL     1       2.274  12.389  18.575  0.00  0.00    +0.000 NA
ATOM      5  C   UNL     1       2.029  12.952  19.728  0.00  0.00    +0.000 A 
ATOM      6  N   UNL     1       1.478  12.396  20.847  0.00  0.00    +0.000 N 
ATOM      7  C   UNL     1       0.904  11.160  20.897  0.00  0.00    +0.000 C 
ATOM      8  O   UNL     1       0.682  10.673  22.015  0.00  0.00    +0.000 OA
ATOM      9  S   UNL     1       2.473  14.593  19.829  0.00  0.00    +0.000 S 
ATOM     10  H   UNL     1       1.545  12.908  21.716  0.00  0.00    +0.000 HD
BRANCH   2  12
ATOM     11  C   UNL     1       2.699  16.876  17.699  0.00  0.00    +0.000 C 
ATOM     12  C   UNL     1       3.493  15.615  17.408  0.00  0.00    +0.000 C 
ENDBRANCH   2  12
ENDBRANCH   1   7
BRANCH   1  13
ATOM     13  N   UNL     1       1.103   9.013  19.802  0.00  0.00    +0.000 N 
ATOM     14  C   UNL     1       1.880   8.368  18.864  0.00  0.00    +0.000 C 
ATOM     15  O   UNL     1       2.172   8.867  17.781  0.00  0.00    +0.000 OA
ATOM     16  H   UNL     1       0.825   8.525  20.646  0.00  0.00    +0.000 HD
BRANCH  14  17
ATOM     17  C   UNL     1       2.391   7.007  19.192  0.00  0.00    +0.000 A 
ATOM     18  C   UNL     1       1.781   6.368  20.288  0.00  0.00    +0.000 A 
ATOM     19  C   UNL     1       2.198   5.103  20.709  0.00  0.00    +0.000 A 
ATOM     20  C   UNL     1       3.233   4.459  20.041  0.00  0.00    +0.000 A 
ATOM     21  C   UNL     1       3.849   5.081  18.954  0.00  0.00    +0.000 A 
ATOM     22  C   UNL     1       3.437   6.352  18.527  0.00  0.00    +0.000 A 
ATOM     23 CL   UNL     1       4.318   7.034  17.205  0.00  0.00    +0.000 Cl
ENDBRANCH  14  17
ENDBRANCH   1  13
BRANCH   1  24
ATOM     24  C   UNL     1      -0.914  10.385  19.264  0.00  0.00    +0.000 C 
ATOM     25  C   UNL     1      -1.534  11.743  19.631  0.00  0.00    +0.000 C 
ATOM     26  C   UNL     1      -1.167  10.134  17.772  0.00  0.00    +0.000 C 
ENDBRANCH   1  24
TORSDOF 5
ENDMDL
MODEL 5
REMARK VINA RESULT:      -6.9      1.640      1.998
REMARK  Name = 
REMARK  8 active torsions:
REMARK  status: ('A' for Active; 'I' for Inactive)
REMARK    1  A    between atoms: C_1  and  C_2
REMARK    2  A    between atoms: C_2  and  C_3
REMARK    3  A    between atoms: C_8  and  C_10
REMARK    4  A    between atoms: C_10  and  N_11
REMARK    5  A    between atoms: C_10  and  C_21
REMARK    6  A    between atoms: C_12  and  C_14
REMARK    7  A    between atoms: C_21  and  C_22
REMARK    8  A    between atoms: C_21  and  C_23
REMARK                            x       y       z     vdW  Elec       q    Type
REMARK                         _______ _______ _______ _____ _____    ______ ____
ROOT
ATOM      1  C   UNL     1       2.589   4.057  19.665  0.00  0.00    +0.000 C 
ENDROOT
BRANCH   1   7
ATOM      2  C   UNL     1       1.403   8.839  19.525  0.00  0.00    +0.000 A 
ATOM      3  N   UNL     1       2.208   8.070  18.829  0.00  0.00    +0.000 NA
ATOM      4  N   UNL     1       2.394   6.857  19.431  0.00  0.00    +0.000 NA
ATOM      5  C   UNL     1       1.724   6.742  20.546  0.00  0.00    +0.000 A 
ATOM      6  N   UNL     1       1.644   5.668  21.386  0.00  0.00    +0.000 N 
ATOM      7  C   UNL     1       2.126   4.424  21.102  0.00  0.00    +0.000 C 
ATOM      8  O   UNL     1       2.225   3.617  22.037  0.00  0.00    +0.000 OA
ATOM      9  S   UNL     1       0.851   8.133  20.999  0.00  0.00    +0.000 S 
ATOM     10  H   UNL     1       1.252   5.811  22.307  0.00  0.00    +0.000 HD
BRANCH   2  12
ATOM     11  C   UNL     1       0.419  10.971  20.277  0.00  0.00    +0.000 C 
ATOM     12  C   UNL     1       1.034  10.217  19.111  0.00  0.00    +0.000 C 
ENDBRANCH   2  12
ENDBRANCH   1   7
BRANCH   1  13
ATOM     13  N   UNL     1       3.896   4.684  19.474  0.00  0.00    +0.000 N 
ATOM     14  C   UNL     1       4.375   5.016  18.226  0.00  0.00    +0.000 C 
ATOM     15  O   UNL     1       3.761   4.779  17.190  0.00  0.00    +0.000 OA
ATOM     16  H   UNL     1       4.478   4.829  20.292  0.00  0.00    +0.000 HD
BRANCH  14  17
ATOM     17  C   UNL     1       5.696   5.701  18.141  0.00  0.00    +0.000 A 
ATOM     18  C   UNL     1       6.596   5.436  19.190  0.00  0.00    +0.000 A 
ATOM     19  C   UNL     1       7.852   6.046  19.235  0.00  0.00    +0.000 A 
ATOM     20  C   UNL     1       8.225   6.932  18.231  0.00  0.00    +0.000 A 
ATOM     21  C   UNL     1       7.342   7.206  17.186  0.00  0.00    +0.000 A 
ATOM     22  C   UNL     1       6.079   6.600  17.136  0.00  0.00    +0.000 A 
ATOM     23 CL   UNL     1       5.061   7.068  15.818  0.00  0.00    +0.000 Cl
ENDBRANCH  14  17
ENDBRANCH   1  13
BRANCH   1  24
ATOM     24  C   UNL     1       2.642   2.523  19.462  0.00  0.00    +0.000 C 
ATOM     25  C   UNL     1       2.068   2.139  18.089  0.00  0.00    +0.000 C 
ATOM     26  C   UNL     1       4.080   1.994  19.540  0.00  0.00    +0.000 C 
ENDBRANCH   1  24
TORSDOF 5
ENDMDL
MODEL 6
REMARK VINA RESULT:      -6.9      1.637      1.864
REMARK  Name = 
REMARK  8 active torsions:
REMARK  status: ('A' for Active; 'I' for Inactive)
REMARK    1  A    between atoms: C_1  and  C_2
REMARK    2  A    between atoms: C_2  and  C_3
REMARK    3  A    between atoms: C_8  and  C_10
REMARK    4  A    between atoms: C_10  and  N_11
REMARK    5  A    between atoms: C_10  and  C_21
REMARK    6  A    between atoms: C_12  and  C_14
REMARK    7  A    between atoms: C_21  and  C_22
REMARK    8  A    between atoms: C_21  and  C_23
REMARK                            x       y       z     vdW  Elec       q    Type
REMARK                         _______ _______ _______ _____ _____    ______ ____
ROOT
ATOM      1  C   UNL     1       2.335   5.104  18.390  0.00  0.00    +0.000 C 
ENDROOT
BRANCH   1   7
ATOM      2  C   UNL     1       0.778   9.561  19.802  0.00  0.00    +0.000 A 
ATOM      3  N   UNL     1       0.939   8.968  18.643  0.00  0.00    +0.000 NA
ATOM      4  N   UNL     1       1.659   7.812  18.762  0.00  0.00    +0.000 NA
ATOM      5  C   UNL     1       2.007   7.563  19.995  0.00  0.00    +0.000 A 
ATOM      6  N   UNL     1       2.695   6.491  20.487  0.00  0.00    +0.000 N 
ATOM      7  C   UNL     1       2.990   5.366  19.774  0.00  0.00    +0.000 C 
ATOM      8  O   UNL     1       3.834   4.590  20.246  0.00  0.00    +0.000 OA
ATOM      9  S   UNL     1       1.542   8.754  21.122  0.00  0.00    +0.000 S 
ATOM     10  H   UNL     1       3.061   6.549  21.428  0.00  0.00    +0.000 HD
BRANCH   2  12
ATOM     11  C   UNL     1      -0.633  10.892  21.325  0.00  0.00    +0.000 C 
ATOM     12  C   UNL     1       0.043  10.843  19.967  0.00  0.00    +0.000 C 
ENDBRANCH   2  12
ENDBRANCH   1   7
BRANCH   1  13
ATOM     13  N   UNL     1       3.425   4.806  17.462  0.00  0.00    +0.000 N 
ATOM     14  C   UNL     1       4.237   5.790  16.944  0.00  0.00    +0.000 C 
ATOM     15  O   UNL     1       4.086   6.982  17.194  0.00  0.00    +0.000 OA
ATOM     16  H   UNL     1       3.543   3.845  17.161  0.00  0.00    +0.000 HD
BRANCH  14  17
ATOM     17  C   UNL     1       5.355   5.379  16.048  0.00  0.00    +0.000 A 
ATOM     18  C   UNL     1       4.988   4.637  14.908  0.00  0.00    +0.000 A 
ATOM     19  C   UNL     1       5.952   4.169  14.012  0.00  0.00    +0.000 A 
ATOM     20  C   UNL     1       7.297   4.434  14.243  0.00  0.00    +0.000 A 
ATOM     21  C   UNL     1       7.675   5.165  15.369  0.00  0.00    +0.000 A 
ATOM     22  C   UNL     1       6.713   5.636  16.275  0.00  0.00    +0.000 A 
ATOM     23 CL   UNL     1       7.319   6.481  17.658  0.00  0.00    +0.000 Cl
ENDBRANCH  14  17
ENDBRANCH   1  13
BRANCH   1  24
ATOM     24  C   UNL     1       1.299   3.956  18.462  0.00  0.00    +0.000 C 
ATOM     25  C   UNL     1       1.921   2.634  17.982  0.00  0.00    +0.000 C 
ATOM     26  C   UNL     1       0.787   3.748  19.893  0.00  0.00    +0.000 C 
ENDBRANCH   1  24
TORSDOF 5
ENDMDL
MODEL 7
REMARK VINA RESULT:      -6.9      4.065      8.060
REMARK  Name = 
REMARK  8 active torsions:
REMARK  status: ('A' for Active; 'I' for Inactive)
REMARK    1  A    between atoms: C_1  and  C_2
REMARK    2  A    between atoms: C_2  and  C_3
REMARK    3  A    between atoms: C_8  and  C_10
REMARK    4  A    between atoms: C_10  and  N_11
REMARK    5  A    between atoms: C_10  and  C_21
REMARK    6  A    between atoms: C_12  and  C_14
REMARK    7  A    between atoms: C_21  and  C_22
REMARK    8  A    between atoms: C_21  and  C_23
REMARK                            x       y       z     vdW  Elec       q    Type
REMARK                         _______ _______ _______ _____ _____    ______ ____
ROOT
ATOM      1  C   UNL     1       0.503   9.731  20.525  0.00  0.00    +0.000 C 
ENDROOT
BRANCH   1   7
ATOM      2  C   UNL     1       3.642   6.655  18.293  0.00  0.00    +0.000 A 
ATOM      3  N   UNL     1       3.021   7.755  17.936  0.00  0.00    +0.000 NA
ATOM      4  N   UNL     1       2.039   8.094  18.824  0.00  0.00    +0.000 NA
ATOM      5  C   UNL     1       1.954   7.255  19.821  0.00  0.00    +0.000 A 
ATOM      6  N   UNL     1       1.122   7.297  20.903  0.00  0.00    +0.000 N 
ATOM      7  C   UNL     1       0.329   8.358  21.230  0.00  0.00    +0.000 C 
ATOM      8  O   UNL     1      -0.562   8.174  22.071  0.00  0.00    +0.000 OA
ATOM      9  S   UNL     1       3.027   5.934  19.735  0.00  0.00    +0.000 S 
ATOM     10  H   UNL     1       1.040   6.468  21.475  0.00  0.00    +0.000 HD
BRANCH   2  12
ATOM     11  C   UNL     1       4.880   6.748  16.162  0.00  0.00    +0.000 C 
ATOM     12  C   UNL     1       4.746   6.050  17.505  0.00  0.00    +0.000 C 
ENDBRANCH   2  12
ENDBRANCH   1   7
BRANCH   1  13
ATOM     13  N   UNL     1      -0.712   9.957  19.744  0.00  0.00    +0.000 N 
ATOM     14  C   UNL     1      -0.680  10.505  18.480  0.00  0.00    +0.000 C 
ATOM     15  O   UNL     1       0.357  10.874  17.937  0.00  0.00    +0.000 OA
ATOM     16  H   UNL     1      -1.603   9.743  20.178  0.00  0.00    +0.000 HD
BRANCH  14  17
ATOM     17  C   UNL     1      -1.969  10.645  17.743  0.00  0.00    +0.000 A 
ATOM     18  C   UNL     1      -2.059   9.946  16.523  0.00  0.00    +0.000 A 
ATOM     19  C   UNL     1      -3.205  10.027  15.730  0.00  0.00    +0.000 A 
ATOM     20  C   UNL     1      -4.277  10.809  16.143  0.00  0.00    +0.000 A 
ATOM     21  C   UNL     1      -4.202  11.508  17.347  0.00  0.00    +0.000 A 
ATOM     22  C   UNL     1      -3.053  11.434  18.149  0.00  0.00    +0.000 A 
ATOM     23 CL   UNL     1      -3.066  12.392  19.589  0.00  0.00    +0.000 Cl
ENDBRANCH  14  17
ENDBRANCH   1  13
BRANCH   1  24
ATOM     24  C   UNL     1       0.759  10.865  21.547  0.00  0.00    +0.000 C 
ATOM     25  C   UNL     1       1.473  12.049  20.875  0.00  0.00    +0.000 C 
ATOM     26  C   UNL     1      -0.551  11.383  22.154  0.00  0.00    +0.000 C 
ENDBRANCH   1  24
TORSDOF 5
ENDMDL
MODEL 8
REMARK VINA RESULT:      -6.8      3.169      5.394
REMARK  Name = 
REMARK  8 active torsions:
REMARK  status: ('A' for Active; 'I' for Inactive)
REMARK    1  A    between atoms: C_1  and  C_2
REMARK    2  A    between atoms: C_2  and  C_3
REMARK    3  A    between atoms: C_8  and  C_10
REMARK    4  A    between atoms: C_10  and  N_11
REMARK    5  A    between atoms: C_10  and  C_21
REMARK    6  A    between atoms: C_12  and  C_14
REMARK    7  A    between atoms: C_21  and  C_22
REMARK    8  A    between atoms: C_21  and  C_23
REMARK                            x       y       z     vdW  Elec       q    Type
REMARK                         _______ _______ _______ _____ _____    ______ ____
ROOT
ATOM      1  C   UNL     1       5.694   6.040  17.422  0.00  0.00    +0.000 C 
ENDROOT
BRANCH   1   7
ATOM      2  C   UNL     1       3.063   3.292  20.556  0.00  0.00    +0.000 A 
ATOM      3  N   UNL     1       4.056   3.052  19.732  0.00  0.00    +0.000 NA
ATOM      4  N   UNL     1       4.265   4.094  18.873  0.00  0.00    +0.000 NA
ATOM      5  C   UNL     1       3.440   5.086  19.078  0.00  0.00    +0.000 A 
ATOM      6  N   UNL     1       3.381   6.292  18.440  0.00  0.00    +0.000 N 
ATOM      7  C   UNL     1       4.323   6.754  17.569  0.00  0.00    +0.000 C 
ATOM      8  O   UNL     1       4.027   7.732  16.866  0.00  0.00    +0.000 OA
ATOM      9  S   UNL     1       2.286   4.811  20.301  0.00  0.00    +0.000 S 
ATOM     10  H   UNL     1       2.559   6.863  18.576  0.00  0.00    +0.000 HD
BRANCH   2  12
ATOM     11  C   UNL     1       1.160   2.588  21.957  0.00  0.00    +0.000 C 
ATOM     12  C   UNL     1       2.610   2.326  21.589  0.00  0.00    +0.000 C 
ENDBRANCH   2  12
ENDBRANCH   1   7
BRANCH   1  13
ATOM     13  N   UNL     1       5.872   5.767  15.997  0.00  0.00    +0.000 N 
ATOM     14  C   UNL     1       6.377   4.570  15.536  0.00  0.00    +0.000 C 
ATOM     15  O   UNL     1       6.743   3.668  16.283  0.00  0.00    +0.000 OA
ATOM     16  H   UNL     1       5.660   6.509  15.340  0.00  0.00    +0.000 HD
BRANCH  14  17
ATOM     17  C   UNL     1       6.470   4.368  14.063  0.00  0.00    +0.000 A 
ATOM     18  C   UNL     1       5.497   3.523  13.494  0.00  0.00    +0.000 A 
ATOM     19  C   UNL     1       5.503   3.233  12.128  0.00  0.00    +0.000 A 
ATOM     20  C   UNL     1       6.482   3.783  11.310  0.00  0.00    +0.000 A 
ATOM     21  C   UNL     1       7.455   4.619  11.859  0.00  0.00    +0.000 A 
ATOM     22  C   UNL     1       7.457   4.913  13.230  0.00  0.00    +0.000 A 
ATOM     23 CL   UNL     1       8.748   5.918  13.792  0.00  0.00    +0.000 Cl
ENDBRANCH  14  17
ENDBRANCH   1  13
BRANCH   1  24
ATOM     24  C   UNL     1       6.845   6.897  18.000  0.00  0.00    +0.000 C 
ATOM     25  C   UNL     1       7.812   6.026  18.818  0.00  0.00    +0.000 C 
ATOM     26  C   UNL     1       7.649   7.585  16.890  0.00  0.00    +0.000 C 
ENDBRANCH   1  24
TORSDOF 5
ENDMDL
MODEL 9
REMARK VINA RESULT:      -6.7      1.922      2.252
REMARK  Name = 
REMARK  8 active torsions:
REMARK  status: ('A' for Active; 'I' for Inactive)
REMARK    1  A    between atoms: C_1  and  C_2
REMARK    2  A    between atoms: C_2  and  C_3
REMARK    3  A    between atoms: C_8  and  C_10
REMARK    4  A    between atoms: C_10  and  N_11
REMARK    5  A    between atoms: C_10  and  C_21
REMARK    6  A    between atoms: C_12  and  C_14
REMARK    7  A    between atoms: C_21  and  C_22
REMARK    8  A    between atoms: C_21  and  C_23
REMARK                            x       y       z     vdW  Elec       q    Type
REMARK                         _______ _______ _______ _____ _____    ______ ____
ROOT
ATOM      1  C   UNL     1       2.115   4.786  19.113  0.00  0.00    +0.000 C 
ENDROOT
BRANCH   1   7
ATOM      2  C   UNL     1       1.006   9.510  19.976  0.00  0.00    +0.000 A 
ATOM      3  N   UNL     1       1.647   8.875  19.023  0.00  0.00    +0.000 NA
ATOM      4  N   UNL     1       1.926   7.584  19.374  0.00  0.00    +0.000 NA
ATOM      5  C   UNL     1       1.483   7.282  20.565  0.00  0.00    +0.000 A 
ATOM      6  N   UNL     1       1.550   6.086  21.221  0.00  0.00    +0.000 N 
ATOM      7  C   UNL     1       1.946   4.911  20.652  0.00  0.00    +0.000 C 
ATOM      8  O   UNL     1       2.211   3.966  21.409  0.00  0.00    +0.000 OA
ATOM      9  S   UNL     1       0.738   8.568  21.397  0.00  0.00    +0.000 S 
ATOM     10  H   UNL     1       1.346   6.072  22.211  0.00  0.00    +0.000 HD
BRANCH   2  12
ATOM     11  C   UNL     1       1.411  11.647  18.813  0.00  0.00    +0.000 C 
ATOM     12  C   UNL     1       0.586  10.932  19.869  0.00  0.00    +0.000 C 
ENDBRANCH   2  12
ENDBRANCH   1   7
BRANCH   1  13
ATOM     13  N   UNL     1       3.360   5.473  18.773  0.00  0.00    +0.000 N 
ATOM     14  C   UNL     1       4.596   4.915  19.013  0.00  0.00    +0.000 C 
ATOM     15  O   UNL     1       4.743   3.824  19.557  0.00  0.00    +0.000 OA
ATOM     16  H   UNL     1       3.297   6.412  18.394  0.00  0.00    +0.000 HD
BRANCH  14  17
ATOM     17  C   UNL     1       5.805   5.672  18.580  0.00  0.00    +0.000 A 
ATOM     18  C   UNL     1       6.931   5.566  19.420  0.00  0.00    +0.000 A 
ATOM     19  C   UNL     1       8.110   6.257  19.134  0.00  0.00    +0.000 A 
ATOM     20  C   UNL     1       8.182   7.064  18.005  0.00  0.00    +0.000 A 
ATOM     21  C   UNL     1       7.074   7.180  17.165  0.00  0.00    +0.000 A 
ATOM     22  C   UNL     1       5.885   6.492  17.447  0.00  0.00    +0.000 A 
ATOM     23 CL   UNL     1       4.570   6.766  16.357  0.00  0.00    +0.000 Cl
ENDBRANCH  14  17
ENDBRANCH   1  13
BRANCH   1  24
ATOM     24  C   UNL     1       2.124   3.305  18.662  0.00  0.00    +0.000 C 
ATOM     25  C   UNL     1       0.745   2.664  18.884  0.00  0.00    +0.000 C 
ATOM     26  C   UNL     1       2.477   3.172  17.175  0.00  0.00    +0.000 C 
ENDBRANCH   1  24
TORSDOF 5
ENDMDL
