MODEL 1
REMARK VINA RESULT:      -7.9      0.000      0.000
REMARK  Name = 
REMARK  4 active torsions:
REMARK  status: ('A' for Active; 'I' for Inactive)
REMARK    1  A    between atoms: C_1  and  C_2
REMARK    2  A    between atoms: C_5  and  N_6
REMARK    3  A    between atoms: N_9  and  N_10
REMARK    4  A    between atoms: C_11  and  C_12
REMARK                            x       y       z     vdW  Elec       q    Type
REMARK                         _______ _______ _______ _____ _____    ______ ____
ROOT
ATOM      1  N   UNL     1       0.457  10.356  19.696  0.00  0.00    +0.000 N 
ATOM      2  C   UNL     1       1.154  11.031  18.717  0.00  0.00    +0.000 C 
ATOM      3  O   UNL     1       1.214  12.244  18.543  0.00  0.00    +0.000 OA
ATOM      4  N   UNL     1       1.864  10.174  17.889  0.00  0.00    +0.000 N 
ATOM      5  H   UNL     1       0.683   9.369  19.704  0.00  0.00    +0.000 HD
ATOM      6  H   UNL     1       2.409  10.592  17.144  0.00  0.00    +0.000 HD
ENDROOT
BRANCH   1  11
ATOM      7  C   UNL     1      -3.081  12.575  23.608  0.00  0.00    +0.000 C 
ATOM      8  C   UNL     1      -2.144  11.993  22.593  0.00  0.00    +0.000 A 
ATOM      9  C   UNL     1      -1.155  11.084  22.975  0.00  0.00    +0.000 A 
ATOM     10  C   UNL     1      -0.289  10.532  22.028  0.00  0.00    +0.000 A 
ATOM     11  C   UNL     1      -0.389  10.884  20.682  0.00  0.00    +0.000 A 
ATOM     12  C   UNL     1      -1.363  11.813  20.297  0.00  0.00    +0.000 A 
ATOM     13  C   UNL     1      -2.242  12.354  21.244  0.00  0.00    +0.000 A 
ENDBRANCH   1  11
BRANCH   4  14
ATOM     14  N   UNL     1       1.794   8.828  18.057  0.00  0.00    +0.000 NA
ATOM     15  C   UNL     1       2.916   8.176  18.042  0.00  0.00    +0.000 C 
BRANCH  15  16
ATOM     16  C   UNL     1       2.906   6.705  18.202  0.00  0.00    +0.000 A 
ATOM     17  C   UNL     1       3.726   5.934  17.396  0.00  0.00    +0.000 A 
ATOM     18  C   UNL     1       3.700   4.561  17.557  0.00  0.00    +0.000 A 
ATOM     19  C   UNL     1       2.856   4.001  18.518  0.00  0.00    +0.000 A 
ATOM     20  C   UNL     1       2.809   2.611  18.701  0.00  0.00    +0.000 A 
ATOM     21  C   UNL     1       1.967   2.059  19.661  0.00  0.00    +0.000 A 
ATOM     22  C   UNL     1       1.174   2.896  20.439  0.00  0.00    +0.000 A 
ATOM     23  C   UNL     1       1.224   4.284  20.253  0.00  0.00    +0.000 A 
ATOM     24  C   UNL     1       2.053   4.867  19.300  0.00  0.00    +0.000 A 
ATOM     25  N   UNL     1       2.073   6.208  19.147  0.00  0.00    +0.000 NA
ENDBRANCH  15  16
ENDBRANCH   4  14
TORSDOF 3
ENDMDL
MODEL 2
REMARK VINA RESULT:      -7.9      0.076      1.006
REMARK  Name = 
REMARK  4 active torsions:
REMARK  status: ('A' for Active; 'I' for Inactive)
REMARK    1  A    between atoms: C_1  and  C_2
REMARK    2  A    between atoms: C_5  and  N_6
REMARK    3  A    between atoms: N_9  and  N_10
REMARK    4  A    between atoms: C_11  and  C_12
REMARK                            x       y       z     vdW  Elec       q    Type
REMARK                         _______ _______ _______ _____ _____    ______ ____
ROOT
ATOM      1  N   UNL     1       0.490  10.384  19.689  0.00  0.00    +0.000 N 
ATOM      2  C   UNL     1       1.224  11.030  18.717  0.00  0.00    +0.000 C 
ATOM      3  O   UNL     1       1.289  12.236  18.507  0.00  0.00    +0.000 OA
ATOM      4  N   UNL     1       1.967  10.148  17.946  0.00  0.00    +0.000 N 
ATOM      5  H   UNL     1       0.717   9.398  19.737  0.00  0.00    +0.000 HD
ATOM      6  H   UNL     1       2.540  10.544  17.210  0.00  0.00    +0.000 HD
ENDROOT
BRANCH   1  11
ATOM      7  C   UNL     1      -3.034  12.595  23.619  0.00  0.00    +0.000 C 
ATOM      8  C   UNL     1      -2.121  12.017  22.579  0.00  0.00    +0.000 A 
ATOM      9  C   UNL     1      -2.256  12.372  21.235  0.00  0.00    +0.000 A 
ATOM     10  C   UNL     1      -1.397  11.843  20.268  0.00  0.00    +0.000 A 
ATOM     11  C   UNL     1      -0.394  10.941  20.624  0.00  0.00    +0.000 A 
ATOM     12  C   UNL     1      -0.272  10.562  21.966  0.00  0.00    +0.000 A 
ATOM     13  C   UNL     1      -1.121  11.106  22.938  0.00  0.00    +0.000 A 
ENDBRANCH   1  11
BRANCH   4  14
ATOM     14  N   UNL     1       1.892   8.807  18.153  0.00  0.00    +0.000 NA
ATOM     15  C   UNL     1       2.973   8.121  17.944  0.00  0.00    +0.000 C 
BRANCH  15  16
ATOM     16  C   UNL     1       2.952   6.653  18.136  0.00  0.00    +0.000 A 
ATOM     17  C   UNL     1       3.790   5.862  17.368  0.00  0.00    +0.000 A 
ATOM     18  C   UNL     1       3.753   4.493  17.557  0.00  0.00    +0.000 A 
ATOM     19  C   UNL     1       2.881   3.957  18.508  0.00  0.00    +0.000 A 
ATOM     20  C   UNL     1       2.823   2.572  18.719  0.00  0.00    +0.000 A 
ATOM     21  C   UNL     1       1.955   2.044  19.669  0.00  0.00    +0.000 A 
ATOM     22  C   UNL     1       1.145   2.901  20.407  0.00  0.00    +0.000 A 
ATOM     23  C   UNL     1       1.207   4.284  20.193  0.00  0.00    +0.000 A 
ATOM     24  C   UNL     1       2.063   4.843  19.250  0.00  0.00    +0.000 A 
ATOM     25  N   UNL     1       2.092   6.181  19.069  0.00  0.00    +0.000 NA
ENDBRANCH  15  16
ENDBRANCH   4  14
TORSDOF 3
ENDMDL
MODEL 3
REMARK VINA RESULT:      -7.7      2.116      2.771
REMARK  Name = 
REMARK  4 active torsions:
REMARK  status: ('A' for Active; 'I' for Inactive)
REMARK    1  A    between atoms: C_1  and  C_2
REMARK    2  A    between atoms: C_5  and  N_6
REMARK    3  A    between atoms: N_9  and  N_10
REMARK    4  A    between atoms: C_11  and  C_12
REMARK                            x       y       z     vdW  Elec       q    Type
REMARK                         _______ _______ _______ _____ _____    ______ ____
ROOT
ATOM      1  N   UNL     1       0.023   9.963  18.128  0.00  0.00    +0.000 N 
ATOM      2  C   UNL     1       1.165  10.733  18.206  0.00  0.00    +0.000 C 
ATOM      3  O   UNL     1       1.244  11.956  18.202  0.00  0.00    +0.000 OA
ATOM      4  N   UNL     1       2.312   9.962  18.326  0.00  0.00    +0.000 N 
ATOM      5  H   UNL     1       0.220   8.983  18.290  0.00  0.00    +0.000 HD
ATOM      6  H   UNL     1       3.196  10.452  18.393  0.00  0.00    +0.000 HD
ENDROOT
BRANCH   1  11
ATOM      7  C   UNL     1      -5.408  11.599  17.368  0.00  0.00    +0.000 C 
ATOM      8  C   UNL     1      -3.982  11.184  17.573  0.00  0.00    +0.000 A 
ATOM      9  C   UNL     1      -3.243  11.677  18.651  0.00  0.00    +0.000 A 
ATOM     10  C   UNL     1      -1.918  11.281  18.849  0.00  0.00    +0.000 A 
ATOM     11  C   UNL     1      -1.303  10.390  17.969  0.00  0.00    +0.000 A 
ATOM     12  C   UNL     1      -2.031   9.912  16.873  0.00  0.00    +0.000 A 
ATOM     13  C   UNL     1      -3.364  10.296  16.684  0.00  0.00    +0.000 A 
ENDBRANCH   1  11
BRANCH   4  14
ATOM     14  N   UNL     1       2.244   8.605  18.313  0.00  0.00    +0.000 NA
ATOM     15  C   UNL     1       3.285   7.971  17.868  0.00  0.00    +0.000 C 
BRANCH  15  16
ATOM     16  C   UNL     1       3.268   6.491  17.813  0.00  0.00    +0.000 A 
ATOM     17  C   UNL     1       4.268   5.833  17.118  0.00  0.00    +0.000 A 
ATOM     18  C   UNL     1       4.232   4.451  17.072  0.00  0.00    +0.000 A 
ATOM     19  C   UNL     1       3.200   3.772  17.722  0.00  0.00    +0.000 A 
ATOM     20  C   UNL     1       3.140   2.370  17.691  0.00  0.00    +0.000 A 
ATOM     21  C   UNL     1       2.111   1.699  18.342  0.00  0.00    +0.000 A 
ATOM     22  C   UNL     1       1.143   2.427  19.025  0.00  0.00    +0.000 A 
ATOM     23  C   UNL     1       1.207   3.826  19.054  0.00  0.00    +0.000 A 
ATOM     24  C   UNL     1       2.222   4.528  18.411  0.00  0.00    +0.000 A 
ATOM     25  N   UNL     1       2.249   5.877  18.459  0.00  0.00    +0.000 NA
ENDBRANCH  15  16
ENDBRANCH   4  14
TORSDOF 3
ENDMDL
MODEL 4
REMARK VINA RESULT:      -7.6      0.837      1.891
REMARK  Name = 
REMARK  4 active torsions:
REMARK  status: ('A' for Active; 'I' for Inactive)
REMARK    1  A    between atoms: C_1  and  C_2
REMARK    2  A    between atoms: C_5  and  N_6
REMARK    3  A    between atoms: N_9  and  N_10
REMARK    4  A    between atoms: C_11  and  C_12
REMARK                            x       y       z     vdW  Elec       q    Type
REMARK                         _______ _______ _______ _____ _____    ______ ____
ROOT
ATOM      1  N   UNL     1       0.232  10.392  19.697  0.00  0.00    +0.000 N 
ATOM      2  C   UNL     1       1.011  10.990  18.729  0.00  0.00    +0.000 C 
ATOM      3  O   UNL     1       1.162  12.189  18.526  0.00  0.00    +0.000 OA
ATOM      4  N   UNL     1       1.687  10.062  17.951  0.00  0.00    +0.000 N 
ATOM      5  H   UNL     1       0.388   9.392  19.739  0.00  0.00    +0.000 HD
ATOM      6  H   UNL     1       2.287  10.420  17.216  0.00  0.00    +0.000 HD
ENDROOT
BRANCH   1  11
ATOM      7  C   UNL     1      -3.117  12.830  23.645  0.00  0.00    +0.000 C 
ATOM      8  C   UNL     1      -2.250  12.193  22.601  0.00  0.00    +0.000 A 
ATOM      9  C   UNL     1      -2.386  12.538  21.254  0.00  0.00    +0.000 A 
ATOM     10  C   UNL     1      -1.570  11.953  20.282  0.00  0.00    +0.000 A 
ATOM     11  C   UNL     1      -0.609  11.005  20.637  0.00  0.00    +0.000 A 
ATOM     12  C   UNL     1      -0.486  10.637  21.982  0.00  0.00    +0.000 A 
ATOM     13  C   UNL     1      -1.293  11.236  22.958  0.00  0.00    +0.000 A 
ENDBRANCH   1  11
BRANCH   4  14
ATOM     14  N   UNL     1       1.516   8.729  18.149  0.00  0.00    +0.000 NA
ATOM     15  C   UNL     1       2.323   8.153  18.986  0.00  0.00    +0.000 C 
BRANCH  15  16
ATOM     16  C   UNL     1       2.199   6.699  19.235  0.00  0.00    +0.000 A 
ATOM     17  C   UNL     1       1.826   6.261  20.494  0.00  0.00    +0.000 A 
ATOM     18  C   UNL     1       1.720   4.899  20.709  0.00  0.00    +0.000 A 
ATOM     19  C   UNL     1       1.990   4.018  19.659  0.00  0.00    +0.000 A 
ATOM     20  C   UNL     1       1.891   2.632  19.851  0.00  0.00    +0.000 A 
ATOM     21  C   UNL     1       2.158   1.759  18.801  0.00  0.00    +0.000 A 
ATOM     22  C   UNL     1       2.523   2.272  17.561  0.00  0.00    +0.000 A 
ATOM     23  C   UNL     1       2.620   3.657  17.374  0.00  0.00    +0.000 A 
ATOM     24  C   UNL     1       2.362   4.556  18.404  0.00  0.00    +0.000 A 
ATOM     25  N   UNL     1       2.468   5.884  18.187  0.00  0.00    +0.000 NA
ENDBRANCH  15  16
ENDBRANCH   4  14
TORSDOF 3
ENDMDL
MODEL 5
REMARK VINA RESULT:      -7.5      3.869      5.972
REMARK  Name = 
REMARK  4 active torsions:
REMARK  status: ('A' for Active; 'I' for Inactive)
REMARK    1  A    between atoms: C_1  and  C_2
REMARK    2  A    between atoms: C_5  and  N_6
REMARK    3  A    between atoms: N_9  and  N_10
REMARK    4  A    between atoms: C_11  and  C_12
REMARK                            x       y       z     vdW  Elec       q    Type
REMARK                         _______ _______ _______ _____ _____    ______ ____
ROOT
ATOM      1  N   UNL     1       2.875   6.349  19.481  0.00  0.00    +0.000 N 
ATOM      2  C   UNL     1       2.842   5.181  20.213  0.00  0.00    +0.000 C 
ATOM      3  O   UNL     1       2.081   4.895  21.131  0.00  0.00    +0.000 OA
ATOM      4  N   UNL     1       3.792   4.266  19.786  0.00  0.00    +0.000 N 
ATOM      5  H   UNL     1       3.506   6.280  18.692  0.00  0.00    +0.000 HD
ATOM      6  H   UNL     1       3.831   3.377  20.271  0.00  0.00    +0.000 HD
ENDROOT
BRANCH   1  11
ATOM      7  C   UNL     1      -0.312  11.074  20.003  0.00  0.00    +0.000 C 
ATOM      8  C   UNL     1       0.527   9.837  19.880  0.00  0.00    +0.000 A 
ATOM      9  C   UNL     1       0.697   8.980  20.970  0.00  0.00    +0.000 A 
ATOM     10  C   UNL     1       1.468   7.821  20.853  0.00  0.00    +0.000 A 
ATOM     11  C   UNL     1       2.092   7.501  19.646  0.00  0.00    +0.000 A 
ATOM     12  C   UNL     1       1.945   8.369  18.559  0.00  0.00    +0.000 A 
ATOM     13  C   UNL     1       1.158   9.522  18.671  0.00  0.00    +0.000 A 
ENDBRANCH   1  11
BRANCH   4  14
ATOM     14  N   UNL     1       4.656   4.574  18.784  0.00  0.00    +0.000 NA
ATOM     15  C   UNL     1       4.417   4.047  17.622  0.00  0.00    +0.000 C 
BRANCH  15  16
ATOM     16  C   UNL     1       5.330   4.331  16.492  0.00  0.00    +0.000 A 
ATOM     17  C   UNL     1       6.436   5.136  16.706  0.00  0.00    +0.000 A 
ATOM     18  C   UNL     1       7.274   5.395  15.637  0.00  0.00    +0.000 A 
ATOM     19  C   UNL     1       6.982   4.841  14.389  0.00  0.00    +0.000 A 
ATOM     20  C   UNL     1       7.815   5.088  13.288  0.00  0.00    +0.000 A 
ATOM     21  C   UNL     1       7.520   4.532  12.048  0.00  0.00    +0.000 A 
ATOM     22  C   UNL     1       6.394   3.729  11.908  0.00  0.00    +0.000 A 
ATOM     23  C   UNL     1       5.564   3.484  13.011  0.00  0.00    +0.000 A 
ATOM     24  C   UNL     1       5.830   4.027  14.263  0.00  0.00    +0.000 A 
ATOM     25  N   UNL     1       5.006   3.772  15.302  0.00  0.00    +0.000 NA
ENDBRANCH  15  16
ENDBRANCH   4  14
TORSDOF 3
ENDMDL
MODEL 6
REMARK VINA RESULT:      -7.5      2.646      4.046
REMARK  Name = 
REMARK  4 active torsions:
REMARK  status: ('A' for Active; 'I' for Inactive)
REMARK    1  A    between atoms: C_1  and  C_2
REMARK    2  A    between atoms: C_5  and  N_6
REMARK    3  A    between atoms: N_9  and  N_10
REMARK    4  A    between atoms: C_11  and  C_12
REMARK                            x       y       z     vdW  Elec       q    Type
REMARK                         _______ _______ _______ _____ _____    ______ ____
ROOT
ATOM      1  N   UNL     1       1.073   9.372  20.026  0.00  0.00    +0.000 N 
ATOM      2  C   UNL     1       0.767   8.647  21.158  0.00  0.00    +0.000 C 
ATOM      3  O   UNL     1       0.055   8.990  22.096  0.00  0.00    +0.000 OA
ATOM      4  N   UNL     1       1.347   7.387  21.149  0.00  0.00    +0.000 N 
ATOM      5  H   UNL     1       1.568   8.810  19.343  0.00  0.00    +0.000 HD
ATOM      6  H   UNL     1       1.168   6.787  21.946  0.00  0.00    +0.000 HD
ENDROOT
BRANCH   1  11
ATOM      7  C   UNL     1      -0.346  14.776  18.789  0.00  0.00    +0.000 C 
ATOM      8  C   UNL     1       0.012  13.356  19.111  0.00  0.00    +0.000 A 
ATOM      9  C   UNL     1      -0.695  12.296  18.539  0.00  0.00    +0.000 A 
ATOM     10  C   UNL     1      -0.353  10.972  18.830  0.00  0.00    +0.000 A 
ATOM     11  C   UNL     1       0.694  10.683  19.704  0.00  0.00    +0.000 A 
ATOM     12  C   UNL     1       1.389  11.742  20.300  0.00  0.00    +0.000 A 
ATOM     13  C   UNL     1       1.058  13.069  19.995  0.00  0.00    +0.000 A 
ENDBRANCH   1  11
BRANCH   4  14
ATOM     14  N   UNL     1       2.154   6.999  20.127  0.00  0.00    +0.000 NA
ATOM     15  C   UNL     1       2.229   5.725  19.892  0.00  0.00    +0.000 C 
BRANCH  15  16
ATOM     16  C   UNL     1       3.103   5.236  18.802  0.00  0.00    +0.000 A 
ATOM     17  C   UNL     1       2.688   4.156  18.040  0.00  0.00    +0.000 A 
ATOM     18  C   UNL     1       3.520   3.710  17.030  0.00  0.00    +0.000 A 
ATOM     19  C   UNL     1       4.739   4.355  16.813  0.00  0.00    +0.000 A 
ATOM     20  C   UNL     1       5.603   3.922  15.795  0.00  0.00    +0.000 A 
ATOM     21  C   UNL     1       6.815   4.570  15.582  0.00  0.00    +0.000 A 
ATOM     22  C   UNL     1       7.164   5.651  16.384  0.00  0.00    +0.000 A 
ATOM     23  C   UNL     1       6.298   6.081  17.399  0.00  0.00    +0.000 A 
ATOM     24  C   UNL     1       5.080   5.453  17.639  0.00  0.00    +0.000 A 
ATOM     25  N   UNL     1       4.273   5.893  18.628  0.00  0.00    +0.000 NA
ENDBRANCH  15  16
ENDBRANCH   4  14
TORSDOF 3
ENDMDL
MODEL 7
REMARK VINA RESULT:      -7.5      2.231      2.930
REMARK  Name = 
REMARK  4 active torsions:
REMARK  status: ('A' for Active; 'I' for Inactive)
REMARK    1  A    between atoms: C_1  and  C_2
REMARK    2  A    between atoms: C_5  and  N_6
REMARK    3  A    between atoms: N_9  and  N_10
REMARK    4  A    between atoms: C_11  and  C_12
REMARK                            x       y       z     vdW  Elec       q    Type
REMARK                         _______ _______ _______ _____ _____    ______ ____
ROOT
ATOM      1  N   UNL     1      -0.181  10.263  17.785  0.00  0.00    +0.000 N 
ATOM      2  C   UNL     1       0.845  11.145  18.055  0.00  0.00    +0.000 C 
ATOM      3  O   UNL     1       0.753  12.331  18.353  0.00  0.00    +0.000 OA
ATOM      4  N   UNL     1       2.091  10.540  17.985  0.00  0.00    +0.000 N 
ATOM      5  H   UNL     1       0.155   9.312  17.701  0.00  0.00    +0.000 HD
ATOM      6  H   UNL     1       2.900  11.119  18.174  0.00  0.00    +0.000 HD
ENDROOT
BRANCH   1  11
ATOM      7  C   UNL     1      -5.784  11.421  17.683  0.00  0.00    +0.000 C 
ATOM      8  C   UNL     1      -4.319  11.104  17.704  0.00  0.00    +0.000 A 
ATOM      9  C   UNL     1      -3.745  10.320  16.700  0.00  0.00    +0.000 A 
ATOM     10  C   UNL     1      -2.377  10.036  16.712  0.00  0.00    +0.000 A 
ATOM     11  C   UNL     1      -1.558  10.522  17.732  0.00  0.00    +0.000 A 
ATOM     12  C   UNL     1      -2.133  11.287  18.753  0.00  0.00    +0.000 A 
ATOM     13  C   UNL     1      -3.501  11.587  18.732  0.00  0.00    +0.000 A 
ENDBRANCH   1  11
BRANCH   4  14
ATOM     14  N   UNL     1       2.212   9.232  17.637  0.00  0.00    +0.000 NA
ATOM     15  C   UNL     1       2.839   8.460  18.471  0.00  0.00    +0.000 C 
BRANCH  15  16
ATOM     16  C   UNL     1       3.018   7.027  18.143  0.00  0.00    +0.000 A 
ATOM     17  C   UNL     1       4.096   6.646  17.363  0.00  0.00    +0.000 A 
ATOM     18  C   UNL     1       4.245   5.304  17.063  0.00  0.00    +0.000 A 
ATOM     19  C   UNL     1       3.313   4.387  17.552  0.00  0.00    +0.000 A 
ATOM     20  C   UNL     1       3.440   3.020  17.261  0.00  0.00    +0.000 A 
ATOM     21  C   UNL     1       2.509   2.110  17.753  0.00  0.00    +0.000 A 
ATOM     22  C   UNL     1       1.453   2.566  18.534  0.00  0.00    +0.000 A 
ATOM     23  C   UNL     1       1.331   3.932  18.822  0.00  0.00    +0.000 A 
ATOM     24  C   UNL     1       2.243   4.867  18.344  0.00  0.00    +0.000 A 
ATOM     25  N   UNL     1       2.091   6.176  18.640  0.00  0.00    +0.000 NA
ENDBRANCH  15  16
ENDBRANCH   4  14
TORSDOF 3
ENDMDL
MODEL 8
REMARK VINA RESULT:      -7.5      0.872      1.621
REMARK  Name = 
REMARK  4 active torsions:
REMARK  status: ('A' for Active; 'I' for Inactive)
REMARK    1  A    between atoms: C_1  and  C_2
REMARK    2  A    between atoms: C_5  and  N_6
REMARK    3  A    between atoms: N_9  and  N_10
REMARK    4  A    between atoms: C_11  and  C_12
REMARK                            x       y       z     vdW  Elec       q    Type
REMARK                         _______ _______ _______ _____ _____    ______ ____
ROOT
ATOM      1  N   UNL     1       0.255  10.557  19.687  0.00  0.00    +0.000 N 
ATOM      2  C   UNL     1       1.053  11.112  18.708  0.00  0.00    +0.000 C 
ATOM      3  O   UNL     1       1.237  12.303  18.480  0.00  0.00    +0.000 OA
ATOM      4  N   UNL     1       1.707  10.150  17.953  0.00  0.00    +0.000 N 
ATOM      5  H   UNL     1       0.384   9.555  19.751  0.00  0.00    +0.000 HD
ATOM      6  H   UNL     1       2.318  10.476  17.214  0.00  0.00    +0.000 HD
ENDROOT
BRANCH   1  11
ATOM      7  C   UNL     1      -3.221  13.264  23.338  0.00  0.00    +0.000 C 
ATOM      8  C   UNL     1      -2.299  12.557  22.391  0.00  0.00    +0.000 A 
ATOM      9  C   UNL     1      -1.196  11.846  22.867  0.00  0.00    +0.000 A 
ATOM     10  C   UNL     1      -0.343  11.177  21.985  0.00  0.00    +0.000 A 
ATOM     11  C   UNL     1      -0.572  11.213  20.609  0.00  0.00    +0.000 A 
ATOM     12  C   UNL     1      -1.662  11.945  20.125  0.00  0.00    +0.000 A 
ATOM     13  C   UNL     1      -2.526  12.602  21.010  0.00  0.00    +0.000 A 
ENDBRANCH   1  11
BRANCH   4  14
ATOM     14  N   UNL     1       1.499   8.826  18.181  0.00  0.00    +0.000 NA
ATOM     15  C   UNL     1       2.390   8.207  18.891  0.00  0.00    +0.000 C 
BRANCH  15  16
ATOM     16  C   UNL     1       2.230   6.760  19.160  0.00  0.00    +0.000 A 
ATOM     17  C   UNL     1       1.815   6.352  20.416  0.00  0.00    +0.000 A 
ATOM     18  C   UNL     1       1.676   4.996  20.652  0.00  0.00    +0.000 A 
ATOM     19  C   UNL     1       1.956   4.092  19.625  0.00  0.00    +0.000 A 
ATOM     20  C   UNL     1       1.825   2.711  19.837  0.00  0.00    +0.000 A 
ATOM     21  C   UNL     1       2.103   1.815  18.810  0.00  0.00    +0.000 A 
ATOM     22  C   UNL     1       2.512   2.299  17.572  0.00  0.00    +0.000 A 
ATOM     23  C   UNL     1       2.642   3.679  17.364  0.00  0.00    +0.000 A 
ATOM     24  C   UNL     1       2.373   4.600  18.371  0.00  0.00    +0.000 A 
ATOM     25  N   UNL     1       2.512   5.922  18.135  0.00  0.00    +0.000 NA
ENDBRANCH  15  16
ENDBRANCH   4  14
TORSDOF 3
ENDMDL
MODEL 9
REMARK VINA RESULT:      -7.5      2.620      3.941
REMARK  Name = 
REMARK  4 active torsions:
REMARK  status: ('A' for Active; 'I' for Inactive)
REMARK    1  A    between atoms: C_1  and  C_2
REMARK    2  A    between atoms: C_5  and  N_6
REMARK    3  A    between atoms: N_9  and  N_10
REMARK    4  A    between atoms: C_11  and  C_12
REMARK                            x       y       z     vdW  Elec       q    Type
REMARK                         _______ _______ _______ _____ _____    ______ ____
ROOT
ATOM      1  N   UNL     1       1.094   9.439  20.139  0.00  0.00    +0.000 N 
ATOM      2  C   UNL     1       0.786   8.687  21.253  0.00  0.00    +0.000 C 
ATOM      3  O   UNL     1       0.109   9.024  22.218  0.00  0.00    +0.000 OA
ATOM      4  N   UNL     1       1.318   7.408  21.189  0.00  0.00    +0.000 N 
ATOM      5  H   UNL     1       1.552   8.883  19.427  0.00  0.00    +0.000 HD
ATOM      6  H   UNL     1       1.133   6.788  21.969  0.00  0.00    +0.000 HD
ENDROOT
BRANCH   1  11
ATOM      7  C   UNL     1      -0.384  14.837  18.949  0.00  0.00    +0.000 C 
ATOM      8  C   UNL     1       0.017  13.428  19.265  0.00  0.00    +0.000 A 
ATOM      9  C   UNL     1       0.921  13.157  20.294  0.00  0.00    +0.000 A 
ATOM     10  C   UNL     1       1.285  11.842  20.597  0.00  0.00    +0.000 A 
ATOM     11  C   UNL     1       0.759  10.774  19.871  0.00  0.00    +0.000 A 
ATOM     12  C   UNL     1      -0.129  11.041  18.822  0.00  0.00    +0.000 A 
ATOM     13  C   UNL     1      -0.507  12.358  18.530  0.00  0.00    +0.000 A 
ENDBRANCH   1  11
BRANCH   4  14
ATOM     14  N   UNL     1       2.086   7.025  20.135  0.00  0.00    +0.000 NA
ATOM     15  C   UNL     1       2.253   5.750  19.965  0.00  0.00    +0.000 C 
BRANCH  15  16
ATOM     16  C   UNL     1       3.092   5.268  18.845  0.00  0.00    +0.000 A 
ATOM     17  C   UNL     1       2.624   4.237  18.048  0.00  0.00    +0.000 A 
ATOM     18  C   UNL     1       3.424   3.797  17.010  0.00  0.00    +0.000 A 
ATOM     19  C   UNL     1       4.666   4.400  16.800  0.00  0.00    +0.000 A 
ATOM     20  C   UNL     1       5.498   3.971  15.755  0.00  0.00    +0.000 A 
ATOM     21  C   UNL     1       6.734   4.577  15.550  0.00  0.00    +0.000 A 
ATOM     22  C   UNL     1       7.137   5.610  16.389  0.00  0.00    +0.000 A 
ATOM     23  C   UNL     1       6.303   6.035  17.432  0.00  0.00    +0.000 A 
ATOM     24  C   UNL     1       5.063   5.449  17.664  0.00  0.00    +0.000 A 
ATOM     25  N   UNL     1       4.287   5.883  18.681  0.00  0.00    +0.000 NA
ENDBRANCH  15  16
ENDBRANCH   4  14
TORSDOF 3
ENDMDL
