MODEL 1
REMARK VINA RESULT:      -7.9      0.000      0.000
REMARK  Name = 
REMARK  4 active torsions:
REMARK  status: ('A' for Active; 'I' for Inactive)
REMARK    1  A    between atoms: C_1  and  N_2
REMARK    2  A    between atoms: C_6  and  O_7
REMARK    3  A    between atoms: O_7  and  C_8
REMARK    4  A    between atoms: C_8  and  C_9
REMARK                            x       y       z     vdW  Elec       q    Type
REMARK                         _______ _______ _______ _____ _____    ______ ____
ROOT
ATOM      1  C   UNL     1       5.698   3.508  15.750  0.00  0.00    +0.000 C 
ATOM      2  N   UNL     1       5.001   4.574  16.454  0.00  0.00    +0.000 N 
ATOM      3  C   UNL     1       5.523   5.857  16.375  0.00  0.00    +0.000 A 
ATOM      4  O   UNL     1       6.541   6.164  15.748  0.00  0.00    +0.000 OA
ATOM      5  C   UNL     1       4.805   6.931  17.091  0.00  0.00    +0.000 A 
ATOM      6  C   UNL     1       3.690   6.703  17.798  0.00  0.00    +0.000 A 
ATOM      7  C   UNL     1       3.160   5.330  17.874  0.00  0.00    +0.000 A 
ATOM      8  C   UNL     1       1.993   5.038  18.609  0.00  0.00    +0.000 A 
ATOM      9  C   UNL     1       1.494   3.738  18.684  0.00  0.00    +0.000 A 
ATOM     10  C   UNL     1       2.154   2.709  18.027  0.00  0.00    +0.000 A 
ATOM     11  C   UNL     1       3.312   2.978  17.292  0.00  0.00    +0.000 A 
ATOM     12  C   UNL     1       3.826   4.286  17.205  0.00  0.00    +0.000 A 
ENDROOT
BRANCH   6  13
ATOM     13  O   UNL     1       2.954   7.647  18.487  0.00  0.00    +0.000 OA
BRANCH  13  14
ATOM     14  C   UNL     1       2.171   8.556  17.721  0.00  0.00    +0.000 C 
BRANCH  14  15
ATOM     15  C   UNL     1       1.169   9.319  18.585  0.00  0.00    +0.000 C 
ATOM     16  O   UNL     1       1.145   9.167  19.804  0.00  0.00    +0.000 OA
ATOM     17  N   UNL     1       0.345  10.160  17.868  0.00  0.00    +0.000 N 
ATOM     18  C   UNL     1      -0.682  10.901  18.448  0.00  0.00    +0.000 A 
ATOM     19  C   UNL     1      -0.511  11.577  19.650  0.00  0.00    +0.000 A 
ATOM     20  C   UNL     1      -1.597  12.254  20.196  0.00  0.00    +0.000 A 
ATOM     21  C   UNL     1      -2.820  12.205  19.542  0.00  0.00    +0.000 A 
ATOM     22  C   UNL     1      -2.890  11.527  18.336  0.00  0.00    +0.000 A 
ATOM     23  N   UNL     1      -1.837  10.911  17.753  0.00  0.00    +0.000 NA
ATOM     24  H   UNL     1       0.175   9.901  16.903  0.00  0.00    +0.000 HD
ENDBRANCH  14  15
ENDBRANCH  13  14
ENDBRANCH   6  13
TORSDOF 3
ENDMDL
MODEL 2
REMARK VINA RESULT:      -7.8      1.596      2.030
REMARK  Name = 
REMARK  4 active torsions:
REMARK  status: ('A' for Active; 'I' for Inactive)
REMARK    1  A    between atoms: C_1  and  N_2
REMARK    2  A    between atoms: C_6  and  O_7
REMARK    3  A    between atoms: O_7  and  C_8
REMARK    4  A    between atoms: C_8  and  C_9
REMARK                            x       y       z     vdW  Elec       q    Type
REMARK                         _______ _______ _______ _____ _____    ______ ____
ROOT
ATOM      1  C   UNL     1       4.319   4.132  16.742  0.00  0.00    +0.000 C 
ATOM      2  N   UNL     1       3.601   4.888  17.757  0.00  0.00    +0.000 N 
ATOM      3  C   UNL     1       3.770   6.264  17.787  0.00  0.00    +0.000 A 
ATOM      4  O   UNL     1       4.488   6.900  17.010  0.00  0.00    +0.000 OA
ATOM      5  C   UNL     1       3.033   7.020  18.820  0.00  0.00    +0.000 A 
ATOM      6  C   UNL     1       2.226   6.424  19.708  0.00  0.00    +0.000 A 
ATOM      7  C   UNL     1       2.071   4.959  19.662  0.00  0.00    +0.000 A 
ATOM      8  C   UNL     1       1.238   4.284  20.579  0.00  0.00    +0.000 A 
ATOM      9  C   UNL     1       1.095   2.899  20.537  0.00  0.00    +0.000 A 
ATOM     10  C   UNL     1       1.782   2.163  19.582  0.00  0.00    +0.000 A 
ATOM     11  C   UNL     1       2.612   2.814  18.664  0.00  0.00    +0.000 A 
ATOM     12  C   UNL     1       2.765   4.212  18.692  0.00  0.00    +0.000 A 
ENDROOT
BRANCH   6  13
ATOM     13  O   UNL     1       1.496   7.053  20.697  0.00  0.00    +0.000 OA
BRANCH  13  14
ATOM     14  C   UNL     1       1.676   8.456  20.856  0.00  0.00    +0.000 C 
BRANCH  14  15
ATOM     15  C   UNL     1       0.399   9.236  20.558  0.00  0.00    +0.000 C 
ATOM     16  O   UNL     1      -0.435   9.439  21.437  0.00  0.00    +0.000 OA
ATOM     17  N   UNL     1       0.306   9.670  19.252  0.00  0.00    +0.000 N 
ATOM     18  C   UNL     1      -0.803  10.345  18.749  0.00  0.00    +0.000 A 
ATOM     19  C   UNL     1      -1.433  11.358  19.463  0.00  0.00    +0.000 A 
ATOM     20  C   UNL     1      -2.568  11.951  18.919  0.00  0.00    +0.000 A 
ATOM     21  C   UNL     1      -3.051  11.493  17.701  0.00  0.00    +0.000 A 
ATOM     22  C   UNL     1      -2.342  10.497  17.050  0.00  0.00    +0.000 A 
ATOM     23  N   UNL     1      -1.205   9.945  17.526  0.00  0.00    +0.000 NA
ATOM     24  H   UNL     1       0.804   9.120  18.564  0.00  0.00    +0.000 HD
ENDBRANCH  14  15
ENDBRANCH  13  14
ENDBRANCH   6  13
TORSDOF 3
ENDMDL
MODEL 3
REMARK VINA RESULT:      -7.8      1.955      3.237
REMARK  Name = 
REMARK  4 active torsions:
REMARK  status: ('A' for Active; 'I' for Inactive)
REMARK    1  A    between atoms: C_1  and  N_2
REMARK    2  A    between atoms: C_6  and  O_7
REMARK    3  A    between atoms: O_7  and  C_8
REMARK    4  A    between atoms: C_8  and  C_9
REMARK                            x       y       z     vdW  Elec       q    Type
REMARK                         _______ _______ _______ _____ _____    ______ ____
ROOT
ATOM      1  C   UNL     1       2.818   2.014  18.595  0.00  0.00    +0.000 C 
ATOM      2  N   UNL     1       2.663   3.421  18.933  0.00  0.00    +0.000 N 
ATOM      3  C   UNL     1       1.830   3.750  19.993  0.00  0.00    +0.000 A 
ATOM      4  O   UNL     1       1.207   2.932  20.675  0.00  0.00    +0.000 OA
ATOM      5  C   UNL     1       1.685   5.181  20.328  0.00  0.00    +0.000 A 
ATOM      6  C   UNL     1       2.321   6.146  19.651  0.00  0.00    +0.000 A 
ATOM      7  C   UNL     1       3.194   5.772  18.523  0.00  0.00    +0.000 A 
ATOM      8  C   UNL     1       3.880   6.751  17.776  0.00  0.00    +0.000 A 
ATOM      9  C   UNL     1       4.702   6.397  16.707  0.00  0.00    +0.000 A 
ATOM     10  C   UNL     1       4.850   5.060  16.366  0.00  0.00    +0.000 A 
ATOM     11  C   UNL     1       4.178   4.074  17.095  0.00  0.00    +0.000 A 
ATOM     12  C   UNL     1       3.347   4.416  18.178  0.00  0.00    +0.000 A 
ENDROOT
BRANCH   6  13
ATOM     13  O   UNL     1       2.250   7.502  19.902  0.00  0.00    +0.000 OA
BRANCH  13  14
ATOM     14  C   UNL     1       1.658   7.913  21.130  0.00  0.00    +0.000 C 
BRANCH  14  15
ATOM     15  C   UNL     1       0.472   8.849  20.911  0.00  0.00    +0.000 C 
ATOM     16  O   UNL     1      -0.381   8.997  21.782  0.00  0.00    +0.000 OA
ATOM     17  N   UNL     1       0.482   9.480  19.685  0.00  0.00    +0.000 N 
ATOM     18  C   UNL     1      -0.537  10.326  19.254  0.00  0.00    +0.000 A 
ATOM     19  C   UNL     1      -1.107  11.276  20.093  0.00  0.00    +0.000 A 
ATOM     20  C   UNL     1      -2.156  12.051  19.608  0.00  0.00    +0.000 A 
ATOM     21  C   UNL     1      -2.619  11.829  18.319  0.00  0.00    +0.000 A 
ATOM     22  C   UNL     1      -1.971  10.878  17.547  0.00  0.00    +0.000 A 
ATOM     23  N   UNL     1      -0.913  10.153  17.971  0.00  0.00    +0.000 NA
ATOM     24  H   UNL     1       0.961   8.993  18.938  0.00  0.00    +0.000 HD
ENDBRANCH  14  15
ENDBRANCH  13  14
ENDBRANCH   6  13
TORSDOF 3
ENDMDL
MODEL 4
REMARK VINA RESULT:      -7.7      2.304      3.564
REMARK  Name = 
REMARK  4 active torsions:
REMARK  status: ('A' for Active; 'I' for Inactive)
REMARK    1  A    between atoms: C_1  and  N_2
REMARK    2  A    between atoms: C_6  and  O_7
REMARK    3  A    between atoms: O_7  and  C_8
REMARK    4  A    between atoms: C_8  and  C_9
REMARK                            x       y       z     vdW  Elec       q    Type
REMARK                         _______ _______ _______ _____ _____    ______ ____
ROOT
ATOM      1  C   UNL     1       3.133   1.735  18.362  0.00  0.00    +0.000 C 
ATOM      2  N   UNL     1       2.939   3.139  18.694  0.00  0.00    +0.000 N 
ATOM      3  C   UNL     1       2.093   3.449  19.749  0.00  0.00    +0.000 A 
ATOM      4  O   UNL     1       1.490   2.617  20.432  0.00  0.00    +0.000 OA
ATOM      5  C   UNL     1       1.908   4.877  20.078  0.00  0.00    +0.000 A 
ATOM      6  C   UNL     1       2.520   5.856  19.400  0.00  0.00    +0.000 A 
ATOM      7  C   UNL     1       3.407   5.502  18.277  0.00  0.00    +0.000 A 
ATOM      8  C   UNL     1       4.070   6.497  17.529  0.00  0.00    +0.000 A 
ATOM      9  C   UNL     1       4.905   6.161  16.465  0.00  0.00    +0.000 A 
ATOM     10  C   UNL     1       5.091   4.828  16.129  0.00  0.00    +0.000 A 
ATOM     11  C   UNL     1       4.443   3.827  16.859  0.00  0.00    +0.000 A 
ATOM     12  C   UNL     1       3.599   4.150  17.938  0.00  0.00    +0.000 A 
ENDROOT
BRANCH   6  13
ATOM     13  O   UNL     1       2.411   7.211  19.646  0.00  0.00    +0.000 OA
BRANCH  13  14
ATOM     14  C   UNL     1       1.569   7.618  20.719  0.00  0.00    +0.000 C 
BRANCH  14  15
ATOM     15  C   UNL     1       0.984   9.010  20.493  0.00  0.00    +0.000 C 
ATOM     16  O   UNL     1       1.273   9.658  19.490  0.00  0.00    +0.000 OA
ATOM     17  N   UNL     1       0.132   9.424  21.495  0.00  0.00    +0.000 N 
ATOM     18  C   UNL     1      -0.461  10.684  21.521  0.00  0.00    +0.000 A 
ATOM     19  C   UNL     1      -1.010  11.261  20.382  0.00  0.00    +0.000 A 
ATOM     20  C   UNL     1      -1.538  12.545  20.474  0.00  0.00    +0.000 A 
ATOM     21  C   UNL     1      -1.472  13.218  21.686  0.00  0.00    +0.000 A 
ATOM     22  C   UNL     1      -0.930  12.552  22.774  0.00  0.00    +0.000 A 
ATOM     23  N   UNL     1      -0.463  11.285  22.728  0.00  0.00    +0.000 NA
ATOM     24  H   UNL     1       0.293   9.022  22.410  0.00  0.00    +0.000 HD
ENDBRANCH  14  15
ENDBRANCH  13  14
ENDBRANCH   6  13
TORSDOF 3
ENDMDL
MODEL 5
REMARK VINA RESULT:      -7.7      2.205      2.672
REMARK  Name = 
REMARK  4 active torsions:
REMARK  status: ('A' for Active; 'I' for Inactive)
REMARK    1  A    between atoms: C_1  and  N_2
REMARK    2  A    between atoms: C_6  and  O_7
REMARK    3  A    between atoms: O_7  and  C_8
REMARK    4  A    between atoms: C_8  and  C_9
REMARK                            x       y       z     vdW  Elec       q    Type
REMARK                         _______ _______ _______ _____ _____    ______ ____
ROOT
ATOM      1  C   UNL     1       4.219   4.128  16.755  0.00  0.00    +0.000 C 
ATOM      2  N   UNL     1       3.515   4.890  17.777  0.00  0.00    +0.000 N 
ATOM      3  C   UNL     1       3.654   6.270  17.773  0.00  0.00    +0.000 A 
ATOM      4  O   UNL     1       4.335   6.904  16.962  0.00  0.00    +0.000 OA
ATOM      5  C   UNL     1       2.932   7.032  18.812  0.00  0.00    +0.000 A 
ATOM      6  C   UNL     1       2.165   6.438  19.736  0.00  0.00    +0.000 A 
ATOM      7  C   UNL     1       2.040   4.969  19.725  0.00  0.00    +0.000 A 
ATOM      8  C   UNL     1       1.250   4.297  20.680  0.00  0.00    +0.000 A 
ATOM      9  C   UNL     1       1.135   2.909  20.671  0.00  0.00    +0.000 A 
ATOM     10  C   UNL     1       1.809   2.168  19.710  0.00  0.00    +0.000 A 
ATOM     11  C   UNL     1       2.597   2.816  18.754  0.00  0.00    +0.000 A 
ATOM     12  C   UNL     1       2.721   4.217  18.749  0.00  0.00    +0.000 A 
ENDROOT
BRANCH   6  13
ATOM     13  O   UNL     1       1.451   7.072  20.733  0.00  0.00    +0.000 OA
BRANCH  13  14
ATOM     14  C   UNL     1       1.582   8.486  20.839  0.00  0.00    +0.000 C 
BRANCH  14  15
ATOM     15  C   UNL     1       0.346   9.133  21.457  0.00  0.00    +0.000 C 
ATOM     16  O   UNL     1      -0.461   8.462  22.096  0.00  0.00    +0.000 OA
ATOM     17  N   UNL     1       0.257  10.489  21.231  0.00  0.00    +0.000 N 
ATOM     18  C   UNL     1      -0.822  11.265  21.651  0.00  0.00    +0.000 A 
ATOM     19  C   UNL     1      -1.383  11.119  22.914  0.00  0.00    +0.000 A 
ATOM     20  C   UNL     1      -2.492  11.892  23.245  0.00  0.00    +0.000 A 
ATOM     21  C   UNL     1      -3.019  12.757  22.295  0.00  0.00    +0.000 A 
ATOM     22  C   UNL     1      -2.376  12.854  21.072  0.00  0.00    +0.000 A 
ATOM     23  N   UNL     1      -1.264  12.160  20.745  0.00  0.00    +0.000 NA
ATOM     24  H   UNL     1       0.712  10.832  20.394  0.00  0.00    +0.000 HD
ENDBRANCH  14  15
ENDBRANCH  13  14
ENDBRANCH   6  13
TORSDOF 3
ENDMDL
MODEL 6
REMARK VINA RESULT:      -7.7      1.253      1.535
REMARK  Name = 
REMARK  4 active torsions:
REMARK  status: ('A' for Active; 'I' for Inactive)
REMARK    1  A    between atoms: C_1  and  N_2
REMARK    2  A    between atoms: C_6  and  O_7
REMARK    3  A    between atoms: O_7  and  C_8
REMARK    4  A    between atoms: C_8  and  C_9
REMARK                            x       y       z     vdW  Elec       q    Type
REMARK                         _______ _______ _______ _____ _____    ______ ____
ROOT
ATOM      1  C   UNL     1       4.549   3.380  16.913  0.00  0.00    +0.000 C 
ATOM      2  N   UNL     1       3.937   4.552  17.523  0.00  0.00    +0.000 N 
ATOM      3  C   UNL     1       4.316   5.802  17.058  0.00  0.00    +0.000 A 
ATOM      4  O   UNL     1       5.138   5.997  16.158  0.00  0.00    +0.000 OA
ATOM      5  C   UNL     1       3.685   6.983  17.682  0.00  0.00    +0.000 A 
ATOM      6  C   UNL     1       2.779   6.879  18.663  0.00  0.00    +0.000 A 
ATOM      7  C   UNL     1       2.400   5.539  19.148  0.00  0.00    +0.000 A 
ATOM      8  C   UNL     1       1.456   5.377  20.182  0.00  0.00    +0.000 A 
ATOM      9  C   UNL     1       1.101   4.110  20.642  0.00  0.00    +0.000 A 
ATOM     10  C   UNL     1       1.684   2.984  20.078  0.00  0.00    +0.000 A 
ATOM     11  C   UNL     1       2.622   3.124  19.051  0.00  0.00    +0.000 A 
ATOM     12  C   UNL     1       2.989   4.397  18.574  0.00  0.00    +0.000 A 
ENDROOT
BRANCH   6  13
ATOM     13  O   UNL     1       2.136   7.925  19.294  0.00  0.00    +0.000 OA
BRANCH  13  14
ATOM     14  C   UNL     1       1.880   9.097  18.528  0.00  0.00    +0.000 C 
BRANCH  14  15
ATOM     15  C   UNL     1       0.542   9.738  18.888  0.00  0.00    +0.000 C 
ATOM     16  O   UNL     1       0.244   9.956  20.059  0.00  0.00    +0.000 OA
ATOM     17  N   UNL     1      -0.244  10.034  17.794  0.00  0.00    +0.000 N 
ATOM     18  C   UNL     1      -1.528  10.564  17.898  0.00  0.00    +0.000 A 
ATOM     19  C   UNL     1      -1.832  11.586  18.790  0.00  0.00    +0.000 A 
ATOM     20  C   UNL     1      -3.148  12.028  18.875  0.00  0.00    +0.000 A 
ATOM     21  C   UNL     1      -4.118  11.416  18.093  0.00  0.00    +0.000 A 
ATOM     22  C   UNL     1      -3.717  10.423  17.213  0.00  0.00    +0.000 A 
ATOM     23  N   UNL     1      -2.437  10.015  17.068  0.00  0.00    +0.000 NA
ATOM     24  H   UNL     1      -0.097   9.462  16.972  0.00  0.00    +0.000 HD
ENDBRANCH  14  15
ENDBRANCH  13  14
ENDBRANCH   6  13
TORSDOF 3
ENDMDL
MODEL 7
REMARK VINA RESULT:      -7.7      1.381      2.842
REMARK  Name = 
REMARK  4 active torsions:
REMARK  status: ('A' for Active; 'I' for Inactive)
REMARK    1  A    between atoms: C_1  and  N_2
REMARK    2  A    between atoms: C_6  and  O_7
REMARK    3  A    between atoms: O_7  and  C_8
REMARK    4  A    between atoms: C_8  and  C_9
REMARK                            x       y       z     vdW  Elec       q    Type
REMARK                         _______ _______ _______ _____ _____    ______ ____
ROOT
ATOM      1  C   UNL     1       2.640   2.176  17.883  0.00  0.00    +0.000 C 
ATOM      2  N   UNL     1       2.683   3.616  18.092  0.00  0.00    +0.000 N 
ATOM      3  C   UNL     1       1.776   4.173  18.981  0.00  0.00    +0.000 A 
ATOM      4  O   UNL     1       0.929   3.535  19.612  0.00  0.00    +0.000 OA
ATOM      5  C   UNL     1       1.833   5.635  19.187  0.00  0.00    +0.000 A 
ATOM      6  C   UNL     1       2.717   6.416  18.553  0.00  0.00    +0.000 A 
ATOM      7  C   UNL     1       3.665   5.801  17.606  0.00  0.00    +0.000 A 
ATOM      8  C   UNL     1       4.611   6.582  16.910  0.00  0.00    +0.000 A 
ATOM      9  C   UNL     1       5.504   6.000  16.013  0.00  0.00    +0.000 A 
ATOM     10  C   UNL     1       5.467   4.630  15.794  0.00  0.00    +0.000 A 
ATOM     11  C   UNL     1       4.538   3.839  16.476  0.00  0.00    +0.000 A 
ATOM     12  C   UNL     1       3.631   4.412  17.386  0.00  0.00    +0.000 A 
ENDROOT
BRANCH   6  13
ATOM     13  O   UNL     1       2.845   7.784  18.694  0.00  0.00    +0.000 OA
BRANCH  13  14
ATOM     14  C   UNL     1       2.114   8.608  17.792  0.00  0.00    +0.000 C 
BRANCH  14  15
ATOM     15  C   UNL     1       1.025   9.409  18.501  0.00  0.00    +0.000 C 
ATOM     16  O   UNL     1       1.040   9.549  19.721  0.00  0.00    +0.000 OA
ATOM     17  N   UNL     1       0.077   9.933  17.648  0.00  0.00    +0.000 N 
ATOM     18  C   UNL     1      -1.038  10.643  18.088  0.00  0.00    +0.000 A 
ATOM     19  C   UNL     1      -0.950  11.602  19.089  0.00  0.00    +0.000 A 
ATOM     20  C   UNL     1      -2.115  12.233  19.514  0.00  0.00    +0.000 A 
ATOM     21  C   UNL     1      -3.328  11.862  18.948  0.00  0.00    +0.000 A 
ATOM     22  C   UNL     1      -3.314  10.914  17.938  0.00  0.00    +0.000 A 
ATOM     23  N   UNL     1      -2.192  10.329  17.465  0.00  0.00    +0.000 NA
ATOM     24  H   UNL     1      -0.066   9.433  16.780  0.00  0.00    +0.000 HD
ENDBRANCH  14  15
ENDBRANCH  13  14
ENDBRANCH   6  13
TORSDOF 3
ENDMDL
MODEL 8
REMARK VINA RESULT:      -7.6      2.071      3.320
REMARK  Name = 
REMARK  4 active torsions:
REMARK  status: ('A' for Active; 'I' for Inactive)
REMARK    1  A    between atoms: C_1  and  N_2
REMARK    2  A    between atoms: C_6  and  O_7
REMARK    3  A    between atoms: O_7  and  C_8
REMARK    4  A    between atoms: C_8  and  C_9
REMARK                            x       y       z     vdW  Elec       q    Type
REMARK                         _______ _______ _______ _____ _____    ______ ____
ROOT
ATOM      1  C   UNL     1       2.788   1.889  18.409  0.00  0.00    +0.000 C 
ATOM      2  N   UNL     1       2.640   3.291  18.772  0.00  0.00    +0.000 N 
ATOM      3  C   UNL     1       1.785   3.607  19.817  0.00  0.00    +0.000 A 
ATOM      4  O   UNL     1       1.135   2.783  20.467  0.00  0.00    +0.000 OA
ATOM      5  C   UNL     1       1.646   5.033  20.178  0.00  0.00    +0.000 A 
ATOM      6  C   UNL     1       2.309   6.004  19.538  0.00  0.00    +0.000 A 
ATOM      7  C   UNL     1       3.206   5.644  18.424  0.00  0.00    +0.000 A 
ATOM      8  C   UNL     1       3.921   6.630  17.714  0.00  0.00    +0.000 A 
ATOM      9  C   UNL     1       4.765   6.289  16.659  0.00  0.00    +0.000 A 
ATOM     10  C   UNL     1       4.908   4.957  16.294  0.00  0.00    +0.000 A 
ATOM     11  C   UNL     1       4.208   3.965  16.986  0.00  0.00    +0.000 A 
ATOM     12  C   UNL     1       3.353   4.294  18.055  0.00  0.00    +0.000 A 
ENDROOT
BRANCH   6  13
ATOM     13  O   UNL     1       2.246   7.355  19.815  0.00  0.00    +0.000 OA
BRANCH  13  14
ATOM     14  C   UNL     1       1.521   7.756  20.972  0.00  0.00    +0.000 C 
BRANCH  14  15
ATOM     15  C   UNL     1       1.154   9.237  20.937  0.00  0.00    +0.000 C 
ATOM     16  O   UNL     1       1.133   9.905  21.967  0.00  0.00    +0.000 OA
ATOM     17  N   UNL     1       0.874   9.709  19.672  0.00  0.00    +0.000 N 
ATOM     18  C   UNL     1       0.456  11.014  19.419  0.00  0.00    +0.000 A 
ATOM     19  C   UNL     1       1.048  12.108  20.040  0.00  0.00    +0.000 A 
ATOM     20  C   UNL     1       0.542  13.378  19.778  0.00  0.00    +0.000 A 
ATOM     21  C   UNL     1      -0.551  13.507  18.933  0.00  0.00    +0.000 A 
ATOM     22  C   UNL     1      -1.058  12.363  18.339  0.00  0.00    +0.000 A 
ATOM     23  N   UNL     1      -0.550  11.125  18.529  0.00  0.00    +0.000 NA
ATOM     24  H   UNL     1       0.528   9.027  19.009  0.00  0.00    +0.000 HD
ENDBRANCH  14  15
ENDBRANCH  13  14
ENDBRANCH   6  13
TORSDOF 3
ENDMDL
MODEL 9
REMARK VINA RESULT:      -7.6      2.396      8.484
REMARK  Name = 
REMARK  4 active torsions:
REMARK  status: ('A' for Active; 'I' for Inactive)
REMARK    1  A    between atoms: C_1  and  N_2
REMARK    2  A    between atoms: C_6  and  O_7
REMARK    3  A    between atoms: O_7  and  C_8
REMARK    4  A    between atoms: C_8  and  C_9
REMARK                            x       y       z     vdW  Elec       q    Type
REMARK                         _______ _______ _______ _____ _____    ______ ____
ROOT
ATOM      1  C   UNL     1      -1.276  11.430  22.992  0.00  0.00    +0.000 C 
ATOM      2  N   UNL     1      -0.481  10.601  22.097  0.00  0.00    +0.000 N 
ATOM      3  C   UNL     1       0.419   9.709  22.661  0.00  0.00    +0.000 A 
ATOM      4  O   UNL     1       0.597   9.564  23.873  0.00  0.00    +0.000 OA
ATOM      5  C   UNL     1       1.217   8.872  21.741  0.00  0.00    +0.000 A 
ATOM      6  C   UNL     1       1.096   8.951  20.410  0.00  0.00    +0.000 A 
ATOM      7  C   UNL     1       0.140   9.914  19.834  0.00  0.00    +0.000 A 
ATOM      8  C   UNL     1      -0.019  10.039  18.439  0.00  0.00    +0.000 A 
ATOM      9  C   UNL     1      -0.921  10.952  17.896  0.00  0.00    +0.000 A 
ATOM     10  C   UNL     1      -1.678  11.756  18.736  0.00  0.00    +0.000 A 
ATOM     11  C   UNL     1      -1.535  11.647  20.123  0.00  0.00    +0.000 A 
ATOM     12  C   UNL     1      -0.630  10.728  20.686  0.00  0.00    +0.000 A 
ENDROOT
BRANCH   6  13
ATOM     13  O   UNL     1       1.793   8.203  19.482  0.00  0.00    +0.000 OA
BRANCH  13  14
ATOM     14  C   UNL     1       2.168   6.881  19.852  0.00  0.00    +0.000 C 
BRANCH  14  15
ATOM     15  C   UNL     1       2.899   6.155  18.725  0.00  0.00    +0.000 C 
ATOM     16  O   UNL     1       2.284   5.453  17.926  0.00  0.00    +0.000 OA
ATOM     17  N   UNL     1       4.259   6.379  18.711  0.00  0.00    +0.000 N 
ATOM     18  C   UNL     1       5.125   5.765  17.808  0.00  0.00    +0.000 A 
ATOM     19  C   UNL     1       4.812   5.639  16.460  0.00  0.00    +0.000 A 
ATOM     20  C   UNL     1       5.702   4.968  15.628  0.00  0.00    +0.000 A 
ATOM     21  C   UNL     1       6.854   4.419  16.175  0.00  0.00    +0.000 A 
ATOM     22  C   UNL     1       7.095   4.618  17.525  0.00  0.00    +0.000 A 
ATOM     23  N   UNL     1       6.277   5.316  18.344  0.00  0.00    +0.000 NA
ATOM     24  H   UNL     1       4.682   6.606  19.602  0.00  0.00    +0.000 HD
ENDBRANCH  14  15
ENDBRANCH  13  14
ENDBRANCH   6  13
TORSDOF 3
ENDMDL
