MODEL 1
REMARK VINA RESULT:      -7.9      0.000      0.000
REMARK  Name = 
REMARK  10 active torsions:
REMARK  status: ('A' for Active; 'I' for Inactive)
REMARK    1  A    between atoms: C_1  and  C_2
REMARK    2  A    between atoms: C_5  and  C_6
REMARK    3  A    between atoms: C_9  and  S_10
REMARK    4  A    between atoms: S_10  and  C_11
REMARK    5  A    between atoms: C_11  and  C_12
REMARK    6  A    between atoms: C_12  and  C_14
REMARK    7  A    between atoms: C_17  and  O_18
REMARK    8  A    between atoms: C_19  and  O_20
REMARK    9  A    between atoms: N_22  and  C_23
REMARK   10  A    between atoms: C_26  and  C_27
REMARK                            x       y       z     vdW  Elec       q    Type
REMARK                         _______ _______ _______ _____ _____    ______ ____
ROOT
ATOM      1  C   UNL     1      -0.601  11.326  21.123  0.00  0.00    +0.000 A 
ATOM      2  N   UNL     1       0.487  11.034  21.816  0.00  0.00    +0.000 NA
ATOM      3  N   UNL     1       1.367  10.364  21.007  0.00  0.00    +0.000 NA
ATOM      4  C   UNL     1       0.810  10.230  19.827  0.00  0.00    +0.000 A 
ATOM      5  N   UNL     1      -0.474  10.769  19.835  0.00  0.00    +0.000 N 
ENDROOT
BRANCH   1  10
ATOM      6  C   UNL     1      -4.508  14.876  23.497  0.00  0.00    +0.000 C 
ATOM      7  C   UNL     1      -3.620  13.868  22.830  0.00  0.00    +0.000 A 
ATOM      8  C   UNL     1      -3.221  12.712  23.502  0.00  0.00    +0.000 A 
ATOM      9  C   UNL     1      -2.341  11.807  22.896  0.00  0.00    +0.000 A 
ATOM     10  C   UNL     1      -1.752  12.094  21.654  0.00  0.00    +0.000 A 
ATOM     11  C   UNL     1      -2.244  13.192  20.939  0.00  0.00    +0.000 A 
ATOM     12  C   UNL     1      -3.171  14.069  21.520  0.00  0.00    +0.000 A 
ENDBRANCH   1  10
BRANCH   5  13
ATOM     13  C   UNL     1      -1.454  10.773  18.796  0.00  0.00    +0.000 A 
ATOM     14  C   UNL     1      -1.449  11.791  17.830  0.00  0.00    +0.000 A 
ATOM     15  C   UNL     1      -2.213  11.672  16.668  0.00  0.00    +0.000 A 
ATOM     16  C   UNL     1      -3.063  10.580  16.493  0.00  0.00    +0.000 A 
ATOM     17  C   UNL     1      -3.843  10.406  15.223  0.00  0.00    +0.000 C 
ATOM     18  C   UNL     1      -3.157   9.623  17.510  0.00  0.00    +0.000 A 
ATOM     19  C   UNL     1      -2.349   9.707  18.648  0.00  0.00    +0.000 A 
ENDBRANCH   5  13
BRANCH   4  20
ATOM     20  S   UNL     1       1.520   9.374  18.491  0.00  0.00    +0.000 S 
BRANCH  20  21
ATOM     21  C   UNL     1       2.020   7.786  19.221  0.00  0.00    +0.000 C 
BRANCH  21  22
ATOM     22  C   UNL     1       2.981   7.029  18.294  0.00  0.00    +0.000 C 
ATOM     23  O   UNL     1       3.750   7.589  17.515  0.00  0.00    +0.000 OA
BRANCH  22  24
ATOM     24  C   UNL     1       3.013   5.535  18.358  0.00  0.00    +0.000 A 
ATOM     25  C   UNL     1       1.892   4.817  17.880  0.00  0.00    +0.000 A 
ATOM     26  C   UNL     1       1.863   3.415  17.916  0.00  0.00    +0.000 A 
ATOM     27  C   UNL     1       2.953   2.735  18.433  0.00  0.00    +0.000 A 
ATOM     28  C   UNL     1       4.058   3.438  18.908  0.00  0.00    +0.000 A 
ATOM     29  C   UNL     1       4.102   4.830  18.871  0.00  0.00    +0.000 A 
BRANCH  27  30
ATOM     30  O   UNL     1       2.995   1.370  18.501  0.00  0.00    +0.000 OA
ATOM     31  H   UNL     1       2.169   1.056  18.906  0.00  0.00    +0.000 HD
ENDBRANCH  27  30
BRANCH  28  32
ATOM     32  O   UNL     1       5.126   2.761  19.424  0.00  0.00    +0.000 OA
ATOM     33  H   UNL     1       4.928   1.818  19.256  0.00  0.00    +0.000 HD
ENDBRANCH  28  32
ENDBRANCH  22  24
ENDBRANCH  21  22
ENDBRANCH  20  21
ENDBRANCH   4  20
TORSDOF 8
ENDMDL
MODEL 2
REMARK VINA RESULT:      -7.8      2.242      2.825
REMARK  Name = 
REMARK  10 active torsions:
REMARK  status: ('A' for Active; 'I' for Inactive)
REMARK    1  A    between atoms: C_1  and  C_2
REMARK    2  A    between atoms: C_5  and  C_6
REMARK    3  A    between atoms: C_9  and  S_10
REMARK    4  A    between atoms: S_10  and  C_11
REMARK    5  A    between atoms: C_11  and  C_12
REMARK    6  A    between atoms: C_12  and  C_14
REMARK    7  A    between atoms: C_17  and  O_18
REMARK    8  A    between atoms: C_19  and  O_20
REMARK    9  A    between atoms: N_22  and  C_23
REMARK   10  A    between atoms: C_26  and  C_27
REMARK                            x       y       z     vdW  Elec       q    Type
REMARK                         _______ _______ _______ _____ _____    ______ ____
ROOT
ATOM      1  C   UNL     1      -0.387  12.575  20.818  0.00  0.00    +0.000 A 
ATOM      2  N   UNL     1       0.236  12.461  21.979  0.00  0.00    +0.000 NA
ATOM      3  N   UNL     1       0.395  11.132  22.274  0.00  0.00    +0.000 NA
ATOM      4  C   UNL     1      -0.149  10.435  21.305  0.00  0.00    +0.000 A 
ATOM      5  N   UNL     1      -0.722  11.285  20.362  0.00  0.00    +0.000 N 
ENDROOT
BRANCH   1  10
ATOM      6  C   UNL     1      -0.892  17.921  18.655  0.00  0.00    +0.000 C 
ATOM      7  C   UNL     1      -0.885  16.495  19.122  0.00  0.00    +0.000 A 
ATOM      8  C   UNL     1      -1.698  16.085  20.180  0.00  0.00    +0.000 A 
ATOM      9  C   UNL     1      -1.639  14.767  20.650  0.00  0.00    +0.000 A 
ATOM     10  C   UNL     1      -0.687  13.864  20.150  0.00  0.00    +0.000 A 
ATOM     11  C   UNL     1       0.039  14.245  19.017  0.00  0.00    +0.000 A 
ATOM     12  C   UNL     1      -0.060  15.547  18.506  0.00  0.00    +0.000 A 
ENDBRANCH   1  10
BRANCH   5  13
ATOM     13  C   UNL     1      -1.477  10.954  19.195  0.00  0.00    +0.000 A 
ATOM     14  C   UNL     1      -2.726  11.556  18.973  0.00  0.00    +0.000 A 
ATOM     15  C   UNL     1      -3.351  11.458  17.729  0.00  0.00    +0.000 A 
ATOM     16  C   UNL     1      -2.785  10.683  16.716  0.00  0.00    +0.000 A 
ATOM     17  C   UNL     1      -3.412  10.617  15.355  0.00  0.00    +0.000 C 
ATOM     18  C   UNL     1      -1.599   9.986  16.976  0.00  0.00    +0.000 A 
ATOM     19  C   UNL     1      -0.939  10.130  18.200  0.00  0.00    +0.000 A 
ENDBRANCH   5  13
BRANCH   4  20
ATOM     20  S   UNL     1      -0.263   8.700  21.279  0.00  0.00    +0.000 S 
BRANCH  20  21
ATOM     21  C   UNL     1       1.473   8.161  21.255  0.00  0.00    +0.000 C 
BRANCH  21  22
ATOM     22  C   UNL     1       1.869   7.631  19.870  0.00  0.00    +0.000 C 
ATOM     23  O   UNL     1       2.182   8.361  18.932  0.00  0.00    +0.000 OA
BRANCH  22  24
ATOM     24  C   UNL     1       1.910   6.152  19.653  0.00  0.00    +0.000 A 
ATOM     25  C   UNL     1       2.514   5.662  18.472  0.00  0.00    +0.000 A 
ATOM     26  C   UNL     1       2.582   4.286  18.212  0.00  0.00    +0.000 A 
ATOM     27  C   UNL     1       2.042   3.403  19.132  0.00  0.00    +0.000 A 
ATOM     28  C   UNL     1       1.443   3.880  20.295  0.00  0.00    +0.000 A 
ATOM     29  C   UNL     1       1.376   5.244  20.568  0.00  0.00    +0.000 A 
BRANCH  27  30
ATOM     30  O   UNL     1       2.070   2.048  18.945  0.00  0.00    +0.000 OA
ATOM     31  H   UNL     1       2.162   1.870  17.994  0.00  0.00    +0.000 HD
ENDBRANCH  27  30
BRANCH  28  32
ATOM     32  O   UNL     1       0.905   3.004  21.193  0.00  0.00    +0.000 OA
ATOM     33  H   UNL     1       0.585   3.564  21.928  0.00  0.00    +0.000 HD
ENDBRANCH  28  32
ENDBRANCH  22  24
ENDBRANCH  21  22
ENDBRANCH  20  21
ENDBRANCH   4  20
TORSDOF 8
ENDMDL
MODEL 3
REMARK VINA RESULT:      -7.8      1.085      1.245
REMARK  Name = 
REMARK  10 active torsions:
REMARK  status: ('A' for Active; 'I' for Inactive)
REMARK    1  A    between atoms: C_1  and  C_2
REMARK    2  A    between atoms: C_5  and  C_6
REMARK    3  A    between atoms: C_9  and  S_10
REMARK    4  A    between atoms: S_10  and  C_11
REMARK    5  A    between atoms: C_11  and  C_12
REMARK    6  A    between atoms: C_12  and  C_14
REMARK    7  A    between atoms: C_17  and  O_18
REMARK    8  A    between atoms: C_19  and  O_20
REMARK    9  A    between atoms: N_22  and  C_23
REMARK   10  A    between atoms: C_26  and  C_27
REMARK                            x       y       z     vdW  Elec       q    Type
REMARK                         _______ _______ _______ _____ _____    ______ ____
ROOT
ATOM      1  C   UNL     1      -0.661  11.781  20.973  0.00  0.00    +0.000 A 
ATOM      2  N   UNL     1       0.400  11.578  21.738  0.00  0.00    +0.000 NA
ATOM      3  N   UNL     1       1.309  10.818  21.048  0.00  0.00    +0.000 NA
ATOM      4  C   UNL     1       0.796  10.542  19.872  0.00  0.00    +0.000 A 
ATOM      5  N   UNL     1      -0.486  11.074  19.768  0.00  0.00    +0.000 N 
ENDROOT
BRANCH   1  10
ATOM      6  C   UNL     1      -4.684  15.397  23.034  0.00  0.00    +0.000 C 
ATOM      7  C   UNL     1      -3.756  14.400  22.405  0.00  0.00    +0.000 A 
ATOM      8  C   UNL     1      -3.655  13.102  22.906  0.00  0.00    +0.000 A 
ATOM      9  C   UNL     1      -2.741  12.197  22.353  0.00  0.00    +0.000 A 
ATOM     10  C   UNL     1      -1.830  12.604  21.365  0.00  0.00    +0.000 A 
ATOM     11  C   UNL     1      -2.016  13.866  20.790  0.00  0.00    +0.000 A 
ATOM     12  C   UNL     1      -2.971  14.755  21.302  0.00  0.00    +0.000 A 
ENDBRANCH   1  10
BRANCH   5  13
ATOM     13  C   UNL     1      -1.427  10.950  18.700  0.00  0.00    +0.000 A 
ATOM     14  C   UNL     1      -1.506  11.947  17.715  0.00  0.00    +0.000 A 
ATOM     15  C   UNL     1      -2.215  11.724  16.533  0.00  0.00    +0.000 A 
ATOM     16  C   UNL     1      -2.929  10.539  16.353  0.00  0.00    +0.000 A 
ATOM     17  C   UNL     1      -3.643  10.258  15.064  0.00  0.00    +0.000 C 
ATOM     18  C   UNL     1      -2.946   9.594  17.385  0.00  0.00    +0.000 A 
ATOM     19  C   UNL     1      -2.190   9.787  18.545  0.00  0.00    +0.000 A 
ENDBRANCH   5  13
BRANCH   4  20
ATOM     20  S   UNL     1       1.555   9.533  18.677  0.00  0.00    +0.000 S 
BRANCH  20  21
ATOM     21  C   UNL     1       1.859   7.977  19.565  0.00  0.00    +0.000 C 
BRANCH  21  22
ATOM     22  C   UNL     1       2.629   6.980  18.687  0.00  0.00    +0.000 C 
ATOM     23  O   UNL     1       3.541   7.310  17.931  0.00  0.00    +0.000 OA
BRANCH  22  24
ATOM     24  C   UNL     1       2.281   5.529  18.774  0.00  0.00    +0.000 A 
ATOM     25  C   UNL     1       2.543   4.705  17.655  0.00  0.00    +0.000 A 
ATOM     26  C   UNL     1       2.237   3.337  17.676  0.00  0.00    +0.000 A 
ATOM     27  C   UNL     1       1.666   2.796  18.816  0.00  0.00    +0.000 A 
ATOM     28  C   UNL     1       1.402   3.603  19.919  0.00  0.00    +0.000 A 
ATOM     29  C   UNL     1       1.709   4.961  19.913  0.00  0.00    +0.000 A 
BRANCH  27  30
ATOM     30  O   UNL     1       1.340   1.471  18.909  0.00  0.00    +0.000 OA
ATOM     31  H   UNL     1       1.993   0.956  18.405  0.00  0.00    +0.000 HD
ENDBRANCH  27  30
BRANCH  28  32
ATOM     32  O   UNL     1       0.831   3.064  21.036  0.00  0.00    +0.000 OA
ATOM     33  H   UNL     1      -0.131   3.182  20.907  0.00  0.00    +0.000 HD
ENDBRANCH  28  32
ENDBRANCH  22  24
ENDBRANCH  21  22
ENDBRANCH  20  21
ENDBRANCH   4  20
TORSDOF 8
ENDMDL
MODEL 4
REMARK VINA RESULT:      -7.7      4.780      8.569
REMARK  Name = 
REMARK  10 active torsions:
REMARK  status: ('A' for Active; 'I' for Inactive)
REMARK    1  A    between atoms: C_1  and  C_2
REMARK    2  A    between atoms: C_5  and  C_6
REMARK    3  A    between atoms: C_9  and  S_10
REMARK    4  A    between atoms: S_10  and  C_11
REMARK    5  A    between atoms: C_11  and  C_12
REMARK    6  A    between atoms: C_12  and  C_14
REMARK    7  A    between atoms: C_17  and  O_18
REMARK    8  A    between atoms: C_19  and  O_20
REMARK    9  A    between atoms: N_22  and  C_23
REMARK   10  A    between atoms: C_26  and  C_27
REMARK                            x       y       z     vdW  Elec       q    Type
REMARK                         _______ _______ _______ _____ _____    ______ ____
ROOT
ATOM      1  C   UNL     1      -0.167  10.351  21.453  0.00  0.00    +0.000 A 
ATOM      2  N   UNL     1      -0.859   9.845  22.461  0.00  0.00    +0.000 NA
ATOM      3  N   UNL     1      -1.399  10.871  23.192  0.00  0.00    +0.000 NA
ATOM      4  C   UNL     1      -1.021  12.001  22.644  0.00  0.00    +0.000 A 
ATOM      5  N   UNL     1      -0.184  11.755  21.559  0.00  0.00    +0.000 N 
ENDROOT
BRANCH   1  10
ATOM      6  C   UNL     1       3.214   7.627  17.624  0.00  0.00    +0.000 C 
ATOM      7  C   UNL     1       2.218   8.239  18.565  0.00  0.00    +0.000 A 
ATOM      8  C   UNL     1       1.407   9.299  18.157  0.00  0.00    +0.000 A 
ATOM      9  C   UNL     1       0.526   9.905  19.061  0.00  0.00    +0.000 A 
ATOM     10  C   UNL     1       0.517   9.541  20.417  0.00  0.00    +0.000 A 
ATOM     11  C   UNL     1       1.244   8.406  20.790  0.00  0.00    +0.000 A 
ATOM     12  C   UNL     1       2.085   7.759  19.873  0.00  0.00    +0.000 A 
ENDBRANCH   1  10
BRANCH   5  13
ATOM     13  C   UNL     1       0.510  12.689  20.729  0.00  0.00    +0.000 A 
ATOM     14  C   UNL     1       1.886  12.900  20.909  0.00  0.00    +0.000 A 
ATOM     15  C   UNL     1       2.629  13.593  19.951  0.00  0.00    +0.000 A 
ATOM     16  C   UNL     1       1.997  14.163  18.846  0.00  0.00    +0.000 A 
ATOM     17  C   UNL     1       2.789  14.856  17.778  0.00  0.00    +0.000 C 
ATOM     18  C   UNL     1       0.607  14.053  18.728  0.00  0.00    +0.000 A 
ATOM     19  C   UNL     1      -0.133  13.309  19.653  0.00  0.00    +0.000 A 
ENDBRANCH   5  13
BRANCH   4  20
ATOM     20  S   UNL     1      -1.398  13.578  23.272  0.00  0.00    +0.000 S 
BRANCH  20  21
ATOM     21  C   UNL     1      -2.838  14.094  22.290  0.00  0.00    +0.000 C 
BRANCH  21  22
ATOM     22  C   UNL     1      -3.936  13.022  22.313  0.00  0.00    +0.000 C 
ATOM     23  O   UNL     1      -4.401  12.554  23.351  0.00  0.00    +0.000 OA
BRANCH  22  24
ATOM     24  C   UNL     1      -4.498  12.542  21.014  0.00  0.00    +0.000 A 
ATOM     25  C   UNL     1      -3.622  12.399  19.913  0.00  0.00    +0.000 A 
ATOM     26  C   UNL     1      -4.090  11.954  18.668  0.00  0.00    +0.000 A 
ATOM     27  C   UNL     1      -5.435  11.656  18.527  0.00  0.00    +0.000 A 
ATOM     28  C   UNL     1      -6.303  11.798  19.607  0.00  0.00    +0.000 A 
ATOM     29  C   UNL     1      -5.849  12.231  20.849  0.00  0.00    +0.000 A 
BRANCH  27  30
ATOM     30  O   UNL     1      -5.964  11.218  17.343  0.00  0.00    +0.000 OA
ATOM     31  H   UNL     1      -6.071  11.983  16.753  0.00  0.00    +0.000 HD
ENDBRANCH  27  30
BRANCH  28  32
ATOM     32  O   UNL     1      -7.629  11.509  19.457  0.00  0.00    +0.000 OA
ATOM     33  H   UNL     1      -8.097  12.276  19.845  0.00  0.00    +0.000 HD
ENDBRANCH  28  32
ENDBRANCH  22  24
ENDBRANCH  21  22
ENDBRANCH  20  21
ENDBRANCH   4  20
TORSDOF 8
ENDMDL
MODEL 5
REMARK VINA RESULT:      -7.6      1.120      1.539
REMARK  Name = 
REMARK  10 active torsions:
REMARK  status: ('A' for Active; 'I' for Inactive)
REMARK    1  A    between atoms: C_1  and  C_2
REMARK    2  A    between atoms: C_5  and  C_6
REMARK    3  A    between atoms: C_9  and  S_10
REMARK    4  A    between atoms: S_10  and  C_11
REMARK    5  A    between atoms: C_11  and  C_12
REMARK    6  A    between atoms: C_12  and  C_14
REMARK    7  A    between atoms: C_17  and  O_18
REMARK    8  A    between atoms: C_19  and  O_20
REMARK    9  A    between atoms: N_22  and  C_23
REMARK   10  A    between atoms: C_26  and  C_27
REMARK                            x       y       z     vdW  Elec       q    Type
REMARK                         _______ _______ _______ _____ _____    ______ ____
ROOT
ATOM      1  C   UNL     1      -0.783  11.775  21.135  0.00  0.00    +0.000 A 
ATOM      2  N   UNL     1       0.273  11.572  21.905  0.00  0.00    +0.000 NA
ATOM      3  N   UNL     1       1.196  10.832  21.213  0.00  0.00    +0.000 NA
ATOM      4  C   UNL     1       0.697  10.567  20.029  0.00  0.00    +0.000 A 
ATOM      5  N   UNL     1      -0.590  11.087  19.921  0.00  0.00    +0.000 N 
ENDROOT
BRANCH   1  10
ATOM      6  C   UNL     1      -5.851  14.365  22.192  0.00  0.00    +0.000 C 
ATOM      7  C   UNL     1      -4.471  13.804  22.013  0.00  0.00    +0.000 A 
ATOM      8  C   UNL     1      -3.618  14.304  21.028  0.00  0.00    +0.000 A 
ATOM      9  C   UNL     1      -2.355  13.733  20.827  0.00  0.00    +0.000 A 
ATOM     10  C   UNL     1      -1.964  12.580  21.527  0.00  0.00    +0.000 A 
ATOM     11  C   UNL     1      -2.772  12.158  22.588  0.00  0.00    +0.000 A 
ATOM     12  C   UNL     1      -4.012  12.765  22.831  0.00  0.00    +0.000 A 
ENDBRANCH   1  10
BRANCH   5  13
ATOM     13  C   UNL     1      -1.520  10.967  18.843  0.00  0.00    +0.000 A 
ATOM     14  C   UNL     1      -1.526  11.921  17.813  0.00  0.00    +0.000 A 
ATOM     15  C   UNL     1      -2.228  11.685  16.629  0.00  0.00    +0.000 A 
ATOM     16  C   UNL     1      -3.007  10.536  16.491  0.00  0.00    +0.000 A 
ATOM     17  C   UNL     1      -3.716  10.237  15.203  0.00  0.00    +0.000 C 
ATOM     18  C   UNL     1      -3.095   9.641  17.564  0.00  0.00    +0.000 A 
ATOM     19  C   UNL     1      -2.346   9.844  18.727  0.00  0.00    +0.000 A 
ENDBRANCH   5  13
BRANCH   4  20
ATOM     20  S   UNL     1       1.477   9.583  18.827  0.00  0.00    +0.000 S 
BRANCH  20  21
ATOM     21  C   UNL     1       1.868   8.049  19.720  0.00  0.00    +0.000 C 
BRANCH  21  22
ATOM     22  C   UNL     1       2.617   7.058  18.818  0.00  0.00    +0.000 C 
ATOM     23  O   UNL     1       3.521   7.392  18.053  0.00  0.00    +0.000 OA
BRANCH  22  24
ATOM     24  C   UNL     1       2.257   5.609  18.890  0.00  0.00    +0.000 A 
ATOM     25  C   UNL     1       1.692   5.114  20.087  0.00  0.00    +0.000 A 
ATOM     26  C   UNL     1       1.336   3.764  20.216  0.00  0.00    +0.000 A 
ATOM     27  C   UNL     1       1.549   2.911  19.146  0.00  0.00    +0.000 A 
ATOM     28  C   UNL     1       2.109   3.392  17.965  0.00  0.00    +0.000 A 
ATOM     29  C   UNL     1       2.460   4.732  17.823  0.00  0.00    +0.000 A 
BRANCH  27  30
ATOM     30  O   UNL     1       1.228   1.582  19.198  0.00  0.00    +0.000 OA
ATOM     31  H   UNL     1       0.438   1.478  19.756  0.00  0.00    +0.000 HD
ENDBRANCH  27  30
BRANCH  28  32
ATOM     32  O   UNL     1       2.324   2.543  16.918  0.00  0.00    +0.000 OA
ATOM     33  H   UNL     1       1.897   2.977  16.152  0.00  0.00    +0.000 HD
ENDBRANCH  28  32
ENDBRANCH  22  24
ENDBRANCH  21  22
ENDBRANCH  20  21
ENDBRANCH   4  20
TORSDOF 8
ENDMDL
MODEL 6
REMARK VINA RESULT:      -7.6      0.602      1.352
REMARK  Name = 
REMARK  10 active torsions:
REMARK  status: ('A' for Active; 'I' for Inactive)
REMARK    1  A    between atoms: C_1  and  C_2
REMARK    2  A    between atoms: C_5  and  C_6
REMARK    3  A    between atoms: C_9  and  S_10
REMARK    4  A    between atoms: S_10  and  C_11
REMARK    5  A    between atoms: C_11  and  C_12
REMARK    6  A    between atoms: C_12  and  C_14
REMARK    7  A    between atoms: C_17  and  O_18
REMARK    8  A    between atoms: C_19  and  O_20
REMARK    9  A    between atoms: N_22  and  C_23
REMARK   10  A    between atoms: C_26  and  C_27
REMARK                            x       y       z     vdW  Elec       q    Type
REMARK                         _______ _______ _______ _____ _____    ______ ____
ROOT
ATOM      1  C   UNL     1      -0.480  11.036  21.183  0.00  0.00    +0.000 A 
ATOM      2  N   UNL     1       0.567  10.684  21.912  0.00  0.00    +0.000 NA
ATOM      3  N   UNL     1       1.470  10.033  21.112  0.00  0.00    +0.000 NA
ATOM      4  C   UNL     1       0.968   9.970  19.902  0.00  0.00    +0.000 A 
ATOM      5  N   UNL     1      -0.302  10.539  19.877  0.00  0.00    +0.000 N 
ENDROOT
BRANCH   1  10
ATOM      6  C   UNL     1      -5.459  13.327  23.045  0.00  0.00    +0.000 C 
ATOM      7  C   UNL     1      -4.100  12.874  22.599  0.00  0.00    +0.000 A 
ATOM      8  C   UNL     1      -3.653  13.124  21.301  0.00  0.00    +0.000 A 
ATOM      9  C   UNL     1      -2.410  12.642  20.874  0.00  0.00    +0.000 A 
ATOM     10  C   UNL     1      -1.638  11.805  21.696  0.00  0.00    +0.000 A 
ATOM     11  C   UNL     1      -2.036  11.657  23.028  0.00  0.00    +0.000 A 
ATOM     12  C   UNL     1      -3.254  12.187  23.477  0.00  0.00    +0.000 A 
ENDBRANCH   1  10
BRANCH   5  13
ATOM     13  C   UNL     1      -1.231  10.616  18.794  0.00  0.00    +0.000 A 
ATOM     14  C   UNL     1      -2.236   9.645  18.660  0.00  0.00    +0.000 A 
ATOM     15  C   UNL     1      -3.304   9.843  17.783  0.00  0.00    +0.000 A 
ATOM     16  C   UNL     1      -3.339  10.969  16.961  0.00  0.00    +0.000 A 
ATOM     17  C   UNL     1      -4.510  11.228  16.059  0.00  0.00    +0.000 C 
ATOM     18  C   UNL     1      -2.277  11.879  17.009  0.00  0.00    +0.000 A 
ATOM     19  C   UNL     1      -1.236  11.716  17.928  0.00  0.00    +0.000 A 
ENDBRANCH   5  13
BRANCH   4  20
ATOM     20  S   UNL     1       1.723   9.162  18.561  0.00  0.00    +0.000 S 
BRANCH  20  21
ATOM     21  C   UNL     1       2.156   7.531  19.236  0.00  0.00    +0.000 C 
BRANCH  21  22
ATOM     22  C   UNL     1       3.123   6.785  18.305  0.00  0.00    +0.000 C 
ATOM     23  O   UNL     1       3.886   7.356  17.527  0.00  0.00    +0.000 OA
BRANCH  22  24
ATOM     24  C   UNL     1       3.168   5.292  18.364  0.00  0.00    +0.000 A 
ATOM     25  C   UNL     1       2.119   4.562  17.760  0.00  0.00    +0.000 A 
ATOM     26  C   UNL     1       2.106   3.160  17.784  0.00  0.00    +0.000 A 
ATOM     27  C   UNL     1       3.141   2.491  18.416  0.00  0.00    +0.000 A 
ATOM     28  C   UNL     1       4.175   3.206  19.016  0.00  0.00    +0.000 A 
ATOM     29  C   UNL     1       4.204   4.598  18.992  0.00  0.00    +0.000 A 
BRANCH  27  30
ATOM     30  O   UNL     1       3.195   1.126  18.481  0.00  0.00    +0.000 OA
ATOM     31  H   UNL     1       4.128   0.853  18.462  0.00  0.00    +0.000 HD
ENDBRANCH  27  30
BRANCH  28  32
ATOM     32  O   UNL     1       5.188   2.540  19.644  0.00  0.00    +0.000 OA
ATOM     33  H   UNL     1       4.933   1.597  19.599  0.00  0.00    +0.000 HD
ENDBRANCH  28  32
ENDBRANCH  22  24
ENDBRANCH  21  22
ENDBRANCH  20  21
ENDBRANCH   4  20
TORSDOF 8
ENDMDL
MODEL 7
REMARK VINA RESULT:      -7.6      4.880      9.234
REMARK  Name = 
REMARK  10 active torsions:
REMARK  status: ('A' for Active; 'I' for Inactive)
REMARK    1  A    between atoms: C_1  and  C_2
REMARK    2  A    between atoms: C_5  and  C_6
REMARK    3  A    between atoms: C_9  and  S_10
REMARK    4  A    between atoms: S_10  and  C_11
REMARK    5  A    between atoms: C_11  and  C_12
REMARK    6  A    between atoms: C_12  and  C_14
REMARK    7  A    between atoms: C_17  and  O_18
REMARK    8  A    between atoms: C_19  and  O_20
REMARK    9  A    between atoms: N_22  and  C_23
REMARK   10  A    between atoms: C_26  and  C_27
REMARK                            x       y       z     vdW  Elec       q    Type
REMARK                         _______ _______ _______ _____ _____    ______ ____
ROOT
ATOM      1  C   UNL     1       0.389  10.249  20.661  0.00  0.00    +0.000 A 
ATOM      2  N   UNL     1       0.804  10.617  21.862  0.00  0.00    +0.000 NA
ATOM      3  N   UNL     1      -0.092  11.510  22.391  0.00  0.00    +0.000 NA
ATOM      4  C   UNL     1      -1.041  11.703  21.506  0.00  0.00    +0.000 A 
ATOM      5  N   UNL     1      -0.777  10.976  20.349  0.00  0.00    +0.000 N 
ENDROOT
BRANCH   1  10
ATOM      6  C   UNL     1       3.800   6.673  17.648  0.00  0.00    +0.000 C 
ATOM      7  C   UNL     1       2.791   7.525  18.360  0.00  0.00    +0.000 A 
ATOM      8  C   UNL     1       2.284   8.680  17.764  0.00  0.00    +0.000 A 
ATOM      9  C   UNL     1       1.391   9.504  18.461  0.00  0.00    +0.000 A 
ATOM     10  C   UNL     1       1.076   9.252  19.806  0.00  0.00    +0.000 A 
ATOM     11  C   UNL     1       1.494   8.036  20.355  0.00  0.00    +0.000 A 
ATOM     12  C   UNL     1       2.342   7.178  19.639  0.00  0.00    +0.000 A 
ENDBRANCH   1  10
BRANCH   5  13
ATOM     13  C   UNL     1      -1.502  10.951  19.118  0.00  0.00    +0.000 A 
ATOM     14  C   UNL     1      -1.344  11.993  18.190  0.00  0.00    +0.000 A 
ATOM     15  C   UNL     1      -1.824  11.862  16.886  0.00  0.00    +0.000 A 
ATOM     16  C   UNL     1      -2.547  10.729  16.512  0.00  0.00    +0.000 A 
ATOM     17  C   UNL     1      -3.016  10.545  15.099  0.00  0.00    +0.000 C 
ATOM     18  C   UNL     1      -2.807   9.743  17.471  0.00  0.00    +0.000 A 
ATOM     19  C   UNL     1      -2.277   9.843  18.761  0.00  0.00    +0.000 A 
ENDBRANCH   5  13
BRANCH   4  20
ATOM     20  S   UNL     1      -2.360  12.819  21.701  0.00  0.00    +0.000 S 
BRANCH  20  21
ATOM     21  C   UNL     1      -1.656  14.131  22.743  0.00  0.00    +0.000 C 
BRANCH  21  22
ATOM     22  C   UNL     1      -2.482  14.325  24.022  0.00  0.00    +0.000 C 
ATOM     23  O   UNL     1      -2.034  14.844  25.043  0.00  0.00    +0.000 OA
BRANCH  22  24
ATOM     24  C   UNL     1      -3.913  13.894  24.025  0.00  0.00    +0.000 A 
ATOM     25  C   UNL     1      -4.243  12.655  24.622  0.00  0.00    +0.000 A 
ATOM     26  C   UNL     1      -5.568  12.197  24.653  0.00  0.00    +0.000 A 
ATOM     27  C   UNL     1      -6.560  12.978  24.085  0.00  0.00    +0.000 A 
ATOM     28  C   UNL     1      -6.241  14.197  23.493  0.00  0.00    +0.000 A 
ATOM     29  C   UNL     1      -4.930  14.667  23.461  0.00  0.00    +0.000 A 
BRANCH  27  30
ATOM     30  O   UNL     1      -7.873  12.596  24.077  0.00  0.00    +0.000 OA
ATOM     31  H   UNL     1      -8.008  11.942  24.784  0.00  0.00    +0.000 HD
ENDBRANCH  27  30
BRANCH  28  32
ATOM     32  O   UNL     1      -7.224  14.958  22.926  0.00  0.00    +0.000 OA
ATOM     33  H   UNL     1      -7.965  14.337  22.778  0.00  0.00    +0.000 HD
ENDBRANCH  28  32
ENDBRANCH  22  24
ENDBRANCH  21  22
ENDBRANCH  20  21
ENDBRANCH   4  20
TORSDOF 8
ENDMDL
MODEL 8
REMARK VINA RESULT:      -7.6      2.681      3.993
REMARK  Name = 
REMARK  10 active torsions:
REMARK  status: ('A' for Active; 'I' for Inactive)
REMARK    1  A    between atoms: C_1  and  C_2
REMARK    2  A    between atoms: C_5  and  C_6
REMARK    3  A    between atoms: C_9  and  S_10
REMARK    4  A    between atoms: S_10  and  C_11
REMARK    5  A    between atoms: C_11  and  C_12
REMARK    6  A    between atoms: C_12  and  C_14
REMARK    7  A    between atoms: C_17  and  O_18
REMARK    8  A    between atoms: C_19  and  O_20
REMARK    9  A    between atoms: N_22  and  C_23
REMARK   10  A    between atoms: C_26  and  C_27
REMARK                            x       y       z     vdW  Elec       q    Type
REMARK                         _______ _______ _______ _____ _____    ______ ____
ROOT
ATOM      1  C   UNL     1       1.814  12.986  19.158  0.00  0.00    +0.000 A 
ATOM      2  N   UNL     1       2.742  12.634  18.283  0.00  0.00    +0.000 NA
ATOM      3  N   UNL     1       2.482  11.363  17.842  0.00  0.00    +0.000 NA
ATOM      4  C   UNL     1       1.409  10.931  18.461  0.00  0.00    +0.000 A 
ATOM      5  N   UNL     1       0.953  11.890  19.362  0.00  0.00    +0.000 N 
ENDROOT
BRANCH   1  10
ATOM      6  C   UNL     1       0.797  17.882  22.074  0.00  0.00    +0.000 C 
ATOM      7  C   UNL     1       1.194  16.684  21.263  0.00  0.00    +0.000 A 
ATOM      8  C   UNL     1       0.829  16.577  19.920  0.00  0.00    +0.000 A 
ATOM      9  C   UNL     1       1.148  15.427  19.188  0.00  0.00    +0.000 A 
ATOM     10  C   UNL     1       1.738  14.315  19.811  0.00  0.00    +0.000 A 
ATOM     11  C   UNL     1       2.203  14.474  21.120  0.00  0.00    +0.000 A 
ATOM     12  C   UNL     1       1.937  15.647  21.839  0.00  0.00    +0.000 A 
ENDBRANCH   1  10
BRANCH   5  13
ATOM     13  C   UNL     1      -0.131  11.808  20.289  0.00  0.00    +0.000 A 
ATOM     14  C   UNL     1       0.069  11.231  21.554  0.00  0.00    +0.000 A 
ATOM     15  C   UNL     1      -0.885  11.380  22.561  0.00  0.00    +0.000 A 
ATOM     16  C   UNL     1      -2.092  12.029  22.298  0.00  0.00    +0.000 A 
ATOM     17  C   UNL     1      -3.100  12.252  23.386  0.00  0.00    +0.000 C 
ATOM     18  C   UNL     1      -2.341  12.501  21.004  0.00  0.00    +0.000 A 
ATOM     19  C   UNL     1      -1.364  12.407  20.008  0.00  0.00    +0.000 A 
ENDBRANCH   5  13
BRANCH   4  20
ATOM     20  S   UNL     1       0.740   9.336  18.283  0.00  0.00    +0.000 S 
BRANCH  20  21
ATOM     21  C   UNL     1       2.200   8.295  17.983  0.00  0.00    +0.000 C 
BRANCH  21  22
ATOM     22  C   UNL     1       2.395   7.276  19.115  0.00  0.00    +0.000 C 
ATOM     23  O   UNL     1       2.160   7.526  20.296  0.00  0.00    +0.000 OA
BRANCH  22  24
ATOM     24  C   UNL     1       2.861   5.898  18.768  0.00  0.00    +0.000 A 
ATOM     25  C   UNL     1       2.053   5.108  17.918  0.00  0.00    +0.000 A 
ATOM     26  C   UNL     1       2.436   3.808  17.558  0.00  0.00    +0.000 A 
ATOM     27  C   UNL     1       3.626   3.300  18.053  0.00  0.00    +0.000 A 
ATOM     28  C   UNL     1       4.423   4.072  18.893  0.00  0.00    +0.000 A 
ATOM     29  C   UNL     1       4.057   5.367  19.251  0.00  0.00    +0.000 A 
BRANCH  27  30
ATOM     30  O   UNL     1       4.063   2.041  17.747  0.00  0.00    +0.000 OA
ATOM     31  H   UNL     1       3.870   1.867  16.810  0.00  0.00    +0.000 HD
ENDBRANCH  27  30
BRANCH  28  32
ATOM     32  O   UNL     1       5.591   3.561  19.384  0.00  0.00    +0.000 OA
ATOM     33  H   UNL     1       5.522   2.597  19.238  0.00  0.00    +0.000 HD
ENDBRANCH  28  32
ENDBRANCH  22  24
ENDBRANCH  21  22
ENDBRANCH  20  21
ENDBRANCH   4  20
TORSDOF 8
ENDMDL
MODEL 9
REMARK VINA RESULT:      -7.5      4.027      8.270
REMARK  Name = 
REMARK  10 active torsions:
REMARK  status: ('A' for Active; 'I' for Inactive)
REMARK    1  A    between atoms: C_1  and  C_2
REMARK    2  A    between atoms: C_5  and  C_6
REMARK    3  A    between atoms: C_9  and  S_10
REMARK    4  A    between atoms: S_10  and  C_11
REMARK    5  A    between atoms: C_11  and  C_12
REMARK    6  A    between atoms: C_12  and  C_14
REMARK    7  A    between atoms: C_17  and  O_18
REMARK    8  A    between atoms: C_19  and  O_20
REMARK    9  A    between atoms: N_22  and  C_23
REMARK   10  A    between atoms: C_26  and  C_27
REMARK                            x       y       z     vdW  Elec       q    Type
REMARK                         _______ _______ _______ _____ _____    ______ ____
ROOT
ATOM      1  C   UNL     1       0.390  10.451  20.490  0.00  0.00    +0.000 A 
ATOM      2  N   UNL     1       0.845  10.916  21.642  0.00  0.00    +0.000 NA
ATOM      3  N   UNL     1      -0.039  11.841  22.133  0.00  0.00    +0.000 NA
ATOM      4  C   UNL     1      -1.023  11.956  21.273  0.00  0.00    +0.000 A 
ATOM      5  N   UNL     1      -0.795  11.141  20.167  0.00  0.00    +0.000 N 
ENDROOT
BRANCH   1  10
ATOM      6  C   UNL     1       3.723   6.641  17.683  0.00  0.00    +0.000 C 
ATOM      7  C   UNL     1       2.733   7.554  18.345  0.00  0.00    +0.000 A 
ATOM      8  C   UNL     1       2.260   8.691  17.689  0.00  0.00    +0.000 A 
ATOM      9  C   UNL     1       1.385   9.571  18.337  0.00  0.00    +0.000 A 
ATOM     10  C   UNL     1       1.055   9.395  19.691  0.00  0.00    +0.000 A 
ATOM     11  C   UNL     1       1.438   8.197  20.303  0.00  0.00    +0.000 A 
ATOM     12  C   UNL     1       2.267   7.283  19.636  0.00  0.00    +0.000 A 
ENDBRANCH   1  10
BRANCH   5  13
ATOM     13  C   UNL     1      -1.565  11.014  18.970  0.00  0.00    +0.000 A 
ATOM     14  C   UNL     1      -1.453  11.979  17.957  0.00  0.00    +0.000 A 
ATOM     15  C   UNL     1      -1.980  11.741  16.687  0.00  0.00    +0.000 A 
ATOM     16  C   UNL     1      -2.706  10.577  16.433  0.00  0.00    +0.000 A 
ATOM     17  C   UNL     1      -3.225  10.277  15.058  0.00  0.00    +0.000 C 
ATOM     18  C   UNL     1      -2.919   9.668  17.476  0.00  0.00    +0.000 A 
ATOM     19  C   UNL     1      -2.341   9.874  18.733  0.00  0.00    +0.000 A 
ENDBRANCH   5  13
BRANCH   4  20
ATOM     20  S   UNL     1      -2.346  13.073  21.429  0.00  0.00    +0.000 S 
BRANCH  20  21
ATOM     21  C   UNL     1      -1.799  14.516  20.469  0.00  0.00    +0.000 C 
BRANCH  21  22
ATOM     22  C   UNL     1      -0.540  15.144  21.082  0.00  0.00    +0.000 C 
ATOM     23  O   UNL     1      -0.366  15.264  22.293  0.00  0.00    +0.000 OA
BRANCH  22  24
ATOM     24  C   UNL     1       0.551  15.605  20.168  0.00  0.00    +0.000 A 
ATOM     25  C   UNL     1       0.863  16.984  20.135  0.00  0.00    +0.000 A 
ATOM     26  C   UNL     1       1.874  17.476  19.297  0.00  0.00    +0.000 A 
ATOM     27  C   UNL     1       2.569  16.588  18.492  0.00  0.00    +0.000 A 
ATOM     28  C   UNL     1       2.262  15.230  18.519  0.00  0.00    +0.000 A 
ATOM     29  C   UNL     1       1.266  14.728  19.351  0.00  0.00    +0.000 A 
BRANCH  27  30
ATOM     30  O   UNL     1       3.566  16.996  17.650  0.00  0.00    +0.000 OA
ATOM     31  H   UNL     1       4.316  17.304  18.186  0.00  0.00    +0.000 HD
ENDBRANCH  27  30
BRANCH  28  32
ATOM     32  O   UNL     1       2.945  14.362  17.716  0.00  0.00    +0.000 OA
ATOM     33  H   UNL     1       3.854  14.723  17.674  0.00  0.00    +0.000 HD
ENDBRANCH  28  32
ENDBRANCH  22  24
ENDBRANCH  21  22
ENDBRANCH  20  21
ENDBRANCH   4  20
TORSDOF 8
ENDMDL
