MODEL 1
REMARK VINA RESULT:      -6.9      0.000      0.000
REMARK  Name = 
REMARK  4 active torsions:
REMARK  status: ('A' for Active; 'I' for Inactive)
REMARK    1  A    between atoms: C_2  and  C_3
REMARK    2  A    between atoms: C_6  and  C_7
REMARK    3  A    between atoms: N_19  and  C_20
REMARK    4  A    between atoms: C_20  and  C_21
REMARK                            x       y       z     vdW  Elec       q    Type
REMARK                         _______ _______ _______ _____ _____    ______ ____
ROOT
ATOM      1  O   UNL     1       1.060  10.388  21.378  0.00  0.00    +0.000 OA
ATOM      2  C   UNL     1       0.726   9.889  20.306  0.00  0.00    +0.000 C 
ATOM      3  N   UNL     1      -0.429  10.299  19.617  0.00  0.00    +0.000 N 
ATOM      4  C   UNL     1      -1.113  11.485  20.126  0.00  0.00    +0.000 C 
ATOM      5  C   UNL     1      -1.350  12.599  19.110  0.00  0.00    +0.000 C 
ATOM      6  C   UNL     1      -1.846  12.264  17.701  0.00  0.00    +0.000 C 
ATOM      7  N   UNL     1      -2.584  11.033  17.437  0.00  0.00    +0.000 NA
ATOM      8  C   UNL     1      -1.698   9.861  17.462  0.00  0.00    +0.000 C 
ATOM      9  C   UNL     1      -1.252   9.351  18.848  0.00  0.00    +0.000 C 
ENDROOT
BRANCH   2  10
ATOM     10  C   UNL     1       1.614   8.890  19.641  0.00  0.00    +0.000 A 
ATOM     11  C   UNL     1       1.782   7.676  20.196  0.00  0.00    +0.000 A 
ATOM     12  C   UNL     1       2.591   6.658  19.587  0.00  0.00    +0.000 A 
ATOM     13  C   UNL     1       3.059   6.830  18.340  0.00  0.00    +0.000 A 
ATOM     14  N   UNL     1       2.834   8.024  17.704  0.00  0.00    +0.000 N 
ATOM     15  C   UNL     1       2.183   9.107  18.273  0.00  0.00    +0.000 A 
ATOM     16  O   UNL     1       2.106  10.164  17.657  0.00  0.00    +0.000 OA
ATOM     17  H   UNL     1       3.183   8.183  16.770  0.00  0.00    +0.000 HD
BRANCH  13  18
ATOM     18  C   UNL     1       3.766   5.773  17.705  0.00  0.00    +0.000 A 
ATOM     19  C   UNL     1       4.703   5.801  16.676  0.00  0.00    +0.000 A 
ATOM     20  C   UNL     1       5.057   4.463  16.367  0.00  0.00    +0.000 A 
ATOM     21  C   UNL     1       4.344   3.675  17.232  0.00  0.00    +0.000 A 
ATOM     22  O   UNL     1       3.579   4.442  18.040  0.00  0.00    +0.000 OA
ENDBRANCH  13  18
ENDBRANCH   2  10
BRANCH   7  23
ATOM     23  C   UNL     1      -3.799  10.813  18.223  0.00  0.00    +0.000 C 
BRANCH  23  24
ATOM     24  C   UNL     1      -4.786  11.954  18.228  0.00  0.00    +0.000 A 
ATOM     25  C   UNL     1      -5.507  12.287  17.072  0.00  0.00    +0.000 A 
ATOM     26  C   UNL     1      -6.473  13.294  17.113  0.00  0.00    +0.000 A 
ATOM     27  C   UNL     1      -6.717  13.974  18.307  0.00  0.00    +0.000 A 
ATOM     28 CL   UNL     1      -7.916  15.204  18.359  0.00  0.00    +0.000 Cl
ATOM     29  C   UNL     1      -6.005  13.656  19.459  0.00  0.00    +0.000 A 
ATOM     30  C   UNL     1      -5.041  12.648  19.419  0.00  0.00    +0.000 A 
ENDBRANCH  23  24
ENDBRANCH   7  23
TORSDOF 4
ENDMDL
MODEL 2
REMARK VINA RESULT:      -6.6      1.096      1.519
REMARK  Name = 
REMARK  4 active torsions:
REMARK  status: ('A' for Active; 'I' for Inactive)
REMARK    1  A    between atoms: C_2  and  C_3
REMARK    2  A    between atoms: C_6  and  C_7
REMARK    3  A    between atoms: N_19  and  C_20
REMARK    4  A    between atoms: C_20  and  C_21
REMARK                            x       y       z     vdW  Elec       q    Type
REMARK                         _______ _______ _______ _____ _____    ______ ____
ROOT
ATOM      1  O   UNL     1       1.172  10.049  21.204  0.00  0.00    +0.000 OA
ATOM      2  C   UNL     1       0.774   9.641  20.115  0.00  0.00    +0.000 C 
ATOM      3  N   UNL     1      -0.381  10.155  19.500  0.00  0.00    +0.000 N 
ATOM      4  C   UNL     1      -0.984  11.336  20.112  0.00  0.00    +0.000 C 
ATOM      5  C   UNL     1      -1.198  12.527  19.182  0.00  0.00    +0.000 C 
ATOM      6  C   UNL     1      -1.761  12.314  17.775  0.00  0.00    +0.000 C 
ATOM      7  N   UNL     1      -2.571  11.142  17.459  0.00  0.00    +0.000 NA
ATOM      8  C   UNL     1      -1.748   9.928  17.372  0.00  0.00    +0.000 C 
ATOM      9  C   UNL     1      -1.280   9.303  18.703  0.00  0.00    +0.000 C 
ENDROOT
BRANCH   2  10
ATOM     10  C   UNL     1       1.584   8.647  19.352  0.00  0.00    +0.000 A 
ATOM     11  C   UNL     1       2.136   9.000  18.177  0.00  0.00    +0.000 A 
ATOM     12  C   UNL     1       2.958   8.104  17.414  0.00  0.00    +0.000 A 
ATOM     13  C   UNL     1       3.354   6.938  17.948  0.00  0.00    +0.000 A 
ATOM     14  N   UNL     1       2.882   6.579  19.185  0.00  0.00    +0.000 N 
ATOM     15  C   UNL     1       1.978   7.322  19.927  0.00  0.00    +0.000 A 
ATOM     16  O   UNL     1       1.546   6.877  20.985  0.00  0.00    +0.000 OA
ATOM     17  H   UNL     1       3.157   5.703  19.606  0.00  0.00    +0.000 HD
BRANCH  13  18
ATOM     18  C   UNL     1       4.256   6.107  17.229  0.00  0.00    +0.000 A 
ATOM     19  C   UNL     1       4.401   4.723  17.220  0.00  0.00    +0.000 A 
ATOM     20  C   UNL     1       5.493   4.400  16.377  0.00  0.00    +0.000 A 
ATOM     21  C   UNL     1       5.956   5.594  15.886  0.00  0.00    +0.000 A 
ATOM     22  O   UNL     1       5.223   6.616  16.378  0.00  0.00    +0.000 OA
ENDBRANCH  13  18
ENDBRANCH   2  10
BRANCH   7  23
ATOM     23  C   UNL     1      -3.767  10.930  18.276  0.00  0.00    +0.000 C 
BRANCH  23  24
ATOM     24  C   UNL     1      -4.764  12.062  18.275  0.00  0.00    +0.000 A 
ATOM     25  C   UNL     1      -5.537  12.341  17.139  0.00  0.00    +0.000 A 
ATOM     26  C   UNL     1      -6.510  13.341  17.180  0.00  0.00    +0.000 A 
ATOM     27  C   UNL     1      -6.709  14.069  18.354  0.00  0.00    +0.000 A 
ATOM     28 CL   UNL     1      -7.916  15.291  18.407  0.00  0.00    +0.000 Cl
ATOM     29  C   UNL     1      -5.945  13.805  19.487  0.00  0.00    +0.000 A 
ATOM     30  C   UNL     1      -4.974  12.803  19.446  0.00  0.00    +0.000 A 
ENDBRANCH  23  24
ENDBRANCH   7  23
TORSDOF 4
ENDMDL
MODEL 3
REMARK VINA RESULT:      -6.6      6.629      8.023
REMARK  Name = 
REMARK  4 active torsions:
REMARK  status: ('A' for Active; 'I' for Inactive)
REMARK    1  A    between atoms: C_2  and  C_3
REMARK    2  A    between atoms: C_6  and  C_7
REMARK    3  A    between atoms: N_19  and  C_20
REMARK    4  A    between atoms: C_20  and  C_21
REMARK                            x       y       z     vdW  Elec       q    Type
REMARK                         _______ _______ _______ _____ _____    ______ ____
ROOT
ATOM      1  O   UNL     1       2.848  17.130  17.605  0.00  0.00    +0.000 OA
ATOM      2  C   UNL     1       3.310  16.341  18.426  0.00  0.00    +0.000 C 
ATOM      3  N   UNL     1       2.491  15.610  19.304  0.00  0.00    +0.000 N 
ATOM      4  C   UNL     1       1.051  15.675  19.070  0.00  0.00    +0.000 C 
ATOM      5  C   UNL     1       0.345  14.330  18.921  0.00  0.00    +0.000 C 
ATOM      6  C   UNL     1       0.676  13.176  19.871  0.00  0.00    +0.000 C 
ATOM      7  N   UNL     1       1.228  13.430  21.198  0.00  0.00    +0.000 NA
ATOM      8  C   UNL     1       2.636  13.844  21.123  0.00  0.00    +0.000 C 
ATOM      9  C   UNL     1       2.915  15.296  20.679  0.00  0.00    +0.000 C 
ENDROOT
BRANCH   2  10
ATOM     10  C   UNL     1       4.774  16.052  18.437  0.00  0.00    +0.000 A 
ATOM     11  C   UNL     1       5.244  14.973  17.786  0.00  0.00    +0.000 A 
ATOM     12  C   UNL     1       6.644  14.661  17.726  0.00  0.00    +0.000 A 
ATOM     13  C   UNL     1       7.549  15.550  18.167  0.00  0.00    +0.000 A 
ATOM     14  N   UNL     1       7.111  16.706  18.761  0.00  0.00    +0.000 N 
ATOM     15  C   UNL     1       5.779  17.019  18.983  0.00  0.00    +0.000 A 
ATOM     16  O   UNL     1       5.487  18.037  19.600  0.00  0.00    +0.000 OA
ATOM     17  H   UNL     1       7.770  17.386  19.110  0.00  0.00    +0.000 HD
BRANCH  13  18
ATOM     18  C   UNL     1       8.935  15.279  18.004  0.00  0.00    +0.000 A 
ATOM     19  C   UNL     1      10.024  16.144  17.932  0.00  0.00    +0.000 A 
ATOM     20  C   UNL     1      11.187  15.368  17.700  0.00  0.00    +0.000 A 
ATOM     21  C   UNL     1      10.769  14.063  17.663  0.00  0.00    +0.000 A 
ATOM     22  O   UNL     1       9.433  13.996  17.851  0.00  0.00    +0.000 OA
ENDBRANCH  13  18
ENDBRANCH   2  10
BRANCH   7  23
ATOM     23  C   UNL     1       0.450  14.304  22.077  0.00  0.00    +0.000 C 
BRANCH  23  24
ATOM     24  C   UNL     1      -0.984  13.892  22.299  0.00  0.00    +0.000 A 
ATOM     25  C   UNL     1      -1.296  12.709  22.984  0.00  0.00    +0.000 A 
ATOM     26  C   UNL     1      -2.627  12.381  23.249  0.00  0.00    +0.000 A 
ATOM     27  C   UNL     1      -3.649  13.233  22.828  0.00  0.00    +0.000 A 
ATOM     28 CL   UNL     1      -5.287  12.835  23.167  0.00  0.00    +0.000 Cl
ATOM     29  C   UNL     1      -3.353  14.408  22.144  0.00  0.00    +0.000 A 
ATOM     30  C   UNL     1      -2.022  14.736  21.881  0.00  0.00    +0.000 A 
ENDBRANCH  23  24
ENDBRANCH   7  23
TORSDOF 4
ENDMDL
MODEL 4
REMARK VINA RESULT:      -6.4      1.353      1.863
REMARK  Name = 
REMARK  4 active torsions:
REMARK  status: ('A' for Active; 'I' for Inactive)
REMARK    1  A    between atoms: C_2  and  C_3
REMARK    2  A    between atoms: C_6  and  C_7
REMARK    3  A    between atoms: N_19  and  C_20
REMARK    4  A    between atoms: C_20  and  C_21
REMARK                            x       y       z     vdW  Elec       q    Type
REMARK                         _______ _______ _______ _____ _____    ______ ____
ROOT
ATOM      1  O   UNL     1       1.767   9.658  22.489  0.00  0.00    +0.000 OA
ATOM      2  C   UNL     1       1.196   9.394  21.433  0.00  0.00    +0.000 C 
ATOM      3  N   UNL     1       0.188  10.216  20.902  0.00  0.00    +0.000 N 
ATOM      4  C   UNL     1      -0.020  11.507  21.551  0.00  0.00    +0.000 C 
ATOM      5  C   UNL     1       0.040  12.727  20.635  0.00  0.00    +0.000 C 
ATOM      6  C   UNL     1      -0.657  12.700  19.273  0.00  0.00    +0.000 C 
ATOM      7  N   UNL     1      -1.781  11.803  19.020  0.00  0.00    +0.000 NA
ATOM      8  C   UNL     1      -1.334  10.411  18.878  0.00  0.00    +0.000 C 
ATOM      9  C   UNL     1      -0.965   9.659  20.174  0.00  0.00    +0.000 C 
ENDROOT
BRANCH   2  10
ATOM     10  C   UNL     1       1.644   8.227  20.617  0.00  0.00    +0.000 A 
ATOM     11  C   UNL     1       1.557   6.985  21.128  0.00  0.00    +0.000 A 
ATOM     12  C   UNL     1       1.935   5.819  20.381  0.00  0.00    +0.000 A 
ATOM     13  C   UNL     1       2.214   5.922  19.072  0.00  0.00    +0.000 A 
ATOM     14  N   UNL     1       2.228   7.165  18.491  0.00  0.00    +0.000 N 
ATOM     15  C   UNL     1       2.012   8.352  19.171  0.00  0.00    +0.000 A 
ATOM     16  O   UNL     1       2.131   9.422  18.583  0.00  0.00    +0.000 OA
ATOM     17  H   UNL     1       2.444   7.271  17.511  0.00  0.00    +0.000 HD
BRANCH  13  18
ATOM     18  C   UNL     1       2.480   4.747  18.317  0.00  0.00    +0.000 A 
ATOM     19  C   UNL     1       1.742   3.575  18.177  0.00  0.00    +0.000 A 
ATOM     20  C   UNL     1       2.481   2.685  17.359  0.00  0.00    +0.000 A 
ATOM     21  C   UNL     1       3.627   3.354  17.014  0.00  0.00    +0.000 A 
ATOM     22  O   UNL     1       3.634   4.585  17.570  0.00  0.00    +0.000 OA
ENDBRANCH  13  18
ENDBRANCH   2  10
BRANCH   7  23
ATOM     23  C   UNL     1      -2.928  11.917  19.922  0.00  0.00    +0.000 C 
BRANCH  23  24
ATOM     24  C   UNL     1      -4.212  12.387  19.284  0.00  0.00    +0.000 A 
ATOM     25  C   UNL     1      -5.000  13.373  19.894  0.00  0.00    +0.000 A 
ATOM     26  C   UNL     1      -6.144  13.854  19.254  0.00  0.00    +0.000 A 
ATOM     27  C   UNL     1      -6.506  13.347  18.005  0.00  0.00    +0.000 A 
ATOM     28 CL   UNL     1      -7.906  13.949  17.212  0.00  0.00    +0.000 Cl
ATOM     29  C   UNL     1      -5.734  12.365  17.391  0.00  0.00    +0.000 A 
ATOM     30  C   UNL     1      -4.590  11.887  18.030  0.00  0.00    +0.000 A 
ENDBRANCH  23  24
ENDBRANCH   7  23
TORSDOF 4
ENDMDL
MODEL 5
REMARK VINA RESULT:      -6.4      6.795      8.200
REMARK  Name = 
REMARK  4 active torsions:
REMARK  status: ('A' for Active; 'I' for Inactive)
REMARK    1  A    between atoms: C_2  and  C_3
REMARK    2  A    between atoms: C_6  and  C_7
REMARK    3  A    between atoms: N_19  and  C_20
REMARK    4  A    between atoms: C_20  and  C_21
REMARK                            x       y       z     vdW  Elec       q    Type
REMARK                         _______ _______ _______ _____ _____    ______ ____
ROOT
ATOM      1  O   UNL     1       3.102  17.123  17.501  0.00  0.00    +0.000 OA
ATOM      2  C   UNL     1       3.550  16.379  18.371  0.00  0.00    +0.000 C 
ATOM      3  N   UNL     1       2.716  15.695  19.272  0.00  0.00    +0.000 N 
ATOM      4  C   UNL     1       1.280  15.746  19.010  0.00  0.00    +0.000 C 
ATOM      5  C   UNL     1       0.576  14.394  18.920  0.00  0.00    +0.000 C 
ATOM      6  C   UNL     1       0.891  13.293  19.935  0.00  0.00    +0.000 C 
ATOM      7  N   UNL     1       1.419  13.616  21.256  0.00  0.00    +0.000 NA
ATOM      8  C   UNL     1       2.828  14.028  21.185  0.00  0.00    +0.000 C 
ATOM      9  C   UNL     1       3.115  15.454  20.669  0.00  0.00    +0.000 C 
ENDROOT
BRANCH   2  10
ATOM     10  C   UNL     1       5.014  16.092  18.423  0.00  0.00    +0.000 A 
ATOM     11  C   UNL     1       5.504  15.014  17.785  0.00  0.00    +0.000 A 
ATOM     12  C   UNL     1       6.905  14.705  17.764  0.00  0.00    +0.000 A 
ATOM     13  C   UNL     1       7.796  15.594  18.231  0.00  0.00    +0.000 A 
ATOM     14  N   UNL     1       7.339  16.749  18.814  0.00  0.00    +0.000 N 
ATOM     15  C   UNL     1       6.001  17.060  18.998  0.00  0.00    +0.000 A 
ATOM     16  O   UNL     1       5.691  18.078  19.608  0.00  0.00    +0.000 OA
ATOM     17  H   UNL     1       7.987  17.430  19.182  0.00  0.00    +0.000 HD
BRANCH  13  18
ATOM     18  C   UNL     1       9.186  15.326  18.107  0.00  0.00    +0.000 A 
ATOM     19  C   UNL     1      10.011  14.468  18.829  0.00  0.00    +0.000 A 
ATOM     20  C   UNL     1      11.335  14.621  18.346  0.00  0.00    +0.000 A 
ATOM     21  C   UNL     1      11.264  15.545  17.337  0.00  0.00    +0.000 A 
ATOM     22  O   UNL     1       9.990  15.966  17.178  0.00  0.00    +0.000 OA
ENDBRANCH  13  18
ENDBRANCH   2  10
BRANCH   7  23
ATOM     23  C   UNL     1       0.626  14.535  22.074  0.00  0.00    +0.000 C 
BRANCH  23  24
ATOM     24  C   UNL     1      -0.814  14.140  22.285  0.00  0.00    +0.000 A 
ATOM     25  C   UNL     1      -1.859  14.945  21.809  0.00  0.00    +0.000 A 
ATOM     26  C   UNL     1      -3.185  14.527  21.943  0.00  0.00    +0.000 A 
ATOM     27  C   UNL     1      -3.469  13.306  22.556  0.00  0.00    +0.000 A 
ATOM     28 CL   UNL     1      -5.101  12.787  22.708  0.00  0.00    +0.000 Cl
ATOM     29  C   UNL     1      -2.442  12.500  23.036  0.00  0.00    +0.000 A 
ATOM     30  C   UNL     1      -1.117  12.917  22.900  0.00  0.00    +0.000 A 
ENDBRANCH  23  24
ENDBRANCH   7  23
TORSDOF 4
ENDMDL
MODEL 6
REMARK VINA RESULT:      -6.4      4.527      6.296
REMARK  Name = 
REMARK  4 active torsions:
REMARK  status: ('A' for Active; 'I' for Inactive)
REMARK    1  A    between atoms: C_2  and  C_3
REMARK    2  A    between atoms: C_6  and  C_7
REMARK    3  A    between atoms: N_19  and  C_20
REMARK    4  A    between atoms: C_20  and  C_21
REMARK                            x       y       z     vdW  Elec       q    Type
REMARK                         _______ _______ _______ _____ _____    ______ ____
ROOT
ATOM      1  O   UNL     1      -1.641  10.611  18.388  0.00  0.00    +0.000 OA
ATOM      2  C   UNL     1      -0.508  10.742  18.844  0.00  0.00    +0.000 C 
ATOM      3  N   UNL     1      -0.077  11.936  19.448  0.00  0.00    +0.000 N 
ATOM      4  C   UNL     1      -1.093  12.955  19.691  0.00  0.00    +0.000 C 
ATOM      5  C   UNL     1      -1.190  13.463  21.128  0.00  0.00    +0.000 C 
ATOM      6  C   UNL     1       0.080  13.781  21.919  0.00  0.00    +0.000 C 
ATOM      7  N   UNL     1       1.326  14.119  21.238  0.00  0.00    +0.000 NA
ATOM      8  C   UNL     1       1.940  12.933  20.625  0.00  0.00    +0.000 C 
ATOM      9  C   UNL     1       1.309  12.416  19.315  0.00  0.00    +0.000 C 
ENDROOT
BRANCH   2  10
ATOM     10  C   UNL     1       0.423   9.575  18.868  0.00  0.00    +0.000 A 
ATOM     11  C   UNL     1       1.062   9.211  17.742  0.00  0.00    +0.000 A 
ATOM     12  C   UNL     1       1.998   8.123  17.707  0.00  0.00    +0.000 A 
ATOM     13  C   UNL     1       2.405   7.552  18.852  0.00  0.00    +0.000 A 
ATOM     14  N   UNL     1       1.840   7.956  20.035  0.00  0.00    +0.000 N 
ATOM     15  C   UNL     1       0.832   8.900  20.141  0.00  0.00    +0.000 A 
ATOM     16  O   UNL     1       0.328   9.134  21.234  0.00  0.00    +0.000 OA
ATOM     17  H   UNL     1       2.121   7.536  20.908  0.00  0.00    +0.000 HD
BRANCH  13  18
ATOM     18  C   UNL     1       3.414   6.550  18.816  0.00  0.00    +0.000 A 
ATOM     19  C   UNL     1       4.397   6.290  17.866  0.00  0.00    +0.000 A 
ATOM     20  C   UNL     1       5.110   5.135  18.275  0.00  0.00    +0.000 A 
ATOM     21  C   UNL     1       4.552   4.751  19.467  0.00  0.00    +0.000 A 
ATOM     22  O   UNL     1       3.548   5.589  19.804  0.00  0.00    +0.000 OA
ENDBRANCH  13  18
ENDBRANCH   2  10
BRANCH   7  23
ATOM     23  C   UNL     1       1.282  15.249  20.309  0.00  0.00    +0.000 C 
BRANCH  23  24
ATOM     24  C   UNL     1       2.622  15.811  19.905  0.00  0.00    +0.000 A 
ATOM     25  C   UNL     1       3.546  16.236  20.870  0.00  0.00    +0.000 A 
ATOM     26  C   UNL     1       4.812  16.680  20.484  0.00  0.00    +0.000 A 
ATOM     27  C   UNL     1       5.156  16.706  19.132  0.00  0.00    +0.000 A 
ATOM     28 CL   UNL     1       6.719  17.241  18.658  0.00  0.00    +0.000 Cl
ATOM     29  C   UNL     1       4.246  16.292  18.164  0.00  0.00    +0.000 A 
ATOM     30  C   UNL     1       2.982  15.845  18.550  0.00  0.00    +0.000 A 
ENDBRANCH  23  24
ENDBRANCH   7  23
TORSDOF 4
ENDMDL
MODEL 7
REMARK VINA RESULT:      -6.4      6.617      7.828
REMARK  Name = 
REMARK  4 active torsions:
REMARK  status: ('A' for Active; 'I' for Inactive)
REMARK    1  A    between atoms: C_2  and  C_3
REMARK    2  A    between atoms: C_6  and  C_7
REMARK    3  A    between atoms: N_19  and  C_20
REMARK    4  A    between atoms: C_20  and  C_21
REMARK                            x       y       z     vdW  Elec       q    Type
REMARK                         _______ _______ _______ _____ _____    ______ ____
ROOT
ATOM      1  O   UNL     1       3.959  17.324  18.028  0.00  0.00    +0.000 OA
ATOM      2  C   UNL     1       4.153  16.291  18.663  0.00  0.00    +0.000 C 
ATOM      3  N   UNL     1       3.130  15.656  19.389  0.00  0.00    +0.000 N 
ATOM      4  C   UNL     1       1.774  16.163  19.199  0.00  0.00    +0.000 C 
ATOM      5  C   UNL     1       0.731  15.125  18.792  0.00  0.00    +0.000 C 
ATOM      6  C   UNL     1       0.694  13.759  19.481  0.00  0.00    +0.000 C 
ATOM      7  N   UNL     1       1.241  13.579  20.823  0.00  0.00    +0.000 NA
ATOM      8  C   UNL     1       2.710  13.592  20.809  0.00  0.00    +0.000 C 
ATOM      9  C   UNL     1       3.396  14.967  20.663  0.00  0.00    +0.000 C 
ENDROOT
BRANCH   2  10
ATOM     10  C   UNL     1       5.479  15.610  18.589  0.00  0.00    +0.000 A 
ATOM     11  C   UNL     1       5.642  14.558  17.767  0.00  0.00    +0.000 A 
ATOM     12  C   UNL     1       6.902  13.885  17.621  0.00  0.00    +0.000 A 
ATOM     13  C   UNL     1       8.010  14.409  18.169  0.00  0.00    +0.000 A 
ATOM     14  N   UNL     1       7.899  15.534  18.946  0.00  0.00    +0.000 N 
ATOM     15  C   UNL     1       6.704  16.164  19.249  0.00  0.00    +0.000 A 
ATOM     16  O   UNL     1       6.695  17.115  20.024  0.00  0.00    +0.000 OA
ATOM     17  H   UNL     1       8.715  15.943  19.377  0.00  0.00    +0.000 HD
BRANCH  13  18
ATOM     18  C   UNL     1       9.269  13.794  17.928  0.00  0.00    +0.000 A 
ATOM     19  C   UNL     1       9.598  12.459  17.713  0.00  0.00    +0.000 A 
ATOM     20  C   UNL     1      11.007  12.368  17.586  0.00  0.00    +0.000 A 
ATOM     21  C   UNL     1      11.479  13.650  17.705  0.00  0.00    +0.000 A 
ATOM     22  O   UNL     1      10.455  14.509  17.900  0.00  0.00    +0.000 OA
ENDBRANCH  13  18
ENDBRANCH   2  10
BRANCH   7  23
ATOM     23  C   UNL     1       0.700  14.440  21.875  0.00  0.00    +0.000 C 
BRANCH  23  24
ATOM     24  C   UNL     1      -0.598  13.978  22.490  0.00  0.00    +0.000 A 
ATOM     25  C   UNL     1      -1.627  14.888  22.771  0.00  0.00    +0.000 A 
ATOM     26  C   UNL     1      -2.850  14.434  23.268  0.00  0.00    +0.000 A 
ATOM     27  C   UNL     1      -3.046  13.070  23.490  0.00  0.00    +0.000 A 
ATOM     28 CL   UNL     1      -4.557  12.511  24.089  0.00  0.00    +0.000 Cl
ATOM     29  C   UNL     1      -2.031  12.158  23.219  0.00  0.00    +0.000 A 
ATOM     30  C   UNL     1      -0.810  12.611  22.721  0.00  0.00    +0.000 A 
ENDBRANCH  23  24
ENDBRANCH   7  23
TORSDOF 4
ENDMDL
MODEL 8
REMARK VINA RESULT:      -6.3      6.293      7.484
REMARK  Name = 
REMARK  4 active torsions:
REMARK  status: ('A' for Active; 'I' for Inactive)
REMARK    1  A    between atoms: C_2  and  C_3
REMARK    2  A    between atoms: C_6  and  C_7
REMARK    3  A    between atoms: N_19  and  C_20
REMARK    4  A    between atoms: C_20  and  C_21
REMARK                            x       y       z     vdW  Elec       q    Type
REMARK                         _______ _______ _______ _____ _____    ______ ____
ROOT
ATOM      1  O   UNL     1       3.728  17.453  18.882  0.00  0.00    +0.000 OA
ATOM      2  C   UNL     1       3.844  16.293  19.270  0.00  0.00    +0.000 C 
ATOM      3  N   UNL     1       2.771  15.582  19.836  0.00  0.00    +0.000 N 
ATOM      4  C   UNL     1       1.455  16.209  19.765  0.00  0.00    +0.000 C 
ATOM      5  C   UNL     1       0.351  15.361  19.138  0.00  0.00    +0.000 C 
ATOM      6  C   UNL     1       0.215  13.882  19.504  0.00  0.00    +0.000 C 
ATOM      7  N   UNL     1       0.729  13.370  20.770  0.00  0.00    +0.000 NA
ATOM      8  C   UNL     1       2.196  13.287  20.758  0.00  0.00    +0.000 C 
ATOM      9  C   UNL     1       2.973  14.610  20.924  0.00  0.00    +0.000 C 
ENDROOT
BRANCH   2  10
ATOM     10  C   UNL     1       5.124  15.558  19.045  0.00  0.00    +0.000 A 
ATOM     11  C   UNL     1       5.317  14.899  17.888  0.00  0.00    +0.000 A 
ATOM     12  C   UNL     1       6.540  14.206  17.594  0.00  0.00    +0.000 A 
ATOM     13  C   UNL     1       7.605  14.354  18.398  0.00  0.00    +0.000 A 
ATOM     14  N   UNL     1       7.473  15.092  19.547  0.00  0.00    +0.000 N 
ATOM     15  C   UNL     1       6.292  15.677  19.973  0.00  0.00    +0.000 A 
ATOM     16  O   UNL     1       6.251  16.246  21.059  0.00  0.00    +0.000 OA
ATOM     17  H   UNL     1       8.256  15.211  20.174  0.00  0.00    +0.000 HD
BRANCH  13  18
ATOM     18  C   UNL     1       8.842  13.752  18.041  0.00  0.00    +0.000 A 
ATOM     19  C   UNL     1       9.179  12.414  17.860  0.00  0.00    +0.000 A 
ATOM     20  C   UNL     1      10.565  12.344  17.570  0.00  0.00    +0.000 A 
ATOM     21  C   UNL     1      11.013  13.639  17.561  0.00  0.00    +0.000 A 
ATOM     22  O   UNL     1       9.997  14.487  17.831  0.00  0.00    +0.000 OA
ENDBRANCH  13  18
ENDBRANCH   2  10
BRANCH   7  23
ATOM     23  C   UNL     1       0.231  14.009  21.989  0.00  0.00    +0.000 C 
BRANCH  23  24
ATOM     24  C   UNL     1      -1.192  13.675  22.363  0.00  0.00    +0.000 A 
ATOM     25  C   UNL     1      -1.517  12.430  22.919  0.00  0.00    +0.000 A 
ATOM     26  C   UNL     1      -2.824  12.164  23.332  0.00  0.00    +0.000 A 
ATOM     27  C   UNL     1      -3.810  13.141  23.185  0.00  0.00    +0.000 A 
ATOM     28 CL   UNL     1      -5.416  12.818  23.705  0.00  0.00    +0.000 Cl
ATOM     29  C   UNL     1      -3.501  14.379  22.630  0.00  0.00    +0.000 A 
ATOM     30  C   UNL     1      -2.194  14.644  22.219  0.00  0.00    +0.000 A 
ENDBRANCH  23  24
ENDBRANCH   7  23
TORSDOF 4
ENDMDL
MODEL 9
REMARK VINA RESULT:      -6.2      5.055      6.831
REMARK  Name = 
REMARK  4 active torsions:
REMARK  status: ('A' for Active; 'I' for Inactive)
REMARK    1  A    between atoms: C_2  and  C_3
REMARK    2  A    between atoms: C_6  and  C_7
REMARK    3  A    between atoms: N_19  and  C_20
REMARK    4  A    between atoms: C_20  and  C_21
REMARK                            x       y       z     vdW  Elec       q    Type
REMARK                         _______ _______ _______ _____ _____    ______ ____
ROOT
ATOM      1  O   UNL     1      -1.415  11.522  18.351  0.00  0.00    +0.000 OA
ATOM      2  C   UNL     1      -0.293  11.485  18.850  0.00  0.00    +0.000 C 
ATOM      3  N   UNL     1       0.284  12.602  19.478  0.00  0.00    +0.000 N 
ATOM      4  C   UNL     1      -0.582  13.758  19.692  0.00  0.00    +0.000 C 
ATOM      5  C   UNL     1      -0.658  14.272  21.127  0.00  0.00    +0.000 C 
ATOM      6  C   UNL     1       0.614  14.400  21.968  0.00  0.00    +0.000 C 
ATOM      7  N   UNL     1       1.921  14.553  21.336  0.00  0.00    +0.000 NA
ATOM      8  C   UNL     1       2.379  13.291  20.738  0.00  0.00    +0.000 C 
ATOM      9  C   UNL     1       1.729  12.875  19.402  0.00  0.00    +0.000 C 
ENDROOT
BRANCH   2  10
ATOM     10  C   UNL     1       0.456  10.194  18.900  0.00  0.00    +0.000 A 
ATOM     11  C   UNL     1       1.101   9.757  17.803  0.00  0.00    +0.000 A 
ATOM     12  C   UNL     1       1.871   8.545  17.797  0.00  0.00    +0.000 A 
ATOM     13  C   UNL     1       2.122   7.904  18.950  0.00  0.00    +0.000 A 
ATOM     14  N   UNL     1       1.552   8.369  20.108  0.00  0.00    +0.000 N 
ATOM     15  C   UNL     1       0.687   9.449  20.178  0.00  0.00    +0.000 A 
ATOM     16  O   UNL     1       0.158   9.738  21.246  0.00  0.00    +0.000 OA
ATOM     17  H   UNL     1       1.717   7.901  20.986  0.00  0.00    +0.000 HD
BRANCH  13  18
ATOM     18  C   UNL     1       2.975   6.767  18.948  0.00  0.00    +0.000 A 
ATOM     19  C   UNL     1       3.979   6.390  18.060  0.00  0.00    +0.000 A 
ATOM     20  C   UNL     1       4.485   5.133  18.476  0.00  0.00    +0.000 A 
ATOM     21  C   UNL     1       3.790   4.804  19.611  0.00  0.00    +0.000 A 
ATOM     22  O   UNL     1       2.896   5.772  19.907  0.00  0.00    +0.000 OA
ENDBRANCH  13  18
ENDBRANCH   2  10
BRANCH   7  23
ATOM     23  C   UNL     1       2.078  15.679  20.415  0.00  0.00    +0.000 C 
BRANCH  23  24
ATOM     24  C   UNL     1       3.494  16.150  20.198  0.00  0.00    +0.000 A 
ATOM     25  C   UNL     1       4.029  16.254  18.906  0.00  0.00    +0.000 A 
ATOM     26  C   UNL     1       5.315  16.764  18.717  0.00  0.00    +0.000 A 
ATOM     27  C   UNL     1       6.071  17.167  19.818  0.00  0.00    +0.000 A 
ATOM     28 CL   UNL     1       7.648  17.808  19.583  0.00  0.00    +0.000 Cl
ATOM     29  C   UNL     1       5.553  17.064  21.106  0.00  0.00    +0.000 A 
ATOM     30  C   UNL     1       4.267  16.556  21.294  0.00  0.00    +0.000 A 
ENDBRANCH  23  24
ENDBRANCH   7  23
TORSDOF 4
ENDMDL
