MODEL 1
REMARK VINA RESULT:      -7.3      0.000      0.000
REMARK  Name = 
REMARK  6 active torsions:
REMARK  status: ('A' for Active; 'I' for Inactive)
REMARK    1  A    between atoms: C_2  and  C_11
REMARK    2  A    between atoms: N_3  and  C_4
REMARK    3  A    between atoms: C_4  and  C_5
REMARK    4  A    between atoms: C_5  and  C_6
REMARK    5  A    between atoms: C_11  and  C_12
REMARK    6  A    between atoms: C_11  and  N_18
REMARK                            x       y       z     vdW  Elec       q    Type
REMARK                         _______ _______ _______ _____ _____    ______ ____
ROOT
ATOM      1  C   UNL     1       2.783   4.527  19.154  0.00  0.00    +0.000 C 
ENDROOT
BRANCH   1   2
ATOM      2  C   UNL     1       2.365   5.991  19.282  0.00  0.00    +0.000 A 
ATOM      3  C   UNL     1       1.946   6.558  20.497  0.00  0.00    +0.000 A 
ATOM      4  C   UNL     1       1.570   7.901  20.571  0.00  0.00    +0.000 A 
ATOM      5  C   UNL     1       1.623   8.705  19.439  0.00  0.00    +0.000 A 
ATOM      6  C   UNL     1       2.057   8.170  18.229  0.00  0.00    +0.000 A 
ATOM      7  C   UNL     1       2.426   6.824  18.149  0.00  0.00    +0.000 A 
ENDBRANCH   1   2
BRANCH   1   8
ATOM      8  N   UNL     1       2.378   3.706  20.292  0.00  0.00    +0.000 N 
ATOM      9  C   UNL     1       1.113   3.420  20.707  0.00  0.00    +0.000 A 
ATOM     10  N   UNL     1       1.189   2.699  21.803  0.00  0.00    +0.000 NA
ATOM     11  N   UNL     1       2.528   2.552  22.070  0.00  0.00    +0.000 NA
ATOM     12  N   UNL     1       3.261   3.176  21.160  0.00  0.00    +0.000 NA
ENDBRANCH   1   8
BRANCH   1  14
ATOM     13  O   UNL     1       4.652   3.461  18.070  0.00  0.00    +0.000 OA
ATOM     14  C   UNL     1       4.266   4.358  18.823  0.00  0.00    +0.000 C 
ATOM     15  N   UNL     1       5.128   5.277  19.372  0.00  0.00    +0.000 N 
ATOM     16  H   UNL     1       4.766   5.978  20.013  0.00  0.00    +0.000 HD
BRANCH  15  17
ATOM     17  C   UNL     1       6.563   5.254  19.155  0.00  0.00    +0.000 C 
BRANCH  17  18
ATOM     18  C   UNL     1       7.004   6.221  18.059  0.00  0.00    +0.000 C 
BRANCH  18  19
ATOM     19  C   UNL     1       6.723   5.661  16.697  0.00  0.00    +0.000 A 
ATOM     20  N   UNL     1       7.484   4.773  16.087  0.00  0.00    +0.000 NA
ATOM     21  C   UNL     1       6.963   4.493  14.839  0.00  0.00    +0.000 A 
ATOM     22  C   UNL     1       5.808   5.166  14.511  0.00  0.00    +0.000 A 
ATOM     23  S   UNL     1       5.351   6.194  15.803  0.00  0.00    +0.000 S 
ENDBRANCH  18  19
ENDBRANCH  17  18
ENDBRANCH  15  17
ENDBRANCH   1  14
TORSDOF 6
ENDMDL
MODEL 2
REMARK VINA RESULT:      -7.2      0.964      1.052
REMARK  Name = 
REMARK  6 active torsions:
REMARK  status: ('A' for Active; 'I' for Inactive)
REMARK    1  A    between atoms: C_2  and  C_11
REMARK    2  A    between atoms: N_3  and  C_4
REMARK    3  A    between atoms: C_4  and  C_5
REMARK    4  A    between atoms: C_5  and  C_6
REMARK    5  A    between atoms: C_11  and  C_12
REMARK    6  A    between atoms: C_11  and  N_18
REMARK                            x       y       z     vdW  Elec       q    Type
REMARK                         _______ _______ _______ _____ _____    ______ ____
ROOT
ATOM      1  C   UNL     1       3.124   4.538  19.142  0.00  0.00    +0.000 C 
ENDROOT
BRANCH   1   2
ATOM      2  C   UNL     1       2.681   5.999  19.084  0.00  0.00    +0.000 A 
ATOM      3  C   UNL     1       2.193   6.689  20.206  0.00  0.00    +0.000 A 
ATOM      4  C   UNL     1       1.795   8.024  20.111  0.00  0.00    +0.000 A 
ATOM      5  C   UNL     1       1.897   8.699  18.899  0.00  0.00    +0.000 A 
ATOM      6  C   UNL     1       2.400   8.041  17.780  0.00  0.00    +0.000 A 
ATOM      7  C   UNL     1       2.790   6.702  17.870  0.00  0.00    +0.000 A 
ENDBRANCH   1   2
BRANCH   1   8
ATOM      8  N   UNL     1       2.431   3.761  20.167  0.00  0.00    +0.000 N 
ATOM      9  C   UNL     1       1.211   3.165  20.079  0.00  0.00    +0.000 A 
ATOM     10  N   UNL     1       0.931   2.618  21.241  0.00  0.00    +0.000 NA
ATOM     11  N   UNL     1       1.998   2.897  22.059  0.00  0.00    +0.000 NA
ATOM     12  N   UNL     1       2.913   3.607  21.416  0.00  0.00    +0.000 NA
ENDBRANCH   1   8
BRANCH   1  14
ATOM     13  O   UNL     1       5.171   3.267  19.173  0.00  0.00    +0.000 OA
ATOM     14  C   UNL     1       4.643   4.379  19.231  0.00  0.00    +0.000 C 
ATOM     15  N   UNL     1       5.378   5.536  19.334  0.00  0.00    +0.000 N 
ATOM     16  H   UNL     1       4.895   6.427  19.411  0.00  0.00    +0.000 HD
BRANCH  15  17
ATOM     17  C   UNL     1       6.826   5.556  19.426  0.00  0.00    +0.000 C 
BRANCH  17  18
ATOM     18  C   UNL     1       7.480   6.248  18.233  0.00  0.00    +0.000 C 
BRANCH  18  19
ATOM     19  C   UNL     1       6.736   5.956  16.964  0.00  0.00    +0.000 A 
ATOM     20  N   UNL     1       5.869   6.777  16.406  0.00  0.00    +0.000 NA
ATOM     21  C   UNL     1       5.341   6.196  15.270  0.00  0.00    +0.000 A 
ATOM     22  C   UNL     1       5.814   4.938  14.970  0.00  0.00    +0.000 A 
ATOM     23  S   UNL     1       6.959   4.455  16.149  0.00  0.00    +0.000 S 
ENDBRANCH  18  19
ENDBRANCH  17  18
ENDBRANCH  15  17
ENDBRANCH   1  14
TORSDOF 6
ENDMDL
MODEL 3
REMARK VINA RESULT:      -7.1      2.569      3.979
REMARK  Name = 
REMARK  6 active torsions:
REMARK  status: ('A' for Active; 'I' for Inactive)
REMARK    1  A    between atoms: C_2  and  C_11
REMARK    2  A    between atoms: N_3  and  C_4
REMARK    3  A    between atoms: C_4  and  C_5
REMARK    4  A    between atoms: C_5  and  C_6
REMARK    5  A    between atoms: C_11  and  C_12
REMARK    6  A    between atoms: C_11  and  N_18
REMARK                            x       y       z     vdW  Elec       q    Type
REMARK                         _______ _______ _______ _____ _____    ______ ____
ROOT
ATOM      1  C   UNL     1       3.657   5.744  19.524  0.00  0.00    +0.000 C 
ENDROOT
BRANCH   1   2
ATOM      2  C   UNL     1       2.651   4.599  19.615  0.00  0.00    +0.000 A 
ATOM      3  C   UNL     1       2.222   4.060  20.840  0.00  0.00    +0.000 A 
ATOM      4  C   UNL     1       1.302   3.011  20.880  0.00  0.00    +0.000 A 
ATOM      5  C   UNL     1       0.779   2.494  19.700  0.00  0.00    +0.000 A 
ATOM      6  C   UNL     1       1.173   3.028  18.476  0.00  0.00    +0.000 A 
ATOM      7  C   UNL     1       2.101   4.073  18.431  0.00  0.00    +0.000 A 
ENDBRANCH   1   2
BRANCH   1   8
ATOM      8  N   UNL     1       3.117   6.943  18.886  0.00  0.00    +0.000 N 
ATOM      9  C   UNL     1       2.092   7.728  19.318  0.00  0.00    +0.000 A 
ATOM     10  N   UNL     1       1.885   8.669  18.425  0.00  0.00    +0.000 NA
ATOM     11  N   UNL     1       2.796   8.447  17.420  0.00  0.00    +0.000 NA
ATOM     12  N   UNL     1       3.543   7.386  17.687  0.00  0.00    +0.000 NA
ENDBRANCH   1   8
BRANCH   1  14
ATOM     13  O   UNL     1       5.979   5.104  19.612  0.00  0.00    +0.000 OA
ATOM     14  C   UNL     1       4.991   5.318  18.907  0.00  0.00    +0.000 C 
ATOM     15  N   UNL     1       5.012   5.147  17.543  0.00  0.00    +0.000 N 
ATOM     16  H   UNL     1       4.180   5.367  17.002  0.00  0.00    +0.000 HD
BRANCH  15  17
ATOM     17  C   UNL     1       6.196   4.745  16.807  0.00  0.00    +0.000 C 
BRANCH  17  18
ATOM     18  C   UNL     1       5.872   3.818  15.638  0.00  0.00    +0.000 C 
BRANCH  18  19
ATOM     19  C   UNL     1       6.572   4.258  14.388  0.00  0.00    +0.000 A 
ATOM     20  N   UNL     1       7.494   5.200  14.345  0.00  0.00    +0.000 NA
ATOM     21  C   UNL     1       7.911   5.385  13.042  0.00  0.00    +0.000 A 
ATOM     22  C   UNL     1       7.308   4.578  12.104  0.00  0.00    +0.000 A 
ATOM     23  S   UNL     1       6.171   3.551  12.870  0.00  0.00    +0.000 S 
ENDBRANCH  18  19
ENDBRANCH  17  18
ENDBRANCH  15  17
ENDBRANCH   1  14
TORSDOF 6
ENDMDL
MODEL 4
REMARK VINA RESULT:      -7.1      3.253      6.542
REMARK  Name = 
REMARK  6 active torsions:
REMARK  status: ('A' for Active; 'I' for Inactive)
REMARK    1  A    between atoms: C_2  and  C_11
REMARK    2  A    between atoms: N_3  and  C_4
REMARK    3  A    between atoms: C_4  and  C_5
REMARK    4  A    between atoms: C_5  and  C_6
REMARK    5  A    between atoms: C_11  and  C_12
REMARK    6  A    between atoms: C_11  and  N_18
REMARK                            x       y       z     vdW  Elec       q    Type
REMARK                         _______ _______ _______ _____ _____    ______ ____
ROOT
ATOM      1  C   UNL     1       3.657   5.045  19.465  0.00  0.00    +0.000 C 
ENDROOT
BRANCH   1   2
ATOM      2  C   UNL     1       4.867   4.888  18.546  0.00  0.00    +0.000 A 
ATOM      3  C   UNL     1       4.762   4.418  17.226  0.00  0.00    +0.000 A 
ATOM      4  C   UNL     1       5.894   4.287  16.419  0.00  0.00    +0.000 A 
ATOM      5  C   UNL     1       7.146   4.641  16.908  0.00  0.00    +0.000 A 
ATOM      6  C   UNL     1       7.270   5.130  18.205  0.00  0.00    +0.000 A 
ATOM      7  C   UNL     1       6.140   5.254  19.020  0.00  0.00    +0.000 A 
ENDBRANCH   1   2
BRANCH   1   8
ATOM      8  N   UNL     1       2.696   3.950  19.351  0.00  0.00    +0.000 N 
ATOM      9  C   UNL     1       2.871   2.646  19.702  0.00  0.00    +0.000 A 
ATOM     10  N   UNL     1       1.784   1.981  19.382  0.00  0.00    +0.000 NA
ATOM     11  N   UNL     1       0.931   2.895  18.814  0.00  0.00    +0.000 NA
ATOM     12  N   UNL     1       1.486   4.098  18.778  0.00  0.00    +0.000 NA
ENDBRANCH   1   8
BRANCH   1  14
ATOM     13  O   UNL     1       3.062   7.066  18.295  0.00  0.00    +0.000 OA
ATOM     14  C   UNL     1       2.985   6.413  19.338  0.00  0.00    +0.000 C 
ATOM     15  N   UNL     1       2.263   6.848  20.424  0.00  0.00    +0.000 N 
ATOM     16  H   UNL     1       2.256   6.288  21.273  0.00  0.00    +0.000 HD
BRANCH  15  17
ATOM     17  C   UNL     1       1.567   8.120  20.462  0.00  0.00    +0.000 C 
BRANCH  17  18
ATOM     18  C   UNL     1       1.202   8.545  21.882  0.00  0.00    +0.000 C 
BRANCH  18  19
ATOM     19  C   UNL     1       0.332   9.767  21.875  0.00  0.00    +0.000 A 
ATOM     20  N   UNL     1      -0.040  10.419  22.959  0.00  0.00    +0.000 NA
ATOM     21  C   UNL     1      -0.860  11.474  22.609  0.00  0.00    +0.000 A 
ATOM     22  C   UNL     1      -1.102  11.617  21.261  0.00  0.00    +0.000 A 
ATOM     23  S   UNL     1      -0.281  10.391  20.392  0.00  0.00    +0.000 S 
ENDBRANCH  18  19
ENDBRANCH  17  18
ENDBRANCH  15  17
ENDBRANCH   1  14
TORSDOF 6
ENDMDL
MODEL 5
REMARK VINA RESULT:      -7.1      1.495      2.094
REMARK  Name = 
REMARK  6 active torsions:
REMARK  status: ('A' for Active; 'I' for Inactive)
REMARK    1  A    between atoms: C_2  and  C_11
REMARK    2  A    between atoms: N_3  and  C_4
REMARK    3  A    between atoms: C_4  and  C_5
REMARK    4  A    between atoms: C_5  and  C_6
REMARK    5  A    between atoms: C_11  and  C_12
REMARK    6  A    between atoms: C_11  and  N_18
REMARK                            x       y       z     vdW  Elec       q    Type
REMARK                         _______ _______ _______ _____ _____    ______ ____
ROOT
ATOM      1  C   UNL     1       1.835   4.071  18.897  0.00  0.00    +0.000 C 
ENDROOT
BRANCH   1   2
ATOM      2  C   UNL     1       1.913   5.588  19.055  0.00  0.00    +0.000 A 
ATOM      3  C   UNL     1       1.785   6.231  20.298  0.00  0.00    +0.000 A 
ATOM      4  C   UNL     1       1.859   7.621  20.399  0.00  0.00    +0.000 A 
ATOM      5  C   UNL     1       2.081   8.393  19.264  0.00  0.00    +0.000 A 
ATOM      6  C   UNL     1       2.233   7.776  18.025  0.00  0.00    +0.000 A 
ATOM      7  C   UNL     1       2.150   6.385  17.919  0.00  0.00    +0.000 A 
ENDBRANCH   1   2
BRANCH   1   8
ATOM      8  N   UNL     1       2.025   3.346  20.152  0.00  0.00    +0.000 N 
ATOM      9  C   UNL     1       1.076   2.990  21.061  0.00  0.00    +0.000 A 
ATOM     10  N   UNL     1       1.673   2.405  22.076  0.00  0.00    +0.000 NA
ATOM     11  N   UNL     1       3.015   2.415  21.785  0.00  0.00    +0.000 NA
ATOM     12  N   UNL     1       3.240   3.001  20.618  0.00  0.00    +0.000 NA
ENDBRANCH   1   8
BRANCH   1  14
ATOM     13  O   UNL     1       2.337   2.700  16.979  0.00  0.00    +0.000 OA
ATOM     14  C   UNL     1       2.742   3.540  17.786  0.00  0.00    +0.000 C 
ATOM     15  N   UNL     1       4.005   4.078  17.713  0.00  0.00    +0.000 N 
ATOM     16  H   UNL     1       4.304   4.743  18.421  0.00  0.00    +0.000 HD
BRANCH  15  17
ATOM     17  C   UNL     1       4.984   3.682  16.717  0.00  0.00    +0.000 C 
BRANCH  17  18
ATOM     18  C   UNL     1       5.519   4.869  15.919  0.00  0.00    +0.000 C 
BRANCH  18  19
ATOM     19  C   UNL     1       6.368   5.760  16.775  0.00  0.00    +0.000 A 
ATOM     20  N   UNL     1       6.442   7.069  16.639  0.00  0.00    +0.000 NA
ATOM     21  C   UNL     1       7.334   7.583  17.559  0.00  0.00    +0.000 A 
ATOM     22  C   UNL     1       7.927   6.661  18.392  0.00  0.00    +0.000 A 
ATOM     23  S   UNL     1       7.359   5.090  18.014  0.00  0.00    +0.000 S 
ENDBRANCH  18  19
ENDBRANCH  17  18
ENDBRANCH  15  17
ENDBRANCH   1  14
TORSDOF 6
ENDMDL
MODEL 6
REMARK VINA RESULT:      -7.1      4.120      6.376
REMARK  Name = 
REMARK  6 active torsions:
REMARK  status: ('A' for Active; 'I' for Inactive)
REMARK    1  A    between atoms: C_2  and  C_11
REMARK    2  A    between atoms: N_3  and  C_4
REMARK    3  A    between atoms: C_4  and  C_5
REMARK    4  A    between atoms: C_5  and  C_6
REMARK    5  A    between atoms: C_11  and  C_12
REMARK    6  A    between atoms: C_11  and  N_18
REMARK                            x       y       z     vdW  Elec       q    Type
REMARK                         _______ _______ _______ _____ _____    ______ ____
ROOT
ATOM      1  C   UNL     1       5.671   6.309  16.774  0.00  0.00    +0.000 C 
ENDROOT
BRANCH   1   2
ATOM      2  C   UNL     1       4.619   5.483  17.512  0.00  0.00    +0.000 A 
ATOM      3  C   UNL     1       4.811   4.131  17.843  0.00  0.00    +0.000 A 
ATOM      4  C   UNL     1       3.823   3.409  18.516  0.00  0.00    +0.000 A 
ATOM      5  C   UNL     1       2.635   4.029  18.887  0.00  0.00    +0.000 A 
ATOM      6  C   UNL     1       2.433   5.374  18.590  0.00  0.00    +0.000 A 
ATOM      7  C   UNL     1       3.417   6.097  17.908  0.00  0.00    +0.000 A 
ENDBRANCH   1   2
BRANCH   1   8
ATOM      8  N   UNL     1       6.223   5.634  15.602  0.00  0.00    +0.000 N 
ATOM      9  C   UNL     1       5.585   4.784  14.752  0.00  0.00    +0.000 A 
ATOM     10  N   UNL     1       6.455   4.352  13.866  0.00  0.00    +0.000 NA
ATOM     11  N   UNL     1       7.652   4.943  14.190  0.00  0.00    +0.000 NA
ATOM     12  N   UNL     1       7.522   5.716  15.258  0.00  0.00    +0.000 NA
ENDBRANCH   1   8
BRANCH   1  14
ATOM     13  O   UNL     1       7.143   6.195  18.679  0.00  0.00    +0.000 OA
ATOM     14  C   UNL     1       6.767   6.841  17.699  0.00  0.00    +0.000 C 
ATOM     15  N   UNL     1       7.331   8.047  17.355  0.00  0.00    +0.000 N 
ATOM     16  H   UNL     1       6.964   8.558  16.557  0.00  0.00    +0.000 HD
BRANCH  15  17
ATOM     17  C   UNL     1       8.381   8.686  18.127  0.00  0.00    +0.000 C 
BRANCH  17  18
ATOM     18  C   UNL     1       8.412  10.200  17.932  0.00  0.00    +0.000 C 
BRANCH  18  19
ATOM     19  C   UNL     1       9.419  10.842  18.837  0.00  0.00    +0.000 A 
ATOM     20  N   UNL     1       9.300  10.914  20.148  0.00  0.00    +0.000 NA
ATOM     21  C   UNL     1      10.379  11.594  20.677  0.00  0.00    +0.000 A 
ATOM     22  C   UNL     1      11.313  12.030  19.765  0.00  0.00    +0.000 A 
ATOM     23  S   UNL     1      10.831  11.582  18.184  0.00  0.00    +0.000 S 
ENDBRANCH  18  19
ENDBRANCH  17  18
ENDBRANCH  15  17
ENDBRANCH   1  14
TORSDOF 6
ENDMDL
MODEL 7
REMARK VINA RESULT:      -6.9      2.334      5.674
REMARK  Name = 
REMARK  6 active torsions:
REMARK  status: ('A' for Active; 'I' for Inactive)
REMARK    1  A    between atoms: C_2  and  C_11
REMARK    2  A    between atoms: N_3  and  C_4
REMARK    3  A    between atoms: C_4  and  C_5
REMARK    4  A    between atoms: C_5  and  C_6
REMARK    5  A    between atoms: C_11  and  C_12
REMARK    6  A    between atoms: C_11  and  N_18
REMARK                            x       y       z     vdW  Elec       q    Type
REMARK                         _______ _______ _______ _____ _____    ______ ____
ROOT
ATOM      1  C   UNL     1       5.436   5.121  18.000  0.00  0.00    +0.000 C 
ENDROOT
BRANCH   1   2
ATOM      2  C   UNL     1       4.321   6.151  18.174  0.00  0.00    +0.000 A 
ATOM      3  C   UNL     1       4.095   7.188  17.253  0.00  0.00    +0.000 A 
ATOM      4  C   UNL     1       3.066   8.111  17.450  0.00  0.00    +0.000 A 
ATOM      5  C   UNL     1       2.234   8.004  18.559  0.00  0.00    +0.000 A 
ATOM      6  C   UNL     1       2.426   6.971  19.472  0.00  0.00    +0.000 A 
ATOM      7  C   UNL     1       3.461   6.050  19.283  0.00  0.00    +0.000 A 
ENDBRANCH   1   2
BRANCH   1   8
ATOM      8  N   UNL     1       5.978   5.075  16.644  0.00  0.00    +0.000 N 
ATOM      9  C   UNL     1       7.199   5.499  16.218  0.00  0.00    +0.000 A 
ATOM     10  N   UNL     1       7.265   5.332  14.916  0.00  0.00    +0.000 NA
ATOM     11  N   UNL     1       6.055   4.805  14.538  0.00  0.00    +0.000 NA
ATOM     12  N   UNL     1       5.257   4.658  15.585  0.00  0.00    +0.000 NA
ENDBRANCH   1   8
BRANCH   1  14
ATOM     13  O   UNL     1       5.453   3.320  19.601  0.00  0.00    +0.000 OA
ATOM     14  C   UNL     1       5.050   3.733  18.512  0.00  0.00    +0.000 C 
ATOM     15  N   UNL     1       4.203   2.997  17.716  0.00  0.00    +0.000 N 
ATOM     16  H   UNL     1       3.925   3.367  16.811  0.00  0.00    +0.000 HD
BRANCH  15  17
ATOM     17  C   UNL     1       3.743   1.665  18.059  0.00  0.00    +0.000 C 
BRANCH  17  18
ATOM     18  C   UNL     1       2.234   1.607  18.287  0.00  0.00    +0.000 C 
BRANCH  18  19
ATOM     19  C   UNL     1       1.826   2.482  19.434  0.00  0.00    +0.000 A 
ATOM     20  N   UNL     1       0.929   3.445  19.350  0.00  0.00    +0.000 NA
ATOM     21  C   UNL     1       0.810   4.077  20.572  0.00  0.00    +0.000 A 
ATOM     22  C   UNL     1       1.613   3.586  21.577  0.00  0.00    +0.000 A 
ATOM     23  S   UNL     1       2.560   2.289  20.980  0.00  0.00    +0.000 S 
ENDBRANCH  18  19
ENDBRANCH  17  18
ENDBRANCH  15  17
ENDBRANCH   1  14
TORSDOF 6
ENDMDL
MODEL 8
REMARK VINA RESULT:      -6.9      2.118      3.695
REMARK  Name = 
REMARK  6 active torsions:
REMARK  status: ('A' for Active; 'I' for Inactive)
REMARK    1  A    between atoms: C_2  and  C_11
REMARK    2  A    between atoms: N_3  and  C_4
REMARK    3  A    between atoms: C_4  and  C_5
REMARK    4  A    between atoms: C_5  and  C_6
REMARK    5  A    between atoms: C_11  and  C_12
REMARK    6  A    between atoms: C_11  and  N_18
REMARK                            x       y       z     vdW  Elec       q    Type
REMARK                         _______ _______ _______ _____ _____    ______ ____
ROOT
ATOM      1  C   UNL     1       3.520   5.500  19.769  0.00  0.00    +0.000 C 
ENDROOT
BRANCH   1   2
ATOM      2  C   UNL     1       2.502   4.362  19.749  0.00  0.00    +0.000 A 
ATOM      3  C   UNL     1       1.813   3.979  18.586  0.00  0.00    +0.000 A 
ATOM      4  C   UNL     1       0.888   2.934  18.610  0.00  0.00    +0.000 A 
ATOM      5  C   UNL     1       0.647   2.241  19.791  0.00  0.00    +0.000 A 
ATOM      6  C   UNL     1       1.335   2.588  20.950  0.00  0.00    +0.000 A 
ATOM      7  C   UNL     1       2.256   3.639  20.932  0.00  0.00    +0.000 A 
ENDBRANCH   1   2
BRANCH   1   8
ATOM      8  N   UNL     1       3.006   6.749  19.212  0.00  0.00    +0.000 N 
ATOM      9  C   UNL     1       2.083   7.588  19.756  0.00  0.00    +0.000 A 
ATOM     10  N   UNL     1       1.858   8.565  18.906  0.00  0.00    +0.000 NA
ATOM     11  N   UNL     1       2.653   8.311  17.816  0.00  0.00    +0.000 NA
ATOM     12  N   UNL     1       3.347   7.196  17.988  0.00  0.00    +0.000 NA
ENDBRANCH   1   8
BRANCH   1  14
ATOM     13  O   UNL     1       5.011   4.027  18.579  0.00  0.00    +0.000 OA
ATOM     14  C   UNL     1       4.865   5.108  19.155  0.00  0.00    +0.000 C 
ATOM     15  N   UNL     1       5.876   6.035  19.242  0.00  0.00    +0.000 N 
ATOM     16  H   UNL     1       5.716   6.898  19.755  0.00  0.00    +0.000 HD
BRANCH  15  17
ATOM     17  C   UNL     1       7.207   5.817  18.709  0.00  0.00    +0.000 C 
BRANCH  17  18
ATOM     18  C   UNL     1       7.410   6.481  17.349  0.00  0.00    +0.000 C 
BRANCH  18  19
ATOM     19  C   UNL     1       6.870   5.625  16.243  0.00  0.00    +0.000 A 
ATOM     20  N   UNL     1       7.482   4.561  15.761  0.00  0.00    +0.000 NA
ATOM     21  C   UNL     1       6.736   4.021  14.732  0.00  0.00    +0.000 A 
ATOM     22  C   UNL     1       5.560   4.676  14.442  0.00  0.00    +0.000 A 
ATOM     23  S   UNL     1       5.374   6.020  15.487  0.00  0.00    +0.000 S 
ENDBRANCH  18  19
ENDBRANCH  17  18
ENDBRANCH  15  17
ENDBRANCH   1  14
TORSDOF 6
ENDMDL
MODEL 9
REMARK VINA RESULT:      -6.9      3.450      6.479
REMARK  Name = 
REMARK  6 active torsions:
REMARK  status: ('A' for Active; 'I' for Inactive)
REMARK    1  A    between atoms: C_2  and  C_11
REMARK    2  A    between atoms: N_3  and  C_4
REMARK    3  A    between atoms: C_4  and  C_5
REMARK    4  A    between atoms: C_5  and  C_6
REMARK    5  A    between atoms: C_11  and  C_12
REMARK    6  A    between atoms: C_11  and  N_18
REMARK                            x       y       z     vdW  Elec       q    Type
REMARK                         _______ _______ _______ _____ _____    ______ ____
ROOT
ATOM      1  C   UNL     1       3.645   5.062  19.452  0.00  0.00    +0.000 C 
ENDROOT
BRANCH   1   2
ATOM      2  C   UNL     1       4.843   4.924  18.513  0.00  0.00    +0.000 A 
ATOM      3  C   UNL     1       6.160   5.200  18.917  0.00  0.00    +0.000 A 
ATOM      4  C   UNL     1       7.227   5.064  18.027  0.00  0.00    +0.000 A 
ATOM      5  C   UNL     1       7.001   4.634  16.725  0.00  0.00    +0.000 A 
ATOM      6  C   UNL     1       5.707   4.334  16.310  0.00  0.00    +0.000 A 
ATOM      7  C   UNL     1       4.634   4.477  17.195  0.00  0.00    +0.000 A 
ENDBRANCH   1   2
BRANCH   1   8
ATOM      8  N   UNL     1       2.694   3.958  19.344  0.00  0.00    +0.000 N 
ATOM      9  C   UNL     1       2.909   2.642  19.618  0.00  0.00    +0.000 A 
ATOM     10  N   UNL     1       1.813   1.975  19.334  0.00  0.00    +0.000 NA
ATOM     11  N   UNL     1       0.913   2.901  18.867  0.00  0.00    +0.000 NA
ATOM     12  N   UNL     1       1.448   4.114  18.856  0.00  0.00    +0.000 NA
ENDBRANCH   1   8
BRANCH   1  14
ATOM     13  O   UNL     1       3.032   7.096  18.315  0.00  0.00    +0.000 OA
ATOM     14  C   UNL     1       2.958   6.424  19.345  0.00  0.00    +0.000 C 
ATOM     15  N   UNL     1       2.226   6.831  20.436  0.00  0.00    +0.000 N 
ATOM     16  H   UNL     1       2.223   6.257  21.275  0.00  0.00    +0.000 HD
BRANCH  15  17
ATOM     17  C   UNL     1       1.515   8.094  20.493  0.00  0.00    +0.000 C 
BRANCH  17  18
ATOM     18  C   UNL     1       1.456   8.669  21.906  0.00  0.00    +0.000 C 
BRANCH  18  19
ATOM     19  C   UNL     1       0.671   9.946  21.939  0.00  0.00    +0.000 A 
ATOM     20  N   UNL     1       0.965  11.017  21.229  0.00  0.00    +0.000 NA
ATOM     21  C   UNL     1       0.067  12.026  21.515  0.00  0.00    +0.000 A 
ATOM     22  C   UNL     1      -0.907  11.713  22.436  0.00  0.00    +0.000 A 
ATOM     23  S   UNL     1      -0.697  10.100  22.975  0.00  0.00    +0.000 S 
ENDBRANCH  18  19
ENDBRANCH  17  18
ENDBRANCH  15  17
ENDBRANCH   1  14
TORSDOF 6
ENDMDL
