MODEL 1
REMARK VINA RESULT:      -7.2      0.000      0.000
REMARK  Name = 
REMARK  11 active torsions:
REMARK  status: ('A' for Active; 'I' for Inactive)
REMARK    1  A    between atoms: C_1  and  C_2
REMARK    2  A    between atoms: C_5  and  C_6
REMARK    3  A    between atoms: C_6  and  C_7
REMARK    4  A    between atoms: C_6  and  O_8
REMARK    5  A    between atoms: C_6  and  C_9
REMARK    6  A    between atoms: C_9  and  O_10
REMARK    7  A    between atoms: C_9  and  C_11
REMARK    8  A    between atoms: C_11  and  C_12
REMARK    9  A    between atoms: C_13  and  C_14
REMARK   10  A    between atoms: C_13  and  C_15
REMARK   11  A    between atoms: C_15  and  O_17
REMARK                            x       y       z     vdW  Elec       q    Type
REMARK                         _______ _______ _______ _____ _____    ______ ____
ROOT
ATOM      1  C   UNL     1       3.817   3.571  17.757  0.00  0.00    +0.000 C 
ATOM      2  C   UNL     1       3.498   2.069  17.871  0.00  0.00    +0.000 C 
ENDROOT
BRANCH   1   7
ATOM      3  C   UNL     1       1.360   2.740  21.779  0.00  0.00    +0.000 C 
ATOM      4  C   UNL     1       1.534   3.538  20.521  0.00  0.00    +0.000 C 
ATOM      5  C   UNL     1       0.915   3.197  19.375  0.00  0.00    +0.000 C 
ATOM      6  C   UNL     1       1.229   3.836  18.051  0.00  0.00    +0.000 C 
ATOM      7  C   UNL     1       2.607   4.549  18.032  0.00  0.00    +0.000 C 
ATOM      8  C   UNL     1       2.663   5.452  19.277  0.00  0.00    +0.000 C 
ATOM      9  C   UNL     1       2.504   4.694  20.597  0.00  0.00    +0.000 C 
ENDBRANCH   1   7
BRANCH   1  10
ATOM     10  O   UNL     1       4.183   3.823  16.376  0.00  0.00    +0.000 OA
ATOM     11  H   UNL     1       3.629   3.274  15.796  0.00  0.00    +0.000 HD
ENDBRANCH   1  10
BRANCH   1  12
ATOM     12  C   UNL     1       5.072   3.932  18.632  0.00  0.00    +0.000 C 
BRANCH  12  13
ATOM     13  O   UNL     1       5.339   2.932  19.617  0.00  0.00    +0.000 OA
ATOM     14  H   UNL     1       5.347   2.061  19.187  0.00  0.00    +0.000 HD
ENDBRANCH  12  13
BRANCH  12  15
ATOM     15  C   UNL     1       6.343   4.153  17.779  0.00  0.00    +0.000 C 
BRANCH  15  16
ATOM     16  C   UNL     1       7.070   5.436  18.080  0.00  0.00    +0.000 C 
ATOM     17  C   UNL     1       6.787   6.657  17.576  0.00  0.00    +0.000 C 
ATOM     18  C   UNL     1       5.624   6.955  16.683  0.00  0.00    +0.000 C 
BRANCH  17  19
ATOM     19  C   UNL     1       7.770   7.729  17.912  0.00  0.00    +0.000 C 
ATOM     20  O   UNL     1       7.834   8.797  17.320  0.00  0.00    +0.000 OA
BRANCH  19  21
ATOM     21  O   UNL     1       8.574   7.441  18.952  0.00  0.00    +0.000 OA
ATOM     22  H   UNL     1       8.153   7.444  19.827  0.00  0.00    +0.000 HD
ENDBRANCH  19  21
ENDBRANCH  17  19
ENDBRANCH  15  16
ENDBRANCH  12  15
ENDBRANCH   1  12
TORSDOF 8
ENDMDL
MODEL 2
REMARK VINA RESULT:      -7.2      0.635      1.049
REMARK  Name = 
REMARK  11 active torsions:
REMARK  status: ('A' for Active; 'I' for Inactive)
REMARK    1  A    between atoms: C_1  and  C_2
REMARK    2  A    between atoms: C_5  and  C_6
REMARK    3  A    between atoms: C_6  and  C_7
REMARK    4  A    between atoms: C_6  and  O_8
REMARK    5  A    between atoms: C_6  and  C_9
REMARK    6  A    between atoms: C_9  and  O_10
REMARK    7  A    between atoms: C_9  and  C_11
REMARK    8  A    between atoms: C_11  and  C_12
REMARK    9  A    between atoms: C_13  and  C_14
REMARK   10  A    between atoms: C_13  and  C_15
REMARK   11  A    between atoms: C_15  and  O_17
REMARK                            x       y       z     vdW  Elec       q    Type
REMARK                         _______ _______ _______ _____ _____    ______ ____
ROOT
ATOM      1  C   UNL     1       3.881   3.758  17.601  0.00  0.00    +0.000 C 
ATOM      2  C   UNL     1       3.620   2.251  17.780  0.00  0.00    +0.000 C 
ENDROOT
BRANCH   1   7
ATOM      3  C   UNL     1       1.444   2.794  21.606  0.00  0.00    +0.000 C 
ATOM      4  C   UNL     1       1.600   3.620  20.364  0.00  0.00    +0.000 C 
ATOM      5  C   UNL     1       0.988   3.289  19.212  0.00  0.00    +0.000 C 
ATOM      6  C   UNL     1       1.288   3.960  17.901  0.00  0.00    +0.000 C 
ATOM      7  C   UNL     1       2.649   4.703  17.896  0.00  0.00    +0.000 C 
ATOM      8  C   UNL     1       2.687   5.583  19.159  0.00  0.00    +0.000 C 
ATOM      9  C   UNL     1       2.545   4.795  20.464  0.00  0.00    +0.000 C 
ENDBRANCH   1   7
BRANCH   1  10
ATOM     10  O   UNL     1       4.179   3.973  16.198  0.00  0.00    +0.000 OA
ATOM     11  H   UNL     1       4.122   3.124  15.728  0.00  0.00    +0.000 HD
ENDBRANCH   1  10
BRANCH   1  12
ATOM     12  C   UNL     1       5.158   4.191  18.408  0.00  0.00    +0.000 C 
BRANCH  12  13
ATOM     13  O   UNL     1       5.444   3.287  19.477  0.00  0.00    +0.000 OA
ATOM     14  H   UNL     1       5.845   3.783  20.210  0.00  0.00    +0.000 HD
ENDBRANCH  12  13
BRANCH  12  15
ATOM     15  C   UNL     1       6.409   4.322  17.508  0.00  0.00    +0.000 C 
BRANCH  15  16
ATOM     16  C   UNL     1       6.966   5.718  17.429  0.00  0.00    +0.000 C 
ATOM     17  C   UNL     1       7.693   6.349  18.377  0.00  0.00    +0.000 C 
ATOM     18  C   UNL     1       8.145   5.717  19.656  0.00  0.00    +0.000 C 
BRANCH  17  19
ATOM     19  C   UNL     1       7.978   7.789  18.109  0.00  0.00    +0.000 C 
ATOM     20  O   UNL     1       7.470   8.420  17.194  0.00  0.00    +0.000 OA
BRANCH  19  21
ATOM     21  O   UNL     1       8.827   8.360  18.984  0.00  0.00    +0.000 OA
ATOM     22  H   UNL     1       8.826   9.330  19.003  0.00  0.00    +0.000 HD
ENDBRANCH  19  21
ENDBRANCH  17  19
ENDBRANCH  15  16
ENDBRANCH  12  15
ENDBRANCH   1  12
TORSDOF 8
ENDMDL
MODEL 3
REMARK VINA RESULT:      -7.2      2.173      3.440
REMARK  Name = 
REMARK  11 active torsions:
REMARK  status: ('A' for Active; 'I' for Inactive)
REMARK    1  A    between atoms: C_1  and  C_2
REMARK    2  A    between atoms: C_5  and  C_6
REMARK    3  A    between atoms: C_6  and  C_7
REMARK    4  A    between atoms: C_6  and  O_8
REMARK    5  A    between atoms: C_6  and  C_9
REMARK    6  A    between atoms: C_9  and  O_10
REMARK    7  A    between atoms: C_9  and  C_11
REMARK    8  A    between atoms: C_11  and  C_12
REMARK    9  A    between atoms: C_13  and  C_14
REMARK   10  A    between atoms: C_13  and  C_15
REMARK   11  A    between atoms: C_15  and  O_17
REMARK                            x       y       z     vdW  Elec       q    Type
REMARK                         _______ _______ _______ _____ _____    ______ ____
ROOT
ATOM      1  C   UNL     1       3.411   5.709  18.720  0.00  0.00    +0.000 C 
ATOM      2  C   UNL     1       2.386   6.254  19.732  0.00  0.00    +0.000 C 
ENDROOT
BRANCH   1   7
ATOM      3  C   UNL     1       1.552   2.516  21.762  0.00  0.00    +0.000 C 
ATOM      4  C   UNL     1       2.042   2.843  20.383  0.00  0.00    +0.000 C 
ATOM      5  C   UNL     1       3.319   2.628  20.016  0.00  0.00    +0.000 C 
ATOM      6  C   UNL     1       3.900   3.137  18.726  0.00  0.00    +0.000 C 
ATOM      7  C   UNL     1       3.075   4.293  18.104  0.00  0.00    +0.000 C 
ATOM      8  C   UNL     1       1.605   3.836  18.079  0.00  0.00    +0.000 C 
ATOM      9  C   UNL     1       1.040   3.498  19.461  0.00  0.00    +0.000 C 
ENDBRANCH   1   7
BRANCH   1  10
ATOM     10  O   UNL     1       4.653   5.508  19.442  0.00  0.00    +0.000 OA
ATOM     11  H   UNL     1       4.474   4.986  20.241  0.00  0.00    +0.000 HD
ENDBRANCH   1  10
BRANCH   1  12
ATOM     12  C   UNL     1       3.702   6.779  17.605  0.00  0.00    +0.000 C 
BRANCH  12  13
ATOM     13  O   UNL     1       3.173   8.062  17.949  0.00  0.00    +0.000 OA
ATOM     14  H   UNL     1       2.271   8.135  17.597  0.00  0.00    +0.000 HD
ENDBRANCH  12  13
BRANCH  12  15
ATOM     15  C   UNL     1       5.211   6.919  17.301  0.00  0.00    +0.000 C 
BRANCH  15  16
ATOM     16  C   UNL     1       5.663   6.173  16.074  0.00  0.00    +0.000 C 
ATOM     17  C   UNL     1       6.587   5.189  16.027  0.00  0.00    +0.000 C 
ATOM     18  C   UNL     1       7.267   4.608  17.227  0.00  0.00    +0.000 C 
BRANCH  17  19
ATOM     19  C   UNL     1       6.966   4.735  14.657  0.00  0.00    +0.000 C 
ATOM     20  O   UNL     1       7.733   5.347  13.929  0.00  0.00    +0.000 OA
BRANCH  19  21
ATOM     21  O   UNL     1       6.415   3.564  14.286  0.00  0.00    +0.000 OA
ATOM     22  H   UNL     1       6.371   2.880  14.974  0.00  0.00    +0.000 HD
ENDBRANCH  19  21
ENDBRANCH  17  19
ENDBRANCH  15  16
ENDBRANCH  12  15
ENDBRANCH   1  12
TORSDOF 8
ENDMDL
MODEL 4
REMARK VINA RESULT:      -7.0      1.093      1.696
REMARK  Name = 
REMARK  11 active torsions:
REMARK  status: ('A' for Active; 'I' for Inactive)
REMARK    1  A    between atoms: C_1  and  C_2
REMARK    2  A    between atoms: C_5  and  C_6
REMARK    3  A    between atoms: C_6  and  C_7
REMARK    4  A    between atoms: C_6  and  O_8
REMARK    5  A    between atoms: C_6  and  C_9
REMARK    6  A    between atoms: C_9  and  O_10
REMARK    7  A    between atoms: C_9  and  C_11
REMARK    8  A    between atoms: C_11  and  C_12
REMARK    9  A    between atoms: C_13  and  C_14
REMARK   10  A    between atoms: C_13  and  C_15
REMARK   11  A    between atoms: C_15  and  O_17
REMARK                            x       y       z     vdW  Elec       q    Type
REMARK                         _______ _______ _______ _____ _____    ______ ____
ROOT
ATOM      1  C   UNL     1       4.240   3.862  17.885  0.00  0.00    +0.000 C 
ATOM      2  C   UNL     1       5.021   3.863  19.212  0.00  0.00    +0.000 C 
ENDROOT
BRANCH   1   7
ATOM      3  C   UNL     1       1.349   2.765  21.538  0.00  0.00    +0.000 C 
ATOM      4  C   UNL     1       1.584   3.531  20.270  0.00  0.00    +0.000 C 
ATOM      5  C   UNL     1       1.223   3.041  19.070  0.00  0.00    +0.000 C 
ATOM      6  C   UNL     1       1.631   3.673  17.769  0.00  0.00    +0.000 C 
ATOM      7  C   UNL     1       2.853   4.619  17.910  0.00  0.00    +0.000 C 
ATOM      8  C   UNL     1       2.556   5.566  19.086  0.00  0.00    +0.000 C 
ATOM      9  C   UNL     1       2.319   4.844  20.415  0.00  0.00    +0.000 C 
ENDBRANCH   1   7
BRANCH   1  10
ATOM     10  O   UNL     1       3.899   2.482  17.595  0.00  0.00    +0.000 OA
ATOM     11  H   UNL     1       2.988   2.445  17.260  0.00  0.00    +0.000 HD
ENDBRANCH   1  10
BRANCH   1  12
ATOM     12  C   UNL     1       5.158   4.360  16.710  0.00  0.00    +0.000 C 
BRANCH  12  13
ATOM     13  O   UNL     1       4.728   5.623  16.198  0.00  0.00    +0.000 OA
ATOM     14  H   UNL     1       3.783   5.736  16.393  0.00  0.00    +0.000 HD
ENDBRANCH  12  13
BRANCH  12  15
ATOM     15  C   UNL     1       6.644   4.461  17.123  0.00  0.00    +0.000 C 
BRANCH  15  16
ATOM     16  C   UNL     1       7.173   5.869  17.174  0.00  0.00    +0.000 C 
ATOM     17  C   UNL     1       7.740   6.477  18.239  0.00  0.00    +0.000 C 
ATOM     18  C   UNL     1       8.019   5.805  19.547  0.00  0.00    +0.000 C 
BRANCH  17  19
ATOM     19  C   UNL     1       8.026   7.931  18.067  0.00  0.00    +0.000 C 
ATOM     20  O   UNL     1       7.545   8.614  17.175  0.00  0.00    +0.000 OA
BRANCH  19  21
ATOM     21  O   UNL     1       8.843   8.453  19.002  0.00  0.00    +0.000 OA
ATOM     22  H   UNL     1       9.727   8.709  18.696  0.00  0.00    +0.000 HD
ENDBRANCH  19  21
ENDBRANCH  17  19
ENDBRANCH  15  16
ENDBRANCH  12  15
ENDBRANCH   1  12
TORSDOF 8
ENDMDL
MODEL 5
REMARK VINA RESULT:      -6.9      3.507      5.522
REMARK  Name = 
REMARK  11 active torsions:
REMARK  status: ('A' for Active; 'I' for Inactive)
REMARK    1  A    between atoms: C_1  and  C_2
REMARK    2  A    between atoms: C_5  and  C_6
REMARK    3  A    between atoms: C_6  and  C_7
REMARK    4  A    between atoms: C_6  and  O_8
REMARK    5  A    between atoms: C_6  and  C_9
REMARK    6  A    between atoms: C_9  and  O_10
REMARK    7  A    between atoms: C_9  and  C_11
REMARK    8  A    between atoms: C_11  and  C_12
REMARK    9  A    between atoms: C_13  and  C_14
REMARK   10  A    between atoms: C_13  and  C_15
REMARK   11  A    between atoms: C_15  and  O_17
REMARK                            x       y       z     vdW  Elec       q    Type
REMARK                         _______ _______ _______ _____ _____    ______ ____
ROOT
ATOM      1  C   UNL     1       6.678   5.192  17.036  0.00  0.00    +0.000 C 
ATOM      2  C   UNL     1       7.134   6.549  17.604  0.00  0.00    +0.000 C 
ENDROOT
BRANCH   1   7
ATOM      3  C   UNL     1       2.284   6.652  18.248  0.00  0.00    +0.000 C 
ATOM      4  C   UNL     1       3.395   5.656  18.401  0.00  0.00    +0.000 C 
ATOM      5  C   UNL     1       4.339   5.789  19.351  0.00  0.00    +0.000 C 
ATOM      6  C   UNL     1       5.580   4.941  19.399  0.00  0.00    +0.000 C 
ATOM      7  C   UNL     1       5.901   4.256  18.045  0.00  0.00    +0.000 C 
ATOM      8  C   UNL     1       4.606   3.577  17.565  0.00  0.00    +0.000 C 
ATOM      9  C   UNL     1       3.434   4.544  17.378  0.00  0.00    +0.000 C 
ENDBRANCH   1   7
BRANCH   1  10
ATOM     10  O   UNL     1       7.877   4.449  16.698  0.00  0.00    +0.000 OA
ATOM     11  H   UNL     1       7.622   3.600  16.300  0.00  0.00    +0.000 HD
ENDBRANCH   1  10
BRANCH   1  12
ATOM     12  C   UNL     1       5.880   5.399  15.697  0.00  0.00    +0.000 C 
BRANCH  12  13
ATOM     13  O   UNL     1       5.487   6.762  15.518  0.00  0.00    +0.000 OA
ATOM     14  H   UNL     1       4.646   6.785  15.032  0.00  0.00    +0.000 HD
ENDBRANCH  12  13
BRANCH  12  15
ATOM     15  C   UNL     1       6.679   4.937  14.456  0.00  0.00    +0.000 C 
BRANCH  15  16
ATOM     16  C   UNL     1       5.976   3.897  13.626  0.00  0.00    +0.000 C 
ATOM     17  C   UNL     1       6.257   3.565  12.346  0.00  0.00    +0.000 C 
ATOM     18  C   UNL     1       7.395   4.132  11.556  0.00  0.00    +0.000 C 
BRANCH  17  19
ATOM     19  C   UNL     1       5.297   2.618  11.707  0.00  0.00    +0.000 C 
ATOM     20  O   UNL     1       4.165   2.928  11.369  0.00  0.00    +0.000 OA
BRANCH  19  21
ATOM     21  O   UNL     1       5.791   1.383  11.498  0.00  0.00    +0.000 OA
ATOM     22  H   UNL     1       5.139   0.664  11.477  0.00  0.00    +0.000 HD
ENDBRANCH  19  21
ENDBRANCH  17  19
ENDBRANCH  15  16
ENDBRANCH  12  15
ENDBRANCH   1  12
TORSDOF 8
ENDMDL
MODEL 6
REMARK VINA RESULT:      -6.9      2.177      6.046
REMARK  Name = 
REMARK  11 active torsions:
REMARK  status: ('A' for Active; 'I' for Inactive)
REMARK    1  A    between atoms: C_1  and  C_2
REMARK    2  A    between atoms: C_5  and  C_6
REMARK    3  A    between atoms: C_6  and  C_7
REMARK    4  A    between atoms: C_6  and  O_8
REMARK    5  A    between atoms: C_6  and  C_9
REMARK    6  A    between atoms: C_9  and  O_10
REMARK    7  A    between atoms: C_9  and  C_11
REMARK    8  A    between atoms: C_11  and  C_12
REMARK    9  A    between atoms: C_13  and  C_14
REMARK   10  A    between atoms: C_13  and  C_15
REMARK   11  A    between atoms: C_15  and  O_17
REMARK                            x       y       z     vdW  Elec       q    Type
REMARK                         _______ _______ _______ _____ _____    ______ ____
ROOT
ATOM      1  C   UNL     1       4.080   4.489  17.546  0.00  0.00    +0.000 C 
ATOM      2  C   UNL     1       4.827   4.105  18.836  0.00  0.00    +0.000 C 
ENDROOT
BRANCH   1   7
ATOM      3  C   UNL     1       8.073   6.938  18.525  0.00  0.00    +0.000 C 
ATOM      4  C   UNL     1       7.172   6.302  17.508  0.00  0.00    +0.000 C 
ATOM      5  C   UNL     1       6.195   6.996  16.896  0.00  0.00    +0.000 C 
ATOM      6  C   UNL     1       5.141   6.350  16.041  0.00  0.00    +0.000 C 
ATOM      7  C   UNL     1       4.995   4.829  16.303  0.00  0.00    +0.000 C 
ATOM      8  C   UNL     1       6.410   4.224  16.249  0.00  0.00    +0.000 C 
ATOM      9  C   UNL     1       7.377   4.824  17.273  0.00  0.00    +0.000 C 
ENDBRANCH   1   7
BRANCH   1  10
ATOM     10  O   UNL     1       3.365   5.721  17.821  0.00  0.00    +0.000 OA
ATOM     11  H   UNL     1       3.515   6.344  17.091  0.00  0.00    +0.000 HD
ENDBRANCH   1  10
BRANCH   1  12
ATOM     12  C   UNL     1       2.997   3.404  17.196  0.00  0.00    +0.000 C 
BRANCH  12  13
ATOM     13  O   UNL     1       3.483   2.078  17.416  0.00  0.00    +0.000 OA
ATOM     14  H   UNL     1       3.619   1.947  18.368  0.00  0.00    +0.000 HD
ENDBRANCH  12  13
BRANCH  12  15
ATOM     15  C   UNL     1       1.686   3.600  17.993  0.00  0.00    +0.000 C 
BRANCH  15  16
ATOM     16  C   UNL     1       1.691   2.958  19.353  0.00  0.00    +0.000 C 
ATOM     17  C   UNL     1       1.700   3.596  20.544  0.00  0.00    +0.000 C 
ATOM     18  C   UNL     1       1.618   5.081  20.709  0.00  0.00    +0.000 C 
BRANCH  17  19
ATOM     19  C   UNL     1       1.872   2.717  21.738  0.00  0.00    +0.000 C 
ATOM     20  O   UNL     1       2.952   2.277  22.104  0.00  0.00    +0.000 OA
BRANCH  19  21
ATOM     21  O   UNL     1       0.734   2.465  22.412  0.00  0.00    +0.000 OA
ATOM     22  H   UNL     1       0.189   1.739  22.068  0.00  0.00    +0.000 HD
ENDBRANCH  19  21
ENDBRANCH  17  19
ENDBRANCH  15  16
ENDBRANCH  12  15
ENDBRANCH   1  12
TORSDOF 8
ENDMDL
MODEL 7
REMARK VINA RESULT:      -6.9      2.731      3.964
REMARK  Name = 
REMARK  11 active torsions:
REMARK  status: ('A' for Active; 'I' for Inactive)
REMARK    1  A    between atoms: C_1  and  C_2
REMARK    2  A    between atoms: C_5  and  C_6
REMARK    3  A    between atoms: C_6  and  C_7
REMARK    4  A    between atoms: C_6  and  O_8
REMARK    5  A    between atoms: C_6  and  C_9
REMARK    6  A    between atoms: C_9  and  O_10
REMARK    7  A    between atoms: C_9  and  C_11
REMARK    8  A    between atoms: C_11  and  C_12
REMARK    9  A    between atoms: C_13  and  C_14
REMARK   10  A    between atoms: C_13  and  C_15
REMARK   11  A    between atoms: C_15  and  O_17
REMARK                            x       y       z     vdW  Elec       q    Type
REMARK                         _______ _______ _______ _____ _____    ______ ____
ROOT
ATOM      1  C   UNL     1       4.156   4.816  17.987  0.00  0.00    +0.000 C 
ATOM      2  C   UNL     1       5.056   5.108  19.201  0.00  0.00    +0.000 C 
ENDROOT
BRANCH   1   7
ATOM      3  C   UNL     1       1.418   2.806  21.359  0.00  0.00    +0.000 C 
ATOM      4  C   UNL     1       1.554   3.777  20.224  0.00  0.00    +0.000 C 
ATOM      5  C   UNL     1       1.272   3.428  18.956  0.00  0.00    +0.000 C 
ATOM      6  C   UNL     1       1.599   4.297  17.773  0.00  0.00    +0.000 C 
ATOM      7  C   UNL     1       2.678   5.366  18.085  0.00  0.00    +0.000 C 
ATOM      8  C   UNL     1       2.246   6.078  19.379  0.00  0.00    +0.000 C 
ATOM      9  C   UNL     1       2.101   5.140  20.580  0.00  0.00    +0.000 C 
ENDBRANCH   1   7
BRANCH   1  10
ATOM     10  O   UNL     1       4.005   3.375  17.908  0.00  0.00    +0.000 OA
ATOM     11  H   UNL     1       3.304   3.096  18.520  0.00  0.00    +0.000 HD
ENDBRANCH   1  10
BRANCH   1  12
ATOM     12  C   UNL     1       4.864   5.271  16.659  0.00  0.00    +0.000 C 
BRANCH  12  13
ATOM     13  O   UNL     1       5.398   6.592  16.767  0.00  0.00    +0.000 OA
ATOM     14  H   UNL     1       5.975   6.761  16.005  0.00  0.00    +0.000 HD
ENDBRANCH  12  13
BRANCH  12  15
ATOM     15  C   UNL     1       5.991   4.303  16.228  0.00  0.00    +0.000 C 
BRANCH  15  16
ATOM     16  C   UNL     1       5.773   3.666  14.883  0.00  0.00    +0.000 C 
ATOM     17  C   UNL     1       6.364   4.020  13.720  0.00  0.00    +0.000 C 
ATOM     18  C   UNL     1       7.420   5.073  13.595  0.00  0.00    +0.000 C 
BRANCH  17  19
ATOM     19  C   UNL     1       5.843   3.330  12.504  0.00  0.00    +0.000 C 
ATOM     20  O   UNL     1       4.729   3.524  12.041  0.00  0.00    +0.000 OA
BRANCH  19  21
ATOM     21  O   UNL     1       6.718   2.486  11.925  0.00  0.00    +0.000 OA
ATOM     22  H   UNL     1       7.641   2.786  11.897  0.00  0.00    +0.000 HD
ENDBRANCH  19  21
ENDBRANCH  17  19
ENDBRANCH  15  16
ENDBRANCH  12  15
ENDBRANCH   1  12
TORSDOF 8
ENDMDL
MODEL 8
REMARK VINA RESULT:      -6.9      3.336      5.165
REMARK  Name = 
REMARK  11 active torsions:
REMARK  status: ('A' for Active; 'I' for Inactive)
REMARK    1  A    between atoms: C_1  and  C_2
REMARK    2  A    between atoms: C_5  and  C_6
REMARK    3  A    between atoms: C_6  and  C_7
REMARK    4  A    between atoms: C_6  and  O_8
REMARK    5  A    between atoms: C_6  and  C_9
REMARK    6  A    between atoms: C_9  and  O_10
REMARK    7  A    between atoms: C_9  and  C_11
REMARK    8  A    between atoms: C_11  and  C_12
REMARK    9  A    between atoms: C_13  and  C_14
REMARK   10  A    between atoms: C_13  and  C_15
REMARK   11  A    between atoms: C_15  and  O_17
REMARK                            x       y       z     vdW  Elec       q    Type
REMARK                         _______ _______ _______ _____ _____    ______ ____
ROOT
ATOM      1  C   UNL     1       6.070   5.639  17.253  0.00  0.00    +0.000 C 
ATOM      2  C   UNL     1       7.175   6.702  17.397  0.00  0.00    +0.000 C 
ENDROOT
BRANCH   1   7
ATOM      3  C   UNL     1       3.478   1.680  17.971  0.00  0.00    +0.000 C 
ATOM      4  C   UNL     1       3.689   3.143  18.229  0.00  0.00    +0.000 C 
ATOM      5  C   UNL     1       3.115   4.087  17.460  0.00  0.00    +0.000 C 
ATOM      6  C   UNL     1       3.470   5.545  17.549  0.00  0.00    +0.000 C 
ATOM      7  C   UNL     1       4.840   5.796  18.232  0.00  0.00    +0.000 C 
ATOM      8  C   UNL     1       4.842   4.993  19.545  0.00  0.00    +0.000 C 
ATOM      9  C   UNL     1       4.643   3.488  19.349  0.00  0.00    +0.000 C 
ENDBRANCH   1   7
BRANCH   1  10
ATOM     10  O   UNL     1       6.660   4.363  17.610  0.00  0.00    +0.000 OA
ATOM     11  H   UNL     1       7.524   4.519  18.028  0.00  0.00    +0.000 HD
ENDBRANCH   1  10
BRANCH   1  12
ATOM     12  C   UNL     1       5.613   5.524  15.753  0.00  0.00    +0.000 C 
BRANCH  12  13
ATOM     13  O   UNL     1       5.426   6.808  15.154  0.00  0.00    +0.000 OA
ATOM     14  H   UNL     1       4.530   6.855  14.784  0.00  0.00    +0.000 HD
ENDBRANCH  12  13
BRANCH  12  15
ATOM     15  C   UNL     1       6.606   4.706  14.894  0.00  0.00    +0.000 C 
BRANCH  15  16
ATOM     16  C   UNL     1       5.947   3.768  13.919  0.00  0.00    +0.000 C 
ATOM     17  C   UNL     1       6.218   3.659  12.600  0.00  0.00    +0.000 C 
ATOM     18  C   UNL     1       7.303   4.411  11.894  0.00  0.00    +0.000 C 
BRANCH  17  19
ATOM     19  C   UNL     1       5.302   2.766  11.832  0.00  0.00    +0.000 C 
ATOM     20  O   UNL     1       4.188   3.101  11.458  0.00  0.00    +0.000 OA
BRANCH  19  21
ATOM     21  O   UNL     1       5.814   1.554  11.550  0.00  0.00    +0.000 OA
ATOM     22  H   UNL     1       5.744   1.269  10.624  0.00  0.00    +0.000 HD
ENDBRANCH  19  21
ENDBRANCH  17  19
ENDBRANCH  15  16
ENDBRANCH  12  15
ENDBRANCH   1  12
TORSDOF 8
ENDMDL
MODEL 9
REMARK VINA RESULT:      -6.9      2.740      3.306
REMARK  Name = 
REMARK  11 active torsions:
REMARK  status: ('A' for Active; 'I' for Inactive)
REMARK    1  A    between atoms: C_1  and  C_2
REMARK    2  A    between atoms: C_5  and  C_6
REMARK    3  A    between atoms: C_6  and  C_7
REMARK    4  A    between atoms: C_6  and  O_8
REMARK    5  A    between atoms: C_6  and  C_9
REMARK    6  A    between atoms: C_9  and  O_10
REMARK    7  A    between atoms: C_9  and  C_11
REMARK    8  A    between atoms: C_11  and  C_12
REMARK    9  A    between atoms: C_13  and  C_14
REMARK   10  A    between atoms: C_13  and  C_15
REMARK   11  A    between atoms: C_15  and  O_17
REMARK                            x       y       z     vdW  Elec       q    Type
REMARK                         _______ _______ _______ _____ _____    ______ ____
ROOT
ATOM      1  C   UNL     1       4.031   4.541  18.011  0.00  0.00    +0.000 C 
ATOM      2  C   UNL     1       4.955   4.690  19.233  0.00  0.00    +0.000 C 
ENDROOT
BRANCH   1   7
ATOM      3  C   UNL     1       1.430   2.732  21.598  0.00  0.00    +0.000 C 
ATOM      4  C   UNL     1       1.531   3.663  20.426  0.00  0.00    +0.000 C 
ATOM      5  C   UNL     1       1.164   3.284  19.188  0.00  0.00    +0.000 C 
ATOM      6  C   UNL     1       1.450   4.104  17.960  0.00  0.00    +0.000 C 
ATOM      7  C   UNL     1       2.580   5.144  18.174  0.00  0.00    +0.000 C 
ATOM      8  C   UNL     1       2.247   5.911  19.467  0.00  0.00    +0.000 C 
ATOM      9  C   UNL     1       2.142   5.017  20.705  0.00  0.00    +0.000 C 
ENDBRANCH   1   7
BRANCH   1  10
ATOM     10  O   UNL     1       3.815   3.120  17.813  0.00  0.00    +0.000 OA
ATOM     11  H   UNL     1       2.860   2.942  17.805  0.00  0.00    +0.000 HD
ENDBRANCH   1  10
BRANCH   1  12
ATOM     12  C   UNL     1       4.745   5.076  16.716  0.00  0.00    +0.000 C 
BRANCH  12  13
ATOM     13  O   UNL     1       5.111   6.451  16.841  0.00  0.00    +0.000 OA
ATOM     14  H   UNL     1       5.625   6.712  16.060  0.00  0.00    +0.000 HD
ENDBRANCH  12  13
BRANCH  12  15
ATOM     15  C   UNL     1       6.000   4.250  16.350  0.00  0.00    +0.000 C 
BRANCH  15  16
ATOM     16  C   UNL     1       6.806   4.827  15.218  0.00  0.00    +0.000 C 
ATOM     17  C   UNL     1       6.664   4.546  13.904  0.00  0.00    +0.000 C 
ATOM     18  C   UNL     1       5.599   3.659  13.339  0.00  0.00    +0.000 C 
BRANCH  17  19
ATOM     19  C   UNL     1       7.705   5.132  13.010  0.00  0.00    +0.000 C 
ATOM     20  O   UNL     1       8.595   5.871  13.402  0.00  0.00    +0.000 OA
BRANCH  19  21
ATOM     21  O   UNL     1       7.607   4.755  11.721  0.00  0.00    +0.000 OA
ATOM     22  H   UNL     1       7.140   3.919  11.558  0.00  0.00    +0.000 HD
ENDBRANCH  19  21
ENDBRANCH  17  19
ENDBRANCH  15  16
ENDBRANCH  12  15
ENDBRANCH   1  12
TORSDOF 8
ENDMDL
