MODEL 1
REMARK VINA RESULT:      -8.4      0.000      0.000
REMARK  Name = 
REMARK  7 active torsions:
REMARK  status: ('A' for Active; 'I' for Inactive)
REMARK    1  A    between atoms: C_1  and  O_2
REMARK    2  A    between atoms: O_2  and  C_3
REMARK    3  A    between atoms: C_6  and  N_7
REMARK    4  A    between atoms: C_13  and  C_14
REMARK    5  A    between atoms: C_14  and  O_16
REMARK    6  A    between atoms: O_16  and  C_17
REMARK    7  A    between atoms: C_17  and  C_18
REMARK                            x       y       z     vdW  Elec       q    Type
REMARK                         _______ _______ _______ _____ _____    ______ ____
ROOT
ATOM      1  N   UNL     1       2.131   7.767  19.058  0.00  0.00    +0.000 N 
ATOM      2  C   UNL     1       2.472   8.309  17.768  0.00  0.00    +0.000 C 
ATOM      3  O   UNL     1       2.004   9.270  17.166  0.00  0.00    +0.000 OA
ATOM      4  C   UNL     1       3.726   7.584  17.508  0.00  0.00    +0.000 C 
ATOM      5  N   UNL     1       4.634   7.288  16.437  0.00  0.00    +0.000 N 
ATOM      6  N   UNL     1       5.413   6.237  16.788  0.00  0.00    +0.000 NA
ATOM      7  C   UNL     1       4.682   5.570  17.651  0.00  0.00    +0.000 C 
ATOM      8  C   UNL     1       3.340   6.167  17.892  0.00  0.00    +0.000 C 
ATOM      9  C   UNL     1       2.789   6.543  19.202  0.00  0.00    +0.000 C 
ATOM     10  O   UNL     1       2.950   5.835  20.202  0.00  0.00    +0.000 OA
ATOM     11  H   UNL     1       4.921   7.946  15.700  0.00  0.00    +0.000 HD
ENDROOT
BRANCH   1  15
ATOM     12  C   UNL     1       0.198   9.944  22.203  0.00  0.00    +0.000 A 
ATOM     13  C   UNL     1       1.115   8.934  22.490  0.00  0.00    +0.000 A 
ATOM     14  C   UNL     1       1.754   8.219  21.468  0.00  0.00    +0.000 A 
ATOM     15  C   UNL     1       1.492   8.486  20.121  0.00  0.00    +0.000 A 
ATOM     16  C   UNL     1       0.539   9.488  19.853  0.00  0.00    +0.000 A 
ATOM     17  C   UNL     1      -0.099  10.204  20.874  0.00  0.00    +0.000 A 
BRANCH  12  19
ATOM     18  C   UNL     1      -1.313  11.587  22.967  0.00  0.00    +0.000 C 
ATOM     19  O   UNL     1      -0.361  10.573  23.278  0.00  0.00    +0.000 OA
ENDBRANCH  12  19
ENDBRANCH   1  15
BRANCH   7  20
ATOM     20  C   UNL     1       4.952   4.191  18.169  0.00  0.00    +0.000 C 
ATOM     21  O   UNL     1       5.730   4.019  19.102  0.00  0.00    +0.000 OA
BRANCH  20  22
ATOM     22  O   UNL     1       4.245   3.259  17.499  0.00  0.00    +0.000 OA
BRANCH  22  23
ATOM     23  C   UNL     1       3.899   2.070  18.256  0.00  0.00    +0.000 C 
BRANCH  23  24
ATOM     24  C   UNL     1       2.902   2.418  19.330  0.00  0.00    +0.000 A 
ATOM     25  C   UNL     1       3.261   2.357  20.686  0.00  0.00    +0.000 A 
ATOM     26  C   UNL     1       2.329   2.665  21.681  0.00  0.00    +0.000 A 
ATOM     27  C   UNL     1       1.033   3.044  21.335  0.00  0.00    +0.000 A 
ATOM     28  C   UNL     1       0.670   3.132  19.993  0.00  0.00    +0.000 A 
ATOM     29  C   UNL     1       1.599   2.822  18.996  0.00  0.00    +0.000 A 
ENDBRANCH  23  24
ENDBRANCH  22  23
ENDBRANCH  20  22
ENDBRANCH   7  20
TORSDOF 6
ENDMDL
MODEL 2
REMARK VINA RESULT:      -7.8      3.641      5.310
REMARK  Name = 
REMARK  7 active torsions:
REMARK  status: ('A' for Active; 'I' for Inactive)
REMARK    1  A    between atoms: C_1  and  O_2
REMARK    2  A    between atoms: O_2  and  C_3
REMARK    3  A    between atoms: C_6  and  N_7
REMARK    4  A    between atoms: C_13  and  C_14
REMARK    5  A    between atoms: C_14  and  O_16
REMARK    6  A    between atoms: O_16  and  C_17
REMARK    7  A    between atoms: C_17  and  C_18
REMARK                            x       y       z     vdW  Elec       q    Type
REMARK                         _______ _______ _______ _____ _____    ______ ____
ROOT
ATOM      1  N   UNL     1       3.281   6.413  18.578  0.00  0.00    +0.000 N 
ATOM      2  C   UNL     1       2.877   5.058  18.849  0.00  0.00    +0.000 C 
ATOM      3  O   UNL     1       2.022   4.626  19.615  0.00  0.00    +0.000 OA
ATOM      4  C   UNL     1       3.556   4.361  17.745  0.00  0.00    +0.000 C 
ATOM      5  N   UNL     1       3.926   3.039  17.329  0.00  0.00    +0.000 N 
ATOM      6  N   UNL     1       4.882   3.120  16.373  0.00  0.00    +0.000 NA
ATOM      7  C   UNL     1       5.483   4.262  16.617  0.00  0.00    +0.000 C 
ATOM      8  C   UNL     1       4.937   4.989  17.796  0.00  0.00    +0.000 C 
ATOM      9  C   UNL     1       4.441   6.373  17.798  0.00  0.00    +0.000 C 
ATOM     10  O   UNL     1       5.015   7.270  17.174  0.00  0.00    +0.000 OA
ATOM     11  H   UNL     1       3.345   2.196  17.435  0.00  0.00    +0.000 HD
ENDROOT
BRANCH   1  15
ATOM     12  C   UNL     1       0.874   9.889  19.274  0.00  0.00    +0.000 A 
ATOM     13  C   UNL     1       1.444   9.652  18.025  0.00  0.00    +0.000 A 
ATOM     14  C   UNL     1       2.231   8.517  17.786  0.00  0.00    +0.000 A 
ATOM     15  C   UNL     1       2.479   7.581  18.795  0.00  0.00    +0.000 A 
ATOM     16  C   UNL     1       1.919   7.855  20.059  0.00  0.00    +0.000 A 
ATOM     17  C   UNL     1       1.132   8.989  20.297  0.00  0.00    +0.000 A 
BRANCH  12  19
ATOM     18  C   UNL     1      -1.257  10.824  19.667  0.00  0.00    +0.000 C 
ATOM     19  O   UNL     1       0.126  11.026  19.390  0.00  0.00    +0.000 OA
ENDBRANCH  12  19
ENDBRANCH   1  15
BRANCH   7  20
ATOM     20  C   UNL     1       6.773   4.735  16.023  0.00  0.00    +0.000 C 
ATOM     21  O   UNL     1       7.833   4.557  16.615  0.00  0.00    +0.000 OA
BRANCH  20  22
ATOM     22  O   UNL     1       6.584   5.326  14.826  0.00  0.00    +0.000 OA
BRANCH  22  23
ATOM     23  C   UNL     1       7.379   4.797  13.733  0.00  0.00    +0.000 C 
BRANCH  23  24
ATOM     24  C   UNL     1       6.523   3.927  12.851  0.00  0.00    +0.000 A 
ATOM     25  C   UNL     1       7.102   2.930  12.050  0.00  0.00    +0.000 A 
ATOM     26  C   UNL     1       6.308   2.134  11.219  0.00  0.00    +0.000 A 
ATOM     27  C   UNL     1       4.926   2.318  11.186  0.00  0.00    +0.000 A 
ATOM     28  C   UNL     1       4.335   3.287  11.993  0.00  0.00    +0.000 A 
ATOM     29  C   UNL     1       5.127   4.086  12.822  0.00  0.00    +0.000 A 
ENDBRANCH  23  24
ENDBRANCH  22  23
ENDBRANCH  20  22
ENDBRANCH   7  20
TORSDOF 6
ENDMDL
MODEL 3
REMARK VINA RESULT:      -7.8      3.615      5.212
REMARK  Name = 
REMARK  7 active torsions:
REMARK  status: ('A' for Active; 'I' for Inactive)
REMARK    1  A    between atoms: C_1  and  O_2
REMARK    2  A    between atoms: O_2  and  C_3
REMARK    3  A    between atoms: C_6  and  N_7
REMARK    4  A    between atoms: C_13  and  C_14
REMARK    5  A    between atoms: C_14  and  O_16
REMARK    6  A    between atoms: O_16  and  C_17
REMARK    7  A    between atoms: C_17  and  C_18
REMARK                            x       y       z     vdW  Elec       q    Type
REMARK                         _______ _______ _______ _____ _____    ______ ____
ROOT
ATOM      1  N   UNL     1       3.049   6.612  18.718  0.00  0.00    +0.000 N 
ATOM      2  C   UNL     1       2.718   5.238  18.993  0.00  0.00    +0.000 C 
ATOM      3  O   UNL     1       1.914   4.762  19.787  0.00  0.00    +0.000 OA
ATOM      4  C   UNL     1       3.386   4.581  17.857  0.00  0.00    +0.000 C 
ATOM      5  N   UNL     1       3.799   3.280  17.416  0.00  0.00    +0.000 N 
ATOM      6  N   UNL     1       4.713   3.413  16.425  0.00  0.00    +0.000 NA
ATOM      7  C   UNL     1       5.270   4.579  16.656  0.00  0.00    +0.000 C 
ATOM      8  C   UNL     1       4.738   5.271  17.862  0.00  0.00    +0.000 C 
ATOM      9  C   UNL     1       4.179   6.631  17.895  0.00  0.00    +0.000 C 
ATOM     10  O   UNL     1       4.687   7.559  17.257  0.00  0.00    +0.000 OA
ATOM     11  H   UNL     1       3.262   2.411  17.536  0.00  0.00    +0.000 HD
ENDROOT
BRANCH   1  15
ATOM     12  C   UNL     1       0.523   9.997  19.440  0.00  0.00    +0.000 A 
ATOM     13  C   UNL     1       0.914   9.161  20.484  0.00  0.00    +0.000 A 
ATOM     14  C   UNL     1       1.742   8.053  20.259  0.00  0.00    +0.000 A 
ATOM     15  C   UNL     1       2.203   7.740  18.976  0.00  0.00    +0.000 A 
ATOM     16  C   UNL     1       1.770   8.580  17.931  0.00  0.00    +0.000 A 
ATOM     17  C   UNL     1       0.944   9.688  18.156  0.00  0.00    +0.000 A 
BRANCH  12  19
ATOM     18  C   UNL     1      -0.502  11.226  21.175  0.00  0.00    +0.000 C 
ATOM     19  O   UNL     1      -0.284  11.046  19.779  0.00  0.00    +0.000 OA
ENDBRANCH  12  19
ENDBRANCH   1  15
BRANCH   7  20
ATOM     20  C   UNL     1       6.514   5.116  16.017  0.00  0.00    +0.000 C 
ATOM     21  O   UNL     1       7.552   5.215  16.664  0.00  0.00    +0.000 OA
BRANCH  20  22
ATOM     22  O   UNL     1       6.313   5.430  14.722  0.00  0.00    +0.000 OA
BRANCH  22  23
ATOM     23  C   UNL     1       7.241   4.831  13.780  0.00  0.00    +0.000 C 
BRANCH  23  24
ATOM     24  C   UNL     1       6.500   3.909  12.847  0.00  0.00    +0.000 A 
ATOM     25  C   UNL     1       5.100   3.960  12.754  0.00  0.00    +0.000 A 
ATOM     26  C   UNL     1       4.413   3.092  11.900  0.00  0.00    +0.000 A 
ATOM     27  C   UNL     1       5.115   2.170  11.126  0.00  0.00    +0.000 A 
ATOM     28  C   UNL     1       6.506   2.124  11.191  0.00  0.00    +0.000 A 
ATOM     29  C   UNL     1       7.195   2.989  12.045  0.00  0.00    +0.000 A 
ENDBRANCH  23  24
ENDBRANCH  22  23
ENDBRANCH  20  22
ENDBRANCH   7  20
TORSDOF 6
ENDMDL
MODEL 4
REMARK VINA RESULT:      -7.8      3.199      5.203
REMARK  Name = 
REMARK  7 active torsions:
REMARK  status: ('A' for Active; 'I' for Inactive)
REMARK    1  A    between atoms: C_1  and  O_2
REMARK    2  A    between atoms: O_2  and  C_3
REMARK    3  A    between atoms: C_6  and  N_7
REMARK    4  A    between atoms: C_13  and  C_14
REMARK    5  A    between atoms: C_14  and  O_16
REMARK    6  A    between atoms: O_16  and  C_17
REMARK    7  A    between atoms: C_17  and  C_18
REMARK                            x       y       z     vdW  Elec       q    Type
REMARK                         _______ _______ _______ _____ _____    ______ ____
ROOT
ATOM      1  N   UNL     1       3.086   6.281  19.017  0.00  0.00    +0.000 N 
ATOM      2  C   UNL     1       2.566   4.940  19.058  0.00  0.00    +0.000 C 
ATOM      3  O   UNL     1       1.488   4.523  19.468  0.00  0.00    +0.000 OA
ATOM      4  C   UNL     1       3.551   4.255  18.204  0.00  0.00    +0.000 C 
ATOM      5  N   UNL     1       3.989   2.934  17.859  0.00  0.00    +0.000 N 
ATOM      6  N   UNL     1       5.214   3.005  17.283  0.00  0.00    +0.000 NA
ATOM      7  C   UNL     1       5.739   4.101  17.780  0.00  0.00    +0.000 C 
ATOM      8  C   UNL     1       4.856   4.805  18.751  0.00  0.00    +0.000 C 
ATOM      9  C   UNL     1       4.438   6.213  18.668  0.00  0.00    +0.000 C 
ATOM     10  O   UNL     1       5.222   7.104  18.325  0.00  0.00    +0.000 OA
ATOM     11  H   UNL     1       3.377   2.120  17.715  0.00  0.00    +0.000 HD
ENDROOT
BRANCH   1  15
ATOM     12  C   UNL     1       0.729   9.860  19.082  0.00  0.00    +0.000 A 
ATOM     13  C   UNL     1       1.304   9.403  17.898  0.00  0.00    +0.000 A 
ATOM     14  C   UNL     1       2.075   8.233  17.865  0.00  0.00    +0.000 A 
ATOM     15  C   UNL     1       2.301   7.481  19.022  0.00  0.00    +0.000 A 
ATOM     16  C   UNL     1       1.737   7.976  20.215  0.00  0.00    +0.000 A 
ATOM     17  C   UNL     1       0.966   9.145  20.247  0.00  0.00    +0.000 A 
BRANCH  12  19
ATOM     18  C   UNL     1       0.757  12.214  18.932  0.00  0.00    +0.000 C 
ATOM     19  O   UNL     1      -0.001  11.010  18.993  0.00  0.00    +0.000 OA
ENDBRANCH  12  19
ENDBRANCH   1  15
BRANCH   7  20
ATOM     20  C   UNL     1       7.170   4.529  17.679  0.00  0.00    +0.000 C 
ATOM     21  O   UNL     1       7.800   4.835  18.687  0.00  0.00    +0.000 OA
BRANCH  20  22
ATOM     22  O   UNL     1       7.608   4.510  16.404  0.00  0.00    +0.000 OA
BRANCH  22  23
ATOM     23  C   UNL     1       6.952   5.438  15.502  0.00  0.00    +0.000 C 
BRANCH  23  24
ATOM     24  C   UNL     1       6.763   4.795  14.153  0.00  0.00    +0.000 A 
ATOM     25  C   UNL     1       7.642   5.077  13.096  0.00  0.00    +0.000 A 
ATOM     26  C   UNL     1       7.456   4.492  11.841  0.00  0.00    +0.000 A 
ATOM     27  C   UNL     1       6.395   3.613  11.628  0.00  0.00    +0.000 A 
ATOM     28  C   UNL     1       5.528   3.305  12.674  0.00  0.00    +0.000 A 
ATOM     29  C   UNL     1       5.711   3.890  13.930  0.00  0.00    +0.000 A 
ENDBRANCH  23  24
ENDBRANCH  22  23
ENDBRANCH  20  22
ENDBRANCH   7  20
TORSDOF 6
ENDMDL
MODEL 5
REMARK VINA RESULT:      -7.7      2.947      8.013
REMARK  Name = 
REMARK  7 active torsions:
REMARK  status: ('A' for Active; 'I' for Inactive)
REMARK    1  A    between atoms: C_1  and  O_2
REMARK    2  A    between atoms: O_2  and  C_3
REMARK    3  A    between atoms: C_6  and  N_7
REMARK    4  A    between atoms: C_13  and  C_14
REMARK    5  A    between atoms: C_14  and  O_16
REMARK    6  A    between atoms: O_16  and  C_17
REMARK    7  A    between atoms: C_17  and  C_18
REMARK                            x       y       z     vdW  Elec       q    Type
REMARK                         _______ _______ _______ _____ _____    ______ ____
ROOT
ATOM      1  N   UNL     1       2.232   7.129  18.843  0.00  0.00    +0.000 N 
ATOM      2  C   UNL     1       1.808   6.928  20.204  0.00  0.00    +0.000 C 
ATOM      3  O   UNL     1       1.750   5.900  20.870  0.00  0.00    +0.000 OA
ATOM      4  C   UNL     1       1.752   8.325  20.664  0.00  0.00    +0.000 C 
ATOM      5  N   UNL     1       1.237   9.116  21.744  0.00  0.00    +0.000 N 
ATOM      6  N   UNL     1       1.205  10.418  21.371  0.00  0.00    +0.000 NA
ATOM      7  C   UNL     1       1.093  10.374  20.064  0.00  0.00    +0.000 C 
ATOM      8  C   UNL     1       1.024   8.993  19.512  0.00  0.00    +0.000 C 
ATOM      9  C   UNL     1       1.904   8.437  18.474  0.00  0.00    +0.000 C 
ATOM     10  O   UNL     1       2.250   9.100  17.491  0.00  0.00    +0.000 OA
ATOM     11  H   UNL     1       1.237   8.844  22.737  0.00  0.00    +0.000 HD
ENDROOT
BRANCH   1  15
ATOM     12  C   UNL     1       4.806   4.501  16.644  0.00  0.00    +0.000 A 
ATOM     13  C   UNL     1       5.167   5.827  16.878  0.00  0.00    +0.000 A 
ATOM     14  C   UNL     1       4.334   6.693  17.599  0.00  0.00    +0.000 A 
ATOM     15  C   UNL     1       3.104   6.263  18.105  0.00  0.00    +0.000 A 
ATOM     16  C   UNL     1       2.743   4.929  17.830  0.00  0.00    +0.000 A 
ATOM     17  C   UNL     1       3.577   4.062  17.112  0.00  0.00    +0.000 A 
BRANCH  12  19
ATOM     18  C   UNL     1       6.282   4.398  14.806  0.00  0.00    +0.000 C 
ATOM     19  O   UNL     1       5.698   3.751  15.933  0.00  0.00    +0.000 OA
ENDBRANCH  12  19
ENDBRANCH   1  15
BRANCH   7  20
ATOM     20  C   UNL     1       0.764  11.521  19.158  0.00  0.00    +0.000 C 
ATOM     21  O   UNL     1       1.633  12.027  18.456  0.00  0.00    +0.000 OA
BRANCH  20  22
ATOM     22  O   UNL     1      -0.538  11.860  19.236  0.00  0.00    +0.000 OA
BRANCH  22  23
ATOM     23  C   UNL     1      -1.473  10.751  19.286  0.00  0.00    +0.000 C 
BRANCH  23  24
ATOM     24  C   UNL     1      -2.297  10.717  18.025  0.00  0.00    +0.000 A 
ATOM     25  C   UNL     1      -1.915   9.909  16.943  0.00  0.00    +0.000 A 
ATOM     26  C   UNL     1      -2.671   9.891  15.767  0.00  0.00    +0.000 A 
ATOM     27  C   UNL     1      -3.820  10.673  15.662  0.00  0.00    +0.000 A 
ATOM     28  C   UNL     1      -4.225  11.462  16.737  0.00  0.00    +0.000 A 
ATOM     29  C   UNL     1      -3.469  11.483  17.912  0.00  0.00    +0.000 A 
ENDBRANCH  23  24
ENDBRANCH  22  23
ENDBRANCH  20  22
ENDBRANCH   7  20
TORSDOF 6
ENDMDL
MODEL 6
REMARK VINA RESULT:      -7.7      3.205      5.102
REMARK  Name = 
REMARK  7 active torsions:
REMARK  status: ('A' for Active; 'I' for Inactive)
REMARK    1  A    between atoms: C_1  and  O_2
REMARK    2  A    between atoms: O_2  and  C_3
REMARK    3  A    between atoms: C_6  and  N_7
REMARK    4  A    between atoms: C_13  and  C_14
REMARK    5  A    between atoms: C_14  and  O_16
REMARK    6  A    between atoms: O_16  and  C_17
REMARK    7  A    between atoms: C_17  and  C_18
REMARK                            x       y       z     vdW  Elec       q    Type
REMARK                         _______ _______ _______ _____ _____    ______ ____
ROOT
ATOM      1  N   UNL     1       3.176   6.244  18.955  0.00  0.00    +0.000 N 
ATOM      2  C   UNL     1       2.654   4.903  18.977  0.00  0.00    +0.000 C 
ATOM      3  O   UNL     1       1.591   4.475  19.413  0.00  0.00    +0.000 OA
ATOM      4  C   UNL     1       3.607   4.241  18.070  0.00  0.00    +0.000 C 
ATOM      5  N   UNL     1       4.030   2.930  17.672  0.00  0.00    +0.000 N 
ATOM      6  N   UNL     1       5.234   3.016  17.057  0.00  0.00    +0.000 NA
ATOM      7  C   UNL     1       5.779   4.096  17.566  0.00  0.00    +0.000 C 
ATOM      8  C   UNL     1       4.932   4.773  18.586  0.00  0.00    +0.000 C 
ATOM      9  C   UNL     1       4.515   6.183  18.558  0.00  0.00    +0.000 C 
ATOM     10  O   UNL     1       5.288   7.083  18.213  0.00  0.00    +0.000 OA
ATOM     11  H   UNL     1       3.411   2.121  17.528  0.00  0.00    +0.000 HD
ENDROOT
BRANCH   1  15
ATOM     12  C   UNL     1       0.848   9.839  19.105  0.00  0.00    +0.000 A 
ATOM     13  C   UNL     1       1.045   9.066  20.248  0.00  0.00    +0.000 A 
ATOM     14  C   UNL     1       1.807   7.890  20.210  0.00  0.00    +0.000 A 
ATOM     15  C   UNL     1       2.394   7.444  19.022  0.00  0.00    +0.000 A 
ATOM     16  C   UNL     1       2.157   8.223  17.872  0.00  0.00    +0.000 A 
ATOM     17  C   UNL     1       1.396   9.398  17.911  0.00  0.00    +0.000 A 
BRANCH  12  19
ATOM     18  C   UNL     1      -0.791  10.957  20.382  0.00  0.00    +0.000 C 
ATOM     19  O   UNL     1       0.090  10.964  19.262  0.00  0.00    +0.000 OA
ENDBRANCH  12  19
ENDBRANCH   1  15
BRANCH   7  20
ATOM     20  C   UNL     1       7.207   4.525  17.426  0.00  0.00    +0.000 C 
ATOM     21  O   UNL     1       7.951   4.536  18.402  0.00  0.00    +0.000 OA
BRANCH  20  22
ATOM     22  O   UNL     1       7.507   4.855  16.154  0.00  0.00    +0.000 OA
BRANCH  22  23
ATOM     23  C   UNL     1       6.398   5.343  15.355  0.00  0.00    +0.000 C 
BRANCH  23  24
ATOM     24  C   UNL     1       6.405   4.675  14.005  0.00  0.00    +0.000 A 
ATOM     25  C   UNL     1       7.471   4.876  13.113  0.00  0.00    +0.000 A 
ATOM     26  C   UNL     1       7.469   4.268  11.855  0.00  0.00    +0.000 A 
ATOM     27  C   UNL     1       6.409   3.446  11.476  0.00  0.00    +0.000 A 
ATOM     28  C   UNL     1       5.356   3.218  12.360  0.00  0.00    +0.000 A 
ATOM     29  C   UNL     1       5.355   3.827  13.617  0.00  0.00    +0.000 A 
ENDBRANCH  23  24
ENDBRANCH  22  23
ENDBRANCH  20  22
ENDBRANCH   7  20
TORSDOF 6
ENDMDL
MODEL 7
REMARK VINA RESULT:      -7.7      3.128      5.124
REMARK  Name = 
REMARK  7 active torsions:
REMARK  status: ('A' for Active; 'I' for Inactive)
REMARK    1  A    between atoms: C_1  and  O_2
REMARK    2  A    between atoms: O_2  and  C_3
REMARK    3  A    between atoms: C_6  and  N_7
REMARK    4  A    between atoms: C_13  and  C_14
REMARK    5  A    between atoms: C_14  and  O_16
REMARK    6  A    between atoms: O_16  and  C_17
REMARK    7  A    between atoms: C_17  and  C_18
REMARK                            x       y       z     vdW  Elec       q    Type
REMARK                         _______ _______ _______ _____ _____    ______ ____
ROOT
ATOM      1  N   UNL     1       2.803   6.662  19.462  0.00  0.00    +0.000 N 
ATOM      2  C   UNL     1       2.306   5.412  19.975  0.00  0.00    +0.000 C 
ATOM      3  O   UNL     1       1.319   5.177  20.664  0.00  0.00    +0.000 OA
ATOM      4  C   UNL     1       3.130   4.470  19.200  0.00  0.00    +0.000 C 
ATOM      5  N   UNL     1       3.510   3.087  19.180  0.00  0.00    +0.000 N 
ATOM      6  N   UNL     1       4.614   2.937  18.410  0.00  0.00    +0.000 NA
ATOM      7  C   UNL     1       5.211   4.104  18.474  0.00  0.00    +0.000 C 
ATOM      8  C   UNL     1       4.507   5.093  19.336  0.00  0.00    +0.000 C 
ATOM      9  C   UNL     1       4.073   6.437  18.924  0.00  0.00    +0.000 C 
ATOM     10  O   UNL     1       4.779   7.157  18.211  0.00  0.00    +0.000 OA
ATOM     11  H   UNL     1       2.886   2.294  19.383  0.00  0.00    +0.000 HD
ENDROOT
BRANCH   1  15
ATOM     12  C   UNL     1       0.461  10.206  18.893  0.00  0.00    +0.000 A 
ATOM     13  C   UNL     1       1.074   9.572  17.813  0.00  0.00    +0.000 A 
ATOM     14  C   UNL     1       1.840   8.411  17.989  0.00  0.00    +0.000 A 
ATOM     15  C   UNL     1       2.023   7.847  19.255  0.00  0.00    +0.000 A 
ATOM     16  C   UNL     1       1.421   8.521  20.336  0.00  0.00    +0.000 A 
ATOM     17  C   UNL     1       0.655   9.680  20.161  0.00  0.00    +0.000 A 
BRANCH  12  19
ATOM     18  C   UNL     1      -1.436  11.520  19.385  0.00  0.00    +0.000 C 
ATOM     19  O   UNL     1      -0.261  11.328  18.602  0.00  0.00    +0.000 OA
ENDBRANCH  12  19
ENDBRANCH   1  15
BRANCH   7  20
ATOM     20  C   UNL     1       6.600   4.421  18.013  0.00  0.00    +0.000 C 
ATOM     21  O   UNL     1       7.415   4.913  18.787  0.00  0.00    +0.000 OA
BRANCH  20  22
ATOM     22  O   UNL     1       6.784   4.090  16.719  0.00  0.00    +0.000 OA
BRANCH  22  23
ATOM     23  C   UNL     1       5.732   4.506  15.810  0.00  0.00    +0.000 C 
BRANCH  23  24
ATOM     24  C   UNL     1       6.201   4.368  14.385  0.00  0.00    +0.000 A 
ATOM     25  C   UNL     1       5.517   3.539  13.483  0.00  0.00    +0.000 A 
ATOM     26  C   UNL     1       5.964   3.399  12.166  0.00  0.00    +0.000 A 
ATOM     27  C   UNL     1       7.093   4.092  11.733  0.00  0.00    +0.000 A 
ATOM     28  C   UNL     1       7.768   4.937  12.610  0.00  0.00    +0.000 A 
ATOM     29  C   UNL     1       7.325   5.077  13.928  0.00  0.00    +0.000 A 
ENDBRANCH  23  24
ENDBRANCH  22  23
ENDBRANCH  20  22
ENDBRANCH   7  20
TORSDOF 6
ENDMDL
MODEL 8
REMARK VINA RESULT:      -7.6      2.994      8.071
REMARK  Name = 
REMARK  7 active torsions:
REMARK  status: ('A' for Active; 'I' for Inactive)
REMARK    1  A    between atoms: C_1  and  O_2
REMARK    2  A    between atoms: O_2  and  C_3
REMARK    3  A    between atoms: C_6  and  N_7
REMARK    4  A    between atoms: C_13  and  C_14
REMARK    5  A    between atoms: C_14  and  O_16
REMARK    6  A    between atoms: O_16  and  C_17
REMARK    7  A    between atoms: C_17  and  C_18
REMARK                            x       y       z     vdW  Elec       q    Type
REMARK                         _______ _______ _______ _____ _____    ______ ____
ROOT
ATOM      1  N   UNL     1       2.225   7.232  18.982  0.00  0.00    +0.000 N 
ATOM      2  C   UNL     1       1.818   6.832  20.304  0.00  0.00    +0.000 C 
ATOM      3  O   UNL     1       1.788   5.719  20.818  0.00  0.00    +0.000 OA
ATOM      4  C   UNL     1       1.735   8.148  20.957  0.00  0.00    +0.000 C 
ATOM      5  N   UNL     1       1.212   8.767  22.141  0.00  0.00    +0.000 N 
ATOM      6  N   UNL     1       1.149  10.107  21.955  0.00  0.00    +0.000 NA
ATOM      7  C   UNL     1       1.026  10.245  20.656  0.00  0.00    +0.000 C 
ATOM      8  C   UNL     1       0.982   8.955  19.915  0.00  0.00    +0.000 C 
ATOM      9  C   UNL     1       1.866   8.571  18.804  0.00  0.00    +0.000 C 
ATOM     10  O   UNL     1       2.188   9.375  17.922  0.00  0.00    +0.000 OA
ATOM     11  H   UNL     1       1.227   8.357  23.085  0.00  0.00    +0.000 HD
ENDROOT
BRANCH   1  15
ATOM     12  C   UNL     1       4.892   5.084  16.406  0.00  0.00    +0.000 A 
ATOM     13  C   UNL     1       3.878   4.424  17.097  0.00  0.00    +0.000 A 
ATOM     14  C   UNL     1       2.998   5.118  17.939  0.00  0.00    +0.000 A 
ATOM     15  C   UNL     1       3.109   6.499  18.125  0.00  0.00    +0.000 A 
ATOM     16  C   UNL     1       4.161   7.142  17.443  0.00  0.00    +0.000 A 
ATOM     17  C   UNL     1       5.039   6.449  16.599  0.00  0.00    +0.000 A 
BRANCH  12  19
ATOM     18  C   UNL     1       7.080   4.351  15.910  0.00  0.00    +0.000 C 
ATOM     19  O   UNL     1       5.687   4.306  15.613  0.00  0.00    +0.000 OA
ENDBRANCH  12  19
ENDBRANCH   1  15
BRANCH   7  20
ATOM     20  C   UNL     1       0.665  11.500  19.923  0.00  0.00    +0.000 C 
ATOM     21  O   UNL     1       1.129  12.581  20.274  0.00  0.00    +0.000 OA
BRANCH  20  22
ATOM     22  O   UNL     1      -0.175  11.255  18.897  0.00  0.00    +0.000 OA
BRANCH  22  23
ATOM     23  C   UNL     1      -1.589  11.292  19.221  0.00  0.00    +0.000 C 
BRANCH  23  24
ATOM     24  C   UNL     1      -2.405  11.013  17.986  0.00  0.00    +0.000 A 
ATOM     25  C   UNL     1      -3.658  11.619  17.804  0.00  0.00    +0.000 A 
ATOM     26  C   UNL     1      -4.422  11.345  16.666  0.00  0.00    +0.000 A 
ATOM     27  C   UNL     1      -3.940  10.471  15.693  0.00  0.00    +0.000 A 
ATOM     28  C   UNL     1      -2.687   9.880  15.849  0.00  0.00    +0.000 A 
ATOM     29  C   UNL     1      -1.924  10.150  16.987  0.00  0.00    +0.000 A 
ENDBRANCH  23  24
ENDBRANCH  22  23
ENDBRANCH  20  22
ENDBRANCH   7  20
TORSDOF 6
ENDMDL
MODEL 9
REMARK VINA RESULT:      -7.6      3.165      5.094
REMARK  Name = 
REMARK  7 active torsions:
REMARK  status: ('A' for Active; 'I' for Inactive)
REMARK    1  A    between atoms: C_1  and  O_2
REMARK    2  A    between atoms: O_2  and  C_3
REMARK    3  A    between atoms: C_6  and  N_7
REMARK    4  A    between atoms: C_13  and  C_14
REMARK    5  A    between atoms: C_14  and  O_16
REMARK    6  A    between atoms: O_16  and  C_17
REMARK    7  A    between atoms: C_17  and  C_18
REMARK                            x       y       z     vdW  Elec       q    Type
REMARK                         _______ _______ _______ _____ _____    ______ ____
ROOT
ATOM      1  N   UNL     1       2.719   6.796  19.480  0.00  0.00    +0.000 N 
ATOM      2  C   UNL     1       2.302   5.573  20.113  0.00  0.00    +0.000 C 
ATOM      3  O   UNL     1       1.387   5.364  20.903  0.00  0.00    +0.000 OA
ATOM      4  C   UNL     1       3.076   4.599  19.327  0.00  0.00    +0.000 C 
ATOM      5  N   UNL     1       3.487   3.225  19.359  0.00  0.00    +0.000 N 
ATOM      6  N   UNL     1       4.521   3.047  18.501  0.00  0.00    +0.000 NA
ATOM      7  C   UNL     1       5.092   4.227  18.438  0.00  0.00    +0.000 C 
ATOM      8  C   UNL     1       4.444   5.256  19.297  0.00  0.00    +0.000 C 
ATOM      9  C   UNL     1       3.941   6.561  18.843  0.00  0.00    +0.000 C 
ATOM     10  O   UNL     1       4.561   7.248  18.025  0.00  0.00    +0.000 OA
ATOM     11  H   UNL     1       2.904   2.435  19.667  0.00  0.00    +0.000 HD
ENDROOT
BRANCH   1  15
ATOM     12  C   UNL     1       0.265  10.245  18.807  0.00  0.00    +0.000 A 
ATOM     13  C   UNL     1       0.446   9.735  20.091  0.00  0.00    +0.000 A 
ATOM     14  C   UNL     1       1.249   8.609  20.322  0.00  0.00    +0.000 A 
ATOM     15  C   UNL     1       1.894   7.950  19.271  0.00  0.00    +0.000 A 
ATOM     16  C   UNL     1       1.673   8.462  17.977  0.00  0.00    +0.000 A 
ATOM     17  C   UNL     1       0.871   9.588  17.747  0.00  0.00    +0.000 A 
BRANCH  12  19
ATOM     18  C   UNL     1      -0.150  12.462  19.498  0.00  0.00    +0.000 C 
ATOM     19  O   UNL     1      -0.537  11.345  18.703  0.00  0.00    +0.000 OA
ENDBRANCH  12  19
ENDBRANCH   1  15
BRANCH   7  20
ATOM     20  C   UNL     1       6.425   4.541  17.833  0.00  0.00    +0.000 C 
ATOM     21  O   UNL     1       7.458   4.338  18.464  0.00  0.00    +0.000 OA
BRANCH  20  22
ATOM     22  O   UNL     1       6.303   5.029  16.582  0.00  0.00    +0.000 OA
BRANCH  22  23
ATOM     23  C   UNL     1       5.492   4.237  15.676  0.00  0.00    +0.000 C 
BRANCH  23  24
ATOM     24  C   UNL     1       6.098   4.254  14.297  0.00  0.00    +0.000 A 
ATOM     25  C   UNL     1       5.553   3.474  13.265  0.00  0.00    +0.000 A 
ATOM     26  C   UNL     1       6.126   3.478  11.991  0.00  0.00    +0.000 A 
ATOM     27  C   UNL     1       7.245   4.268  11.729  0.00  0.00    +0.000 A 
ATOM     28  C   UNL     1       7.783   5.066  12.737  0.00  0.00    +0.000 A 
ATOM     29  C   UNL     1       7.212   5.061  14.012  0.00  0.00    +0.000 A 
ENDBRANCH  23  24
ENDBRANCH  22  23
ENDBRANCH  20  22
ENDBRANCH   7  20
TORSDOF 6
ENDMDL
