MODEL 1
REMARK VINA RESULT:     -10.4      0.000      0.000
REMARK  Name = 
REMARK  10 active torsions:
REMARK  status: ('A' for Active; 'I' for Inactive)
REMARK    1  A    between atoms: C_1  and  O_2
REMARK    2  A    between atoms: O_2  and  C_3
REMARK    3  A    between atoms: C_5  and  N_6
REMARK    4  A    between atoms: C_7  and  C_9
REMARK    5  A    between atoms: C_9  and  N_10
REMARK    6  A    between atoms: N_13  and  C_14
REMARK    7  A    between atoms: C_14  and  C_15
REMARK    8  A    between atoms: C_15  and  C_16
REMARK    9  A    between atoms: C_34  and  O_35
REMARK   10  A    between atoms: O_35  and  C_36
REMARK                            x       y       z     vdW  Elec       q    Type
REMARK                         _______ _______ _______ _____ _____    ______ ____
ROOT
ATOM      1  N   UNL     1       2.087   8.290  18.936  0.00  0.00    +0.000 N 
ATOM      2  N   UNL     1       2.604   7.502  17.959  0.00  0.00    +0.000 NA
ATOM      3  C   UNL     1       2.582   6.331  18.489  0.00  0.00    +0.000 A 
ATOM      4  N   UNL     1       2.780   5.208  17.778  0.00  0.00    +0.000 N 
ATOM      5  C   UNL     1       1.610   4.492  17.936  0.00  0.00    +0.000 A 
ATOM      6  O   UNL     1       0.729   4.373  17.093  0.00  0.00    +0.000 OA
ATOM      7  C   UNL     1       1.378   4.055  19.325  0.00  0.00    +0.000 A 
ATOM      8  C   UNL     1       1.139   2.697  19.518  0.00  0.00    +0.000 A 
ATOM      9  C   UNL     1       1.679   2.122  20.651  0.00  0.00    +0.000 A 
ATOM     10  C   UNL     1       2.372   2.931  21.567  0.00  0.00    +0.000 A 
ATOM     11  C   UNL     1       2.433   4.343  21.428  0.00  0.00    +0.000 A 
ATOM     12  C   UNL     1       1.877   4.943  20.297  0.00  0.00    +0.000 A 
ATOM     13  N   UNL     1       2.234   6.238  19.797  0.00  0.00    +0.000 N 
ATOM     14  C   UNL     1       1.755   7.516  20.094  0.00  0.00    +0.000 A 
ATOM     15  O   UNL     1       1.110   7.880  21.061  0.00  0.00    +0.000 OA
ENDROOT
BRANCH   1  16
ATOM     16  C   UNL     1       1.860   9.690  18.597  0.00  0.00    +0.000 C 
BRANCH  16  18
ATOM     17  N   UNL     1      -0.396  10.067  17.547  0.00  0.00    +0.000 N 
ATOM     18  C   UNL     1       0.406  10.241  18.667  0.00  0.00    +0.000 C 
ATOM     19  O   UNL     1       0.024  10.743  19.727  0.00  0.00    +0.000 OA
ATOM     20  H   UNL     1       0.079   9.729  16.715  0.00  0.00    +0.000 HD
BRANCH  17  23
ATOM     21  C   UNL     1      -3.864  11.415  18.130  0.00  0.00    +0.000 A 
ATOM     22  C   UNL     1      -2.541  11.055  18.380  0.00  0.00    +0.000 A 
ATOM     23  C   UNL     1      -1.765  10.446  17.383  0.00  0.00    +0.000 A 
ATOM     24  C   UNL     1      -2.370  10.201  16.138  0.00  0.00    +0.000 A 
ATOM     25  C   UNL     1      -3.695  10.580  15.874  0.00  0.00    +0.000 A 
ATOM     26  C   UNL     1      -4.442  11.208  16.876  0.00  0.00    +0.000 A 
BRANCH  21  28
ATOM     27  C   UNL     1      -5.856  12.666  18.481  0.00  0.00    +0.000 C 
ATOM     28  O   UNL     1      -4.706  12.034  19.032  0.00  0.00    +0.000 OA
ENDBRANCH  21  28
BRANCH  25  29
ATOM     29  O   UNL     1      -4.162  10.293  14.620  0.00  0.00    +0.000 OA
ATOM     30  C   UNL     1      -3.219   9.873  13.639  0.00  0.00    +0.000 C 
ENDBRANCH  25  29
ENDBRANCH  17  23
ENDBRANCH  16  18
ENDBRANCH   1  16
BRANCH   4  31
ATOM     31  C   UNL     1       4.071   4.591  18.118  0.00  0.00    +0.000 C 
BRANCH  31  32
ATOM     32  C   UNL     1       5.132   4.779  17.051  0.00  0.00    +0.000 C 
BRANCH  32  33
ATOM     33  C   UNL     1       6.239   5.673  17.545  0.00  0.00    +0.000 A 
ATOM     34  C   UNL     1       6.509   6.901  16.926  0.00  0.00    +0.000 A 
ATOM     35  C   UNL     1       7.502   7.739  17.435  0.00  0.00    +0.000 A 
ATOM     36  C   UNL     1       8.242   7.349  18.551  0.00  0.00    +0.000 A 
ATOM     37  C   UNL     1       8.013   6.108  19.140  0.00  0.00    +0.000 A 
ATOM     38  C   UNL     1       7.022   5.269  18.635  0.00  0.00    +0.000 A 
ENDBRANCH  32  33
ENDBRANCH  31  32
ENDBRANCH   4  31
TORSDOF 8
ENDMDL
MODEL 2
REMARK VINA RESULT:     -10.0      1.275      1.768
REMARK  Name = 
REMARK  10 active torsions:
REMARK  status: ('A' for Active; 'I' for Inactive)
REMARK    1  A    between atoms: C_1  and  O_2
REMARK    2  A    between atoms: O_2  and  C_3
REMARK    3  A    between atoms: C_5  and  N_6
REMARK    4  A    between atoms: C_7  and  C_9
REMARK    5  A    between atoms: C_9  and  N_10
REMARK    6  A    between atoms: N_13  and  C_14
REMARK    7  A    between atoms: C_14  and  C_15
REMARK    8  A    between atoms: C_15  and  C_16
REMARK    9  A    between atoms: C_34  and  O_35
REMARK   10  A    between atoms: O_35  and  C_36
REMARK                            x       y       z     vdW  Elec       q    Type
REMARK                         _______ _______ _______ _____ _____    ______ ____
ROOT
ATOM      1  N   UNL     1       2.517   8.229  18.373  0.00  0.00    +0.000 N 
ATOM      2  N   UNL     1       2.974   7.255  17.544  0.00  0.00    +0.000 NA
ATOM      3  C   UNL     1       2.809   6.184  18.235  0.00  0.00    +0.000 A 
ATOM      4  N   UNL     1       2.904   4.955  17.703  0.00  0.00    +0.000 N 
ATOM      5  C   UNL     1       1.659   4.394  17.908  0.00  0.00    +0.000 A 
ATOM      6  O   UNL     1       0.795   4.245  17.053  0.00  0.00    +0.000 OA
ATOM      7  C   UNL     1       1.339   4.193  19.334  0.00  0.00    +0.000 A 
ATOM      8  C   UNL     1       0.949   2.911  19.709  0.00  0.00    +0.000 A 
ATOM      9  C   UNL     1       1.388   2.456  20.936  0.00  0.00    +0.000 A 
ATOM     10  C   UNL     1       2.139   3.315  21.756  0.00  0.00    +0.000 A 
ATOM     11  C   UNL     1       2.357   4.678  21.419  0.00  0.00    +0.000 A 
ATOM     12  C   UNL     1       1.903   5.158  20.190  0.00  0.00    +0.000 A 
ATOM     13  N   UNL     1       2.414   6.322  19.526  0.00  0.00    +0.000 N 
ATOM     14  C   UNL     1       2.069   7.672  19.615  0.00  0.00    +0.000 A 
ATOM     15  O   UNL     1       1.439   8.239  20.489  0.00  0.00    +0.000 OA
ENDROOT
BRANCH   1  16
ATOM     16  C   UNL     1       2.455   9.579  17.827  0.00  0.00    +0.000 C 
BRANCH  16  18
ATOM     17  N   UNL     1       0.033  10.133  18.235  0.00  0.00    +0.000 N 
ATOM     18  C   UNL     1       1.354  10.541  18.362  0.00  0.00    +0.000 C 
ATOM     19  O   UNL     1       1.711  11.580  18.924  0.00  0.00    +0.000 OA
ATOM     20  H   UNL     1      -0.117   9.306  17.664  0.00  0.00    +0.000 HD
BRANCH  17  23
ATOM     21  C   UNL     1      -2.411  12.185  20.234  0.00  0.00    +0.000 A 
ATOM     22  C   UNL     1      -1.234  11.526  19.885  0.00  0.00    +0.000 A 
ATOM     23  C   UNL     1      -1.141  10.816  18.679  0.00  0.00    +0.000 A 
ATOM     24  C   UNL     1      -2.275  10.783  17.848  0.00  0.00    +0.000 A 
ATOM     25  C   UNL     1      -3.457  11.461  18.184  0.00  0.00    +0.000 A 
ATOM     26  C   UNL     1      -3.517  12.183  19.382  0.00  0.00    +0.000 A 
BRANCH  21  28
ATOM     27  C   UNL     1      -2.519  12.205  22.609  0.00  0.00    +0.000 C 
ATOM     28  O   UNL     1      -2.601  12.924  21.384  0.00  0.00    +0.000 OA
ENDBRANCH  21  28
BRANCH  25  29
ATOM     29  O   UNL     1      -4.484  11.356  17.287  0.00  0.00    +0.000 OA
ATOM     30  C   UNL     1      -5.815  11.418  17.789  0.00  0.00    +0.000 C 
ENDBRANCH  25  29
ENDBRANCH  17  23
ENDBRANCH  16  18
ENDBRANCH   1  16
BRANCH   4  31
ATOM     31  C   UNL     1       4.109   4.263  18.186  0.00  0.00    +0.000 C 
BRANCH  31  32
ATOM     32  C   UNL     1       5.265   4.305  17.204  0.00  0.00    +0.000 C 
BRANCH  32  33
ATOM     33  C   UNL     1       6.293   5.322  17.626  0.00  0.00    +0.000 A 
ATOM     34  C   UNL     1       6.475   6.509  16.904  0.00  0.00    +0.000 A 
ATOM     35  C   UNL     1       7.393   7.464  17.345  0.00  0.00    +0.000 A 
ATOM     36  C   UNL     1       8.145   7.231  18.496  0.00  0.00    +0.000 A 
ATOM     37  C   UNL     1       8.004   6.033  19.191  0.00  0.00    +0.000 A 
ATOM     38  C   UNL     1       7.088   5.077  18.753  0.00  0.00    +0.000 A 
ENDBRANCH  32  33
ENDBRANCH  31  32
ENDBRANCH   4  31
TORSDOF 8
ENDMDL
MODEL 3
REMARK VINA RESULT:     -10.0      1.100      2.152
REMARK  Name = 
REMARK  10 active torsions:
REMARK  status: ('A' for Active; 'I' for Inactive)
REMARK    1  A    between atoms: C_1  and  O_2
REMARK    2  A    between atoms: O_2  and  C_3
REMARK    3  A    between atoms: C_5  and  N_6
REMARK    4  A    between atoms: C_7  and  C_9
REMARK    5  A    between atoms: C_9  and  N_10
REMARK    6  A    between atoms: N_13  and  C_14
REMARK    7  A    between atoms: C_14  and  C_15
REMARK    8  A    between atoms: C_15  and  C_16
REMARK    9  A    between atoms: C_34  and  O_35
REMARK   10  A    between atoms: O_35  and  C_36
REMARK                            x       y       z     vdW  Elec       q    Type
REMARK                         _______ _______ _______ _____ _____    ______ ____
ROOT
ATOM      1  N   UNL     1       2.458   8.245  18.448  0.00  0.00    +0.000 N 
ATOM      2  N   UNL     1       2.921   7.293  17.598  0.00  0.00    +0.000 NA
ATOM      3  C   UNL     1       2.778   6.208  18.272  0.00  0.00    +0.000 A 
ATOM      4  N   UNL     1       2.886   4.989  17.717  0.00  0.00    +0.000 N 
ATOM      5  C   UNL     1       1.651   4.407  17.924  0.00  0.00    +0.000 A 
ATOM      6  O   UNL     1       0.781   4.260  17.075  0.00  0.00    +0.000 OA
ATOM      7  C   UNL     1       1.348   4.177  19.349  0.00  0.00    +0.000 A 
ATOM      8  C   UNL     1       0.980   2.883  19.705  0.00  0.00    +0.000 A 
ATOM      9  C   UNL     1       1.438   2.413  20.920  0.00  0.00    +0.000 A 
ATOM     10  C   UNL     1       2.185   3.269  21.748  0.00  0.00    +0.000 A 
ATOM     11  C   UNL     1       2.380   4.640  21.433  0.00  0.00    +0.000 A 
ATOM     12  C   UNL     1       1.907   5.135  20.217  0.00  0.00    +0.000 A 
ATOM     13  N   UNL     1       2.394   6.317  19.568  0.00  0.00    +0.000 N 
ATOM     14  C   UNL     1       2.030   7.661  19.684  0.00  0.00    +0.000 A 
ATOM     15  O   UNL     1       1.402   8.203  20.574  0.00  0.00    +0.000 OA
ENDROOT
BRANCH   1  16
ATOM     16  C   UNL     1       2.371   9.603  17.927  0.00  0.00    +0.000 C 
BRANCH  16  18
ATOM     17  N   UNL     1      -0.092  10.116  17.853  0.00  0.00    +0.000 N 
ATOM     18  C   UNL     1       1.154  10.479  18.346  0.00  0.00    +0.000 C 
ATOM     19  O   UNL     1       1.348  11.404  19.140  0.00  0.00    +0.000 OA
ATOM     20  H   UNL     1      -0.087   9.399  17.134  0.00  0.00    +0.000 HD
BRANCH  17  23
ATOM     21  C   UNL     1      -3.656  11.306  17.603  0.00  0.00    +0.000 A 
ATOM     22  C   UNL     1      -2.452  10.698  17.253  0.00  0.00    +0.000 A 
ATOM     23  C   UNL     1      -1.353  10.733  18.123  0.00  0.00    +0.000 A 
ATOM     24  C   UNL     1      -1.505  11.410  19.346  0.00  0.00    +0.000 A 
ATOM     25  C   UNL     1      -2.721  12.008  19.713  0.00  0.00    +0.000 A 
ATOM     26  C   UNL     1      -3.811  11.939  18.838  0.00  0.00    +0.000 A 
BRANCH  21  28
ATOM     27  C   UNL     1      -5.756  12.323  17.141  0.00  0.00    +0.000 C 
ATOM     28  O   UNL     1      -4.800  11.315  16.830  0.00  0.00    +0.000 OA
ENDBRANCH  21  28
BRANCH  25  29
ATOM     29  O   UNL     1      -2.740  12.628  20.932  0.00  0.00    +0.000 OA
ATOM     30  C   UNL     1      -2.096  13.894  21.044  0.00  0.00    +0.000 C 
ENDBRANCH  25  29
ENDBRANCH  17  23
ENDBRANCH  16  18
ENDBRANCH   1  16
BRANCH   4  31
ATOM     31  C   UNL     1       4.106   4.307  18.176  0.00  0.00    +0.000 C 
BRANCH  31  32
ATOM     32  C   UNL     1       5.247   4.373  17.180  0.00  0.00    +0.000 C 
BRANCH  32  33
ATOM     33  C   UNL     1       6.273   5.391  17.604  0.00  0.00    +0.000 A 
ATOM     34  C   UNL     1       6.410   6.608  16.922  0.00  0.00    +0.000 A 
ATOM     35  C   UNL     1       7.328   7.561  17.367  0.00  0.00    +0.000 A 
ATOM     36  C   UNL     1       8.125   7.297  18.480  0.00  0.00    +0.000 A 
ATOM     37  C   UNL     1       8.029   6.071  19.132  0.00  0.00    +0.000 A 
ATOM     38  C   UNL     1       7.113   5.117  18.691  0.00  0.00    +0.000 A 
ENDBRANCH  32  33
ENDBRANCH  31  32
ENDBRANCH   4  31
TORSDOF 8
ENDMDL
MODEL 4
REMARK VINA RESULT:      -9.9      0.754      2.261
REMARK  Name = 
REMARK  10 active torsions:
REMARK  status: ('A' for Active; 'I' for Inactive)
REMARK    1  A    between atoms: C_1  and  O_2
REMARK    2  A    between atoms: O_2  and  C_3
REMARK    3  A    between atoms: C_5  and  N_6
REMARK    4  A    between atoms: C_7  and  C_9
REMARK    5  A    between atoms: C_9  and  N_10
REMARK    6  A    between atoms: N_13  and  C_14
REMARK    7  A    between atoms: C_14  and  C_15
REMARK    8  A    between atoms: C_15  and  C_16
REMARK    9  A    between atoms: C_34  and  O_35
REMARK   10  A    between atoms: O_35  and  C_36
REMARK                            x       y       z     vdW  Elec       q    Type
REMARK                         _______ _______ _______ _____ _____    ______ ____
ROOT
ATOM      1  N   UNL     1       2.510   8.177  18.739  0.00  0.00    +0.000 N 
ATOM      2  N   UNL     1       2.970   7.286  17.823  0.00  0.00    +0.000 NA
ATOM      3  C   UNL     1       2.798   6.155  18.407  0.00  0.00    +0.000 A 
ATOM      4  N   UNL     1       2.894   4.981  17.760  0.00  0.00    +0.000 N 
ATOM      5  C   UNL     1       1.646   4.408  17.903  0.00  0.00    +0.000 A 
ATOM      6  O   UNL     1       0.788   4.343  17.032  0.00  0.00    +0.000 OA
ATOM      7  C   UNL     1       1.317   4.072  19.300  0.00  0.00    +0.000 A 
ATOM      8  C   UNL     1       0.921   2.761  19.548  0.00  0.00    +0.000 A 
ATOM      9  C   UNL     1       1.352   2.189  20.729  0.00  0.00    +0.000 A 
ATOM     10  C   UNL     1       2.099   2.963  21.633  0.00  0.00    +0.000 A 
ATOM     11  C   UNL     1       2.322   4.351  21.429  0.00  0.00    +0.000 A 
ATOM     12  C   UNL     1       1.878   4.949  20.249  0.00  0.00    +0.000 A 
ATOM     13  N   UNL     1       2.395   6.169  19.703  0.00  0.00    +0.000 N 
ATOM     14  C   UNL     1       2.052   7.506  19.918  0.00  0.00    +0.000 A 
ATOM     15  O   UNL     1       1.418   7.988  20.839  0.00  0.00    +0.000 OA
ENDROOT
BRANCH   1  16
ATOM     16  C   UNL     1       2.454   9.574  18.324  0.00  0.00    +0.000 C 
BRANCH  16  18
ATOM     17  N   UNL     1       0.061   9.944  17.637  0.00  0.00    +0.000 N 
ATOM     18  C   UNL     1       1.103  10.333  18.468  0.00  0.00    +0.000 C 
ATOM     19  O   UNL     1       1.008  11.192  19.349  0.00  0.00    +0.000 OA
ATOM     20  H   UNL     1       0.311   9.297  16.895  0.00  0.00    +0.000 HD
BRANCH  17  23
ATOM     21  C   UNL     1      -3.450  10.812  16.589  0.00  0.00    +0.000 A 
ATOM     22  C   UNL     1      -2.156  10.299  16.529  0.00  0.00    +0.000 A 
ATOM     23  C   UNL     1      -1.273  10.457  17.607  0.00  0.00    +0.000 A 
ATOM     24  C   UNL     1      -1.733  11.159  18.735  0.00  0.00    +0.000 A 
ATOM     25  C   UNL     1      -3.042  11.660  18.810  0.00  0.00    +0.000 A 
ATOM     26  C   UNL     1      -3.913  11.468  17.732  0.00  0.00    +0.000 A 
BRANCH  21  28
ATOM     27  C   UNL     1      -3.952  10.148  14.361  0.00  0.00    +0.000 C 
ATOM     28  O   UNL     1      -4.402  10.696  15.596  0.00  0.00    +0.000 OA
ENDBRANCH  21  28
BRANCH  25  29
ATOM     29  O   UNL     1      -3.367  12.315  19.966  0.00  0.00    +0.000 OA
ATOM     30  C   UNL     1      -2.343  12.496  20.939  0.00  0.00    +0.000 C 
ENDBRANCH  25  29
ENDBRANCH  17  23
ENDBRANCH  16  18
ENDBRANCH   1  16
BRANCH   4  31
ATOM     31  C   UNL     1       4.095   4.244  18.182  0.00  0.00    +0.000 C 
BRANCH  31  32
ATOM     32  C   UNL     1       5.252   4.364  17.209  0.00  0.00    +0.000 C 
BRANCH  32  33
ATOM     33  C   UNL     1       6.254   5.381  17.689  0.00  0.00    +0.000 A 
ATOM     34  C   UNL     1       7.018   5.156  18.842  0.00  0.00    +0.000 A 
ATOM     35  C   UNL     1       7.982   6.086  19.236  0.00  0.00    +0.000 A 
ATOM     36  C   UNL     1       8.174   7.251  18.495  0.00  0.00    +0.000 A 
ATOM     37  C   UNL     1       7.384   7.504  17.376  0.00  0.00    +0.000 A 
ATOM     38  C   UNL     1       6.421   6.577  16.979  0.00  0.00    +0.000 A 
ENDBRANCH  32  33
ENDBRANCH  31  32
ENDBRANCH   4  31
TORSDOF 8
ENDMDL
MODEL 5
REMARK VINA RESULT:      -9.8      2.730      3.669
REMARK  Name = 
REMARK  10 active torsions:
REMARK  status: ('A' for Active; 'I' for Inactive)
REMARK    1  A    between atoms: C_1  and  O_2
REMARK    2  A    between atoms: O_2  and  C_3
REMARK    3  A    between atoms: C_5  and  N_6
REMARK    4  A    between atoms: C_7  and  C_9
REMARK    5  A    between atoms: C_9  and  N_10
REMARK    6  A    between atoms: N_13  and  C_14
REMARK    7  A    between atoms: C_14  and  C_15
REMARK    8  A    between atoms: C_15  and  C_16
REMARK    9  A    between atoms: C_34  and  O_35
REMARK   10  A    between atoms: O_35  and  C_36
REMARK                            x       y       z     vdW  Elec       q    Type
REMARK                         _______ _______ _______ _____ _____    ______ ____
ROOT
ATOM      1  N   UNL     1       2.144   8.306  18.812  0.00  0.00    +0.000 N 
ATOM      2  N   UNL     1       2.664   7.485  17.863  0.00  0.00    +0.000 NA
ATOM      3  C   UNL     1       2.623   6.330  18.424  0.00  0.00    +0.000 A 
ATOM      4  N   UNL     1       2.816   5.186  17.746  0.00  0.00    +0.000 N 
ATOM      5  C   UNL     1       1.637   4.488  17.909  0.00  0.00    +0.000 A 
ATOM      6  O   UNL     1       0.764   4.356  17.060  0.00  0.00    +0.000 OA
ATOM      7  C   UNL     1       1.384   4.091  19.307  0.00  0.00    +0.000 A 
ATOM      8  C   UNL     1       1.128   2.742  19.533  0.00  0.00    +0.000 A 
ATOM      9  C   UNL     1       1.648   2.191  20.688  0.00  0.00    +0.000 A 
ATOM     10  C   UNL     1       2.340   3.017  21.590  0.00  0.00    +0.000 A 
ATOM     11  C   UNL     1       2.417   4.425  21.414  0.00  0.00    +0.000 A 
ATOM     12  C   UNL     1       1.881   4.999  20.261  0.00  0.00    +0.000 A 
ATOM     13  N   UNL     1       2.258   6.276  19.730  0.00  0.00    +0.000 N 
ATOM     14  C   UNL     1       1.791   7.567  19.987  0.00  0.00    +0.000 A 
ATOM     15  O   UNL     1       1.139   7.964  20.935  0.00  0.00    +0.000 OA
ENDROOT
BRANCH   1  16
ATOM     16  C   UNL     1       1.938   9.698  18.433  0.00  0.00    +0.000 C 
BRANCH  16  18
ATOM     17  N   UNL     1       1.023  10.908  20.441  0.00  0.00    +0.000 N 
ATOM     18  C   UNL     1       0.799  10.494  19.136  0.00  0.00    +0.000 C 
ATOM     19  O   UNL     1      -0.211  10.767  18.481  0.00  0.00    +0.000 OA
ATOM     20  H   UNL     1       1.852  10.526  20.886  0.00  0.00    +0.000 HD
BRANCH  17  23
ATOM     21  C   UNL     1      -1.724  11.967  22.790  0.00  0.00    +0.000 A 
ATOM     22  C   UNL     1      -0.940  11.151  21.977  0.00  0.00    +0.000 A 
ATOM     23  C   UNL     1       0.155  11.678  21.277  0.00  0.00    +0.000 A 
ATOM     24  C   UNL     1       0.421  13.052  21.413  0.00  0.00    +0.000 A 
ATOM     25  C   UNL     1      -0.352  13.875  22.245  0.00  0.00    +0.000 A 
ATOM     26  C   UNL     1      -1.425  13.321  22.953  0.00  0.00    +0.000 A 
BRANCH  21  28
ATOM     27  C   UNL     1      -3.703  12.567  23.964  0.00  0.00    +0.000 C 
ATOM     28  O   UNL     1      -2.808  11.547  23.534  0.00  0.00    +0.000 OA
ENDBRANCH  21  28
BRANCH  25  29
ATOM     29  O   UNL     1       0.017  15.192  22.296  0.00  0.00    +0.000 OA
ATOM     30  C   UNL     1      -0.659  16.106  21.437  0.00  0.00    +0.000 C 
ENDBRANCH  25  29
ENDBRANCH  17  23
ENDBRANCH  16  18
ENDBRANCH   1  16
BRANCH   4  31
ATOM     31  C   UNL     1       4.096   4.564  18.118  0.00  0.00    +0.000 C 
BRANCH  31  32
ATOM     32  C   UNL     1       5.177   4.727  17.066  0.00  0.00    +0.000 C 
BRANCH  32  33
ATOM     33  C   UNL     1       6.261   5.654  17.547  0.00  0.00    +0.000 A 
ATOM     34  C   UNL     1       6.471   6.899  16.939  0.00  0.00    +0.000 A 
ATOM     35  C   UNL     1       7.444   7.767  17.438  0.00  0.00    +0.000 A 
ATOM     36  C   UNL     1       8.224   7.390  18.531  0.00  0.00    +0.000 A 
ATOM     37  C   UNL     1       8.054   6.134  19.108  0.00  0.00    +0.000 A 
ATOM     38  C   UNL     1       7.083   5.265  18.613  0.00  0.00    +0.000 A 
ENDBRANCH  32  33
ENDBRANCH  31  32
ENDBRANCH   4  31
TORSDOF 8
ENDMDL
MODEL 6
REMARK VINA RESULT:      -9.7      1.201      2.647
REMARK  Name = 
REMARK  10 active torsions:
REMARK  status: ('A' for Active; 'I' for Inactive)
REMARK    1  A    between atoms: C_1  and  O_2
REMARK    2  A    between atoms: O_2  and  C_3
REMARK    3  A    between atoms: C_5  and  N_6
REMARK    4  A    between atoms: C_7  and  C_9
REMARK    5  A    between atoms: C_9  and  N_10
REMARK    6  A    between atoms: N_13  and  C_14
REMARK    7  A    between atoms: C_14  and  C_15
REMARK    8  A    between atoms: C_15  and  C_16
REMARK    9  A    between atoms: C_34  and  O_35
REMARK   10  A    between atoms: O_35  and  C_36
REMARK                            x       y       z     vdW  Elec       q    Type
REMARK                         _______ _______ _______ _____ _____    ______ ____
ROOT
ATOM      1  N   UNL     1       1.808   8.397  19.396  0.00  0.00    +0.000 N 
ATOM      2  N   UNL     1       2.468   7.748  18.402  0.00  0.00    +0.000 NA
ATOM      3  C   UNL     1       2.516   6.537  18.828  0.00  0.00    +0.000 A 
ATOM      4  N   UNL     1       2.870   5.505  18.044  0.00  0.00    +0.000 N 
ATOM      5  C   UNL     1       1.763   4.678  18.045  0.00  0.00    +0.000 A 
ATOM      6  O   UNL     1       0.961   4.561  17.126  0.00  0.00    +0.000 OA
ATOM      7  C   UNL     1       1.471   4.098  19.368  0.00  0.00    +0.000 A 
ATOM      8  C   UNL     1       1.346   2.713  19.427  0.00  0.00    +0.000 A 
ATOM      9  C   UNL     1       1.852   2.086  20.548  0.00  0.00    +0.000 A 
ATOM     10  C   UNL     1       2.397   2.865  21.582  0.00  0.00    +0.000 A 
ATOM     11  C   UNL     1       2.336   4.284  21.568  0.00  0.00    +0.000 A 
ATOM     12  C   UNL     1       1.812   4.934  20.450  0.00  0.00    +0.000 A 
ATOM     13  N   UNL     1       2.082   6.295  20.091  0.00  0.00    +0.000 N 
ATOM     14  C   UNL     1       1.465   7.495  20.454  0.00  0.00    +0.000 A 
ATOM     15  O   UNL     1       0.720   7.711  21.392  0.00  0.00    +0.000 OA
ENDROOT
BRANCH   1  16
ATOM     16  C   UNL     1       1.478   9.797  19.158  0.00  0.00    +0.000 C 
BRANCH  16  18
ATOM     17  N   UNL     1      -0.493  10.269  17.665  0.00  0.00    +0.000 N 
ATOM     18  C   UNL     1      -0.020  10.180  18.966  0.00  0.00    +0.000 C 
ATOM     19  O   UNL     1      -0.718  10.321  19.974  0.00  0.00    +0.000 OA
ATOM     20  H   UNL     1       0.215  10.227  16.937  0.00  0.00    +0.000 HD
BRANCH  17  23
ATOM     21  C   UNL     1      -3.690  10.455  15.683  0.00  0.00    +0.000 A 
ATOM     22  C   UNL     1      -2.373  10.144  16.015  0.00  0.00    +0.000 A 
ATOM     23  C   UNL     1      -1.824  10.564  17.236  0.00  0.00    +0.000 A 
ATOM     24  C   UNL     1      -2.641  11.315  18.099  0.00  0.00    +0.000 A 
ATOM     25  C   UNL     1      -3.975  11.614  17.779  0.00  0.00    +0.000 A 
ATOM     26  C   UNL     1      -4.507  11.164  16.566  0.00  0.00    +0.000 A 
BRANCH  21  28
ATOM     27  C   UNL     1      -3.498   9.899  13.379  0.00  0.00    +0.000 C 
ATOM     28  O   UNL     1      -4.330  10.076  14.520  0.00  0.00    +0.000 OA
ENDBRANCH  21  28
BRANCH  25  29
ATOM     29  O   UNL     1      -4.664  12.345  18.707  0.00  0.00    +0.000 OA
ATOM     30  C   UNL     1      -4.063  12.535  19.985  0.00  0.00    +0.000 C 
ENDBRANCH  25  29
ENDBRANCH  17  23
ENDBRANCH  16  18
ENDBRANCH   1  16
BRANCH   4  31
ATOM     31  C   UNL     1       4.184   4.972  18.436  0.00  0.00    +0.000 C 
BRANCH  31  32
ATOM     32  C   UNL     1       4.604   3.752  17.639  0.00  0.00    +0.000 C 
BRANCH  32  33
ATOM     33  C   UNL     1       5.466   4.145  16.467  0.00  0.00    +0.000 A 
ATOM     34  C   UNL     1       6.696   4.788  16.657  0.00  0.00    +0.000 A 
ATOM     35  C   UNL     1       7.504   5.092  15.561  0.00  0.00    +0.000 A 
ATOM     36  C   UNL     1       7.081   4.774  14.271  0.00  0.00    +0.000 A 
ATOM     37  C   UNL     1       5.838   4.179  14.072  0.00  0.00    +0.000 A 
ATOM     38  C   UNL     1       5.028   3.874  15.164  0.00  0.00    +0.000 A 
ENDBRANCH  32  33
ENDBRANCH  31  32
ENDBRANCH   4  31
TORSDOF 8
ENDMDL
MODEL 7
REMARK VINA RESULT:      -9.7      2.747      3.905
REMARK  Name = 
REMARK  10 active torsions:
REMARK  status: ('A' for Active; 'I' for Inactive)
REMARK    1  A    between atoms: C_1  and  O_2
REMARK    2  A    between atoms: O_2  and  C_3
REMARK    3  A    between atoms: C_5  and  N_6
REMARK    4  A    between atoms: C_7  and  C_9
REMARK    5  A    between atoms: C_9  and  N_10
REMARK    6  A    between atoms: N_13  and  C_14
REMARK    7  A    between atoms: C_14  and  C_15
REMARK    8  A    between atoms: C_15  and  C_16
REMARK    9  A    between atoms: C_34  and  O_35
REMARK   10  A    between atoms: O_35  and  C_36
REMARK                            x       y       z     vdW  Elec       q    Type
REMARK                         _______ _______ _______ _____ _____    ______ ____
ROOT
ATOM      1  N   UNL     1       2.170   8.320  18.691  0.00  0.00    +0.000 N 
ATOM      2  N   UNL     1       2.678   7.466  17.765  0.00  0.00    +0.000 NA
ATOM      3  C   UNL     1       2.627   6.328  18.361  0.00  0.00    +0.000 A 
ATOM      4  N   UNL     1       2.806   5.163  17.717  0.00  0.00    +0.000 N 
ATOM      5  C   UNL     1       1.620   4.481  17.904  0.00  0.00    +0.000 A 
ATOM      6  O   UNL     1       0.743   4.333  17.062  0.00  0.00    +0.000 OA
ATOM      7  C   UNL     1       1.368   4.129  19.314  0.00  0.00    +0.000 A 
ATOM      8  C   UNL     1       1.099   2.790  19.582  0.00  0.00    +0.000 A 
ATOM      9  C   UNL     1       1.617   2.268  20.750  0.00  0.00    +0.000 A 
ATOM     10  C   UNL     1       2.321   3.114  21.625  0.00  0.00    +0.000 A 
ATOM     11  C   UNL     1       2.412   4.515  21.407  0.00  0.00    +0.000 A 
ATOM     12  C   UNL     1       1.878   5.060  20.239  0.00  0.00    +0.000 A 
ATOM     13  N   UNL     1       2.267   6.317  19.669  0.00  0.00    +0.000 N 
ATOM     14  C   UNL     1       1.813   7.620  19.889  0.00  0.00    +0.000 A 
ATOM     15  O   UNL     1       1.169   8.051  20.827  0.00  0.00    +0.000 OA
ENDROOT
BRANCH   1  16
ATOM     16  C   UNL     1       1.977   9.702  18.271  0.00  0.00    +0.000 C 
BRANCH  16  18
ATOM     17  N   UNL     1       1.321  11.177  20.203  0.00  0.00    +0.000 N 
ATOM     18  C   UNL     1       0.920  10.562  19.025  0.00  0.00    +0.000 C 
ATOM     19  O   UNL     1      -0.192  10.702  18.509  0.00  0.00    +0.000 OA
ATOM     20  H   UNL     1       2.229  10.892  20.559  0.00  0.00    +0.000 HD
BRANCH  17  23
ATOM     21  C   UNL     1      -0.062  14.197  21.976  0.00  0.00    +0.000 A 
ATOM     22  C   UNL     1       0.748  13.425  21.146  0.00  0.00    +0.000 A 
ATOM     23  C   UNL     1       0.553  12.039  21.046  0.00  0.00    +0.000 A 
ATOM     24  C   UNL     1      -0.471  11.462  21.817  0.00  0.00    +0.000 A 
ATOM     25  C   UNL     1      -1.302  12.238  22.640  0.00  0.00    +0.000 A 
ATOM     26  C   UNL     1      -1.104  13.622  22.705  0.00  0.00    +0.000 A 
BRANCH  21  28
ATOM     27  C   UNL     1      -0.247  16.065  23.437  0.00  0.00    +0.000 C 
ATOM     28  O   UNL     1       0.033  15.566  22.134  0.00  0.00    +0.000 OA
ENDBRANCH  21  28
BRANCH  25  29
ATOM     29  O   UNL     1      -2.265  11.556  23.332  0.00  0.00    +0.000 OA
ATOM     30  C   UNL     1      -3.401  12.286  23.786  0.00  0.00    +0.000 C 
ENDBRANCH  25  29
ENDBRANCH  17  23
ENDBRANCH  16  18
ENDBRANCH   1  16
BRANCH   4  31
ATOM     31  C   UNL     1       4.081   4.538  18.103  0.00  0.00    +0.000 C 
BRANCH  31  32
ATOM     32  C   UNL     1       5.185   4.736  17.082  0.00  0.00    +0.000 C 
BRANCH  32  33
ATOM     33  C   UNL     1       6.233   5.686  17.601  0.00  0.00    +0.000 A 
ATOM     34  C   UNL     1       7.058   5.336  18.678  0.00  0.00    +0.000 A 
ATOM     35  C   UNL     1       8.060   6.207  19.106  0.00  0.00    +0.000 A 
ATOM     36  C   UNL     1       8.233   7.439  18.474  0.00  0.00    +0.000 A 
ATOM     37  C   UNL     1       7.385   7.813  17.435  0.00  0.00    +0.000 A 
ATOM     38  C   UNL     1       6.383   6.945  17.005  0.00  0.00    +0.000 A 
ENDBRANCH  32  33
ENDBRANCH  31  32
ENDBRANCH   4  31
TORSDOF 8
ENDMDL
MODEL 8
REMARK VINA RESULT:      -9.6      1.045      1.693
REMARK  Name = 
REMARK  10 active torsions:
REMARK  status: ('A' for Active; 'I' for Inactive)
REMARK    1  A    between atoms: C_1  and  O_2
REMARK    2  A    between atoms: O_2  and  C_3
REMARK    3  A    between atoms: C_5  and  N_6
REMARK    4  A    between atoms: C_7  and  C_9
REMARK    5  A    between atoms: C_9  and  N_10
REMARK    6  A    between atoms: N_13  and  C_14
REMARK    7  A    between atoms: C_14  and  C_15
REMARK    8  A    between atoms: C_15  and  C_16
REMARK    9  A    between atoms: C_34  and  O_35
REMARK   10  A    between atoms: O_35  and  C_36
REMARK                            x       y       z     vdW  Elec       q    Type
REMARK                         _______ _______ _______ _____ _____    ______ ____
ROOT
ATOM      1  N   UNL     1       1.897   8.390  19.301  0.00  0.00    +0.000 N 
ATOM      2  N   UNL     1       2.525   7.707  18.309  0.00  0.00    +0.000 NA
ATOM      3  C   UNL     1       2.554   6.504  18.759  0.00  0.00    +0.000 A 
ATOM      4  N   UNL     1       2.872   5.449  17.990  0.00  0.00    +0.000 N 
ATOM      5  C   UNL     1       1.747   4.648  18.026  0.00  0.00    +0.000 A 
ATOM      6  O   UNL     1       0.928   4.530  17.123  0.00  0.00    +0.000 OA
ATOM      7  C   UNL     1       1.465   4.100  19.365  0.00  0.00    +0.000 A 
ATOM      8  C   UNL     1       1.311   2.720  19.454  0.00  0.00    +0.000 A 
ATOM      9  C   UNL     1       1.823   2.103  20.578  0.00  0.00    +0.000 A 
ATOM     10  C   UNL     1       2.403   2.891  21.588  0.00  0.00    +0.000 A 
ATOM     11  C   UNL     1       2.372   4.310  21.546  0.00  0.00    +0.000 A 
ATOM     12  C   UNL     1       1.843   4.949  20.424  0.00  0.00    +0.000 A 
ATOM     13  N   UNL     1       2.137   6.297  20.033  0.00  0.00    +0.000 N 
ATOM     14  C   UNL     1       1.553   7.517  20.383  0.00  0.00    +0.000 A 
ATOM     15  O   UNL     1       0.829   7.769  21.328  0.00  0.00    +0.000 OA
ENDROOT
BRANCH   1  16
ATOM     16  C   UNL     1       1.594   9.792  19.041  0.00  0.00    +0.000 C 
BRANCH  16  18
ATOM     17  N   UNL     1      -0.508  10.287  17.747  0.00  0.00    +0.000 N 
ATOM     18  C   UNL     1       0.099  10.228  18.994  0.00  0.00    +0.000 C 
ATOM     19  O   UNL     1      -0.480  10.435  20.063  0.00  0.00    +0.000 OA
ATOM     20  H   UNL     1       0.115  10.189  16.951  0.00  0.00    +0.000 HD
BRANCH  17  23
ATOM     21  C   UNL     1      -4.033  11.595  17.955  0.00  0.00    +0.000 A 
ATOM     22  C   UNL     1      -2.727  11.289  18.332  0.00  0.00    +0.000 A 
ATOM     23  C   UNL     1      -1.867  10.618  17.451  0.00  0.00    +0.000 A 
ATOM     24  C   UNL     1      -2.371  10.256  16.189  0.00  0.00    +0.000 A 
ATOM     25  C   UNL     1      -3.679  10.579  15.796  0.00  0.00    +0.000 A 
ATOM     26  C   UNL     1      -4.511  11.271  16.684  0.00  0.00    +0.000 A 
BRANCH  21  28
ATOM     27  C   UNL     1      -6.285  11.765  18.702  0.00  0.00    +0.000 C 
ATOM     28  O   UNL     1      -4.953  12.266  18.736  0.00  0.00    +0.000 OA
ENDBRANCH  21  28
BRANCH  25  29
ATOM     29  O   UNL     1      -4.044  10.178  14.540  0.00  0.00    +0.000 OA
ATOM     30  C   UNL     1      -3.011   9.797  13.637  0.00  0.00    +0.000 C 
ENDBRANCH  25  29
ENDBRANCH  17  23
ENDBRANCH  16  18
ENDBRANCH   1  16
BRANCH   4  31
ATOM     31  C   UNL     1       4.181   4.895  18.370  0.00  0.00    +0.000 C 
BRANCH  31  32
ATOM     32  C   UNL     1       5.354   5.676  17.810  0.00  0.00    +0.000 C 
BRANCH  32  33
ATOM     33  C   UNL     1       5.756   5.148  16.458  0.00  0.00    +0.000 A 
ATOM     34  C   UNL     1       6.857   5.678  15.771  0.00  0.00    +0.000 A 
ATOM     35  C   UNL     1       7.246   5.135  14.547  0.00  0.00    +0.000 A 
ATOM     36  C   UNL     1       6.529   4.075  13.992  0.00  0.00    +0.000 A 
ATOM     37  C   UNL     1       5.405   3.576  14.645  0.00  0.00    +0.000 A 
ATOM     38  C   UNL     1       5.013   4.115  15.869  0.00  0.00    +0.000 A 
ENDBRANCH  32  33
ENDBRANCH  31  32
ENDBRANCH   4  31
TORSDOF 8
ENDMDL
MODEL 9
REMARK VINA RESULT:      -9.6      1.795      3.027
REMARK  Name = 
REMARK  10 active torsions:
REMARK  status: ('A' for Active; 'I' for Inactive)
REMARK    1  A    between atoms: C_1  and  O_2
REMARK    2  A    between atoms: O_2  and  C_3
REMARK    3  A    between atoms: C_5  and  N_6
REMARK    4  A    between atoms: C_7  and  C_9
REMARK    5  A    between atoms: C_9  and  N_10
REMARK    6  A    between atoms: N_13  and  C_14
REMARK    7  A    between atoms: C_14  and  C_15
REMARK    8  A    between atoms: C_15  and  C_16
REMARK    9  A    between atoms: C_34  and  O_35
REMARK   10  A    between atoms: O_35  and  C_36
REMARK                            x       y       z     vdW  Elec       q    Type
REMARK                         _______ _______ _______ _____ _____    ______ ____
ROOT
ATOM      1  N   UNL     1       2.223   8.363  18.429  0.00  0.00    +0.000 N 
ATOM      2  N   UNL     1       2.749   7.437  17.586  0.00  0.00    +0.000 NA
ATOM      3  C   UNL     1       2.668   6.348  18.264  0.00  0.00    +0.000 A 
ATOM      4  N   UNL     1       2.853   5.136  17.716  0.00  0.00    +0.000 N 
ATOM      5  C   UNL     1       1.654   4.481  17.919  0.00  0.00    +0.000 A 
ATOM      6  O   UNL     1       0.801   4.277  17.065  0.00  0.00    +0.000 OA
ATOM      7  C   UNL     1       1.357   4.239  19.343  0.00  0.00    +0.000 A 
ATOM      8  C   UNL     1       1.066   2.927  19.703  0.00  0.00    +0.000 A 
ATOM      9  C   UNL     1       1.544   2.491  20.923  0.00  0.00    +0.000 A 
ATOM     10  C   UNL     1       2.232   3.394  21.752  0.00  0.00    +0.000 A 
ATOM     11  C   UNL     1       2.345   4.773  21.431  0.00  0.00    +0.000 A 
ATOM     12  C   UNL     1       1.851   5.233  20.210  0.00  0.00    +0.000 A 
ATOM     13  N   UNL     1       2.269   6.440  19.558  0.00  0.00    +0.000 N 
ATOM     14  C   UNL     1       1.824   7.759  19.665  0.00  0.00    +0.000 A 
ATOM     15  O   UNL     1       1.158   8.266  20.549  0.00  0.00    +0.000 OA
ENDROOT
BRANCH   1  16
ATOM     16  C   UNL     1       2.057   9.711  17.900  0.00  0.00    +0.000 C 
BRANCH  16  18
ATOM     17  N   UNL     1      -0.140  10.464  18.870  0.00  0.00    +0.000 N 
ATOM     18  C   UNL     1       1.215  10.729  18.724  0.00  0.00    +0.000 C 
ATOM     19  O   UNL     1       1.801  11.676  19.255  0.00  0.00    +0.000 OA
ATOM     20  H   UNL     1      -0.503   9.708  18.297  0.00  0.00    +0.000 HD
BRANCH  17  23
ATOM     21  C   UNL     1      -3.229  12.367  19.878  0.00  0.00    +0.000 A 
ATOM     22  C   UNL     1      -2.333  11.654  19.085  0.00  0.00    +0.000 A 
ATOM     23  C   UNL     1      -1.105  11.220  19.605  0.00  0.00    +0.000 A 
ATOM     24  C   UNL     1      -0.808  11.541  20.942  0.00  0.00    +0.000 A 
ATOM     25  C   UNL     1      -1.715  12.243  21.752  0.00  0.00    +0.000 A 
ATOM     26  C   UNL     1      -2.945  12.644  21.217  0.00  0.00    +0.000 A 
BRANCH  21  28
ATOM     27  C   UNL     1      -5.563  11.943  19.699  0.00  0.00    +0.000 C 
ATOM     28  O   UNL     1      -4.467  12.823  19.471  0.00  0.00    +0.000 OA
ENDBRANCH  21  28
BRANCH  25  29
ATOM     29  O   UNL     1      -1.309  12.485  23.035  0.00  0.00    +0.000 OA
ATOM     30  C   UNL     1      -1.161  13.842  23.442  0.00  0.00    +0.000 C 
ENDBRANCH  25  29
ENDBRANCH  17  23
ENDBRANCH  16  18
ENDBRANCH   1  16
BRANCH   4  31
ATOM     31  C   UNL     1       4.109   4.532  18.186  0.00  0.00    +0.000 C 
BRANCH  31  32
ATOM     32  C   UNL     1       5.248   4.651  17.191  0.00  0.00    +0.000 C 
BRANCH  32  33
ATOM     33  C   UNL     1       6.285   5.630  17.675  0.00  0.00    +0.000 A 
ATOM     34  C   UNL     1       7.140   5.313  18.738  0.00  0.00    +0.000 A 
ATOM     35  C   UNL     1       8.131   6.212  19.133  0.00  0.00    +0.000 A 
ATOM     36  C   UNL     1       8.261   7.439  18.482  0.00  0.00    +0.000 A 
ATOM     37  C   UNL     1       7.383   7.781  17.457  0.00  0.00    +0.000 A 
ATOM     38  C   UNL     1       6.392   6.885  17.060  0.00  0.00    +0.000 A 
ENDBRANCH  32  33
ENDBRANCH  31  32
ENDBRANCH   4  31
TORSDOF 8
ENDMDL
