MODEL 1
REMARK VINA RESULT:      -7.4      0.000      0.000
REMARK  Name = 
REMARK  2 active torsions:
REMARK  status: ('A' for Active; 'I' for Inactive)
REMARK    1  A    between atoms: C_1  and  N_2
REMARK    2  A    between atoms: N_16  and  C_17
REMARK                            x       y       z     vdW  Elec       q    Type
REMARK                         _______ _______ _______ _____ _____    ______ ____
ROOT
ATOM      1  C   UNL     1       2.482   7.825  17.845  0.00  0.00    +0.000 C 
ATOM      2  N   UNL     1       3.431   6.759  18.018  0.00  0.00    +0.000 N 
ATOM      3  C   UNL     1       4.566   6.715  17.216  0.00  0.00    +0.000 C 
ATOM      4  O   UNL     1       4.618   7.267  16.113  0.00  0.00    +0.000 OA
ATOM      5  N   UNL     1       5.673   6.068  17.781  0.00  0.00    +0.000 N 
ATOM      6  C   UNL     1       6.977   6.392  17.244  0.00  0.00    +0.000 C 
ATOM      7  C   UNL     1       7.856   6.788  18.403  0.00  0.00    +0.000 C 
ATOM      8  C   UNL     1       7.918   5.621  19.383  0.00  0.00    +0.000 C 
ATOM      9  N   UNL     1       6.626   4.959  19.639  0.00  0.00    +0.000 NA
ATOM     10  C   UNL     1       5.615   5.261  18.901  0.00  0.00    +0.000 C 
ATOM     11  C   UNL     1       4.279   4.913  19.272  0.00  0.00    +0.000 A 
ATOM     12  C   UNL     1       3.241   5.742  18.925  0.00  0.00    +0.000 A 
ATOM     13  N   UNL     1       2.081   5.414  19.525  0.00  0.00    +0.000 NA
ATOM     14  C   UNL     1       2.356   4.271  20.122  0.00  0.00    +0.000 A 
ATOM     15 CL   UNL     1       1.218   3.311  20.934  0.00  0.00    +0.000 Cl
ATOM     16  N   UNL     1       3.669   3.884  19.954  0.00  0.00    +0.000 N 
ATOM     17  C   UNL     1       4.217   2.567  20.170  0.00  0.00    +0.000 C 
ENDROOT
TORSDOF 0
ENDMDL
MODEL 2
REMARK VINA RESULT:      -7.2      1.111      1.127
REMARK  Name = 
REMARK  2 active torsions:
REMARK  status: ('A' for Active; 'I' for Inactive)
REMARK    1  A    between atoms: C_1  and  N_2
REMARK    2  A    between atoms: N_16  and  C_17
REMARK                            x       y       z     vdW  Elec       q    Type
REMARK                         _______ _______ _______ _____ _____    ______ ____
ROOT
ATOM      1  C   UNL     1       2.050   7.756  19.683  0.00  0.00    +0.000 C 
ATOM      2  N   UNL     1       2.881   6.697  19.178  0.00  0.00    +0.000 N 
ATOM      3  C   UNL     1       3.614   6.897  18.014  0.00  0.00    +0.000 C 
ATOM      4  O   UNL     1       3.297   7.741  17.169  0.00  0.00    +0.000 OA
ATOM      5  N   UNL     1       4.782   6.132  17.901  0.00  0.00    +0.000 N 
ATOM      6  C   UNL     1       5.808   6.611  17.002  0.00  0.00    +0.000 C 
ATOM      7  C   UNL     1       7.098   6.673  17.780  0.00  0.00    +0.000 C 
ATOM      8  C   UNL     1       7.410   5.276  18.307  0.00  0.00    +0.000 C 
ATOM      9  N   UNL     1       6.254   4.552  18.865  0.00  0.00    +0.000 NA
ATOM     10  C   UNL     1       5.074   5.039  18.694  0.00  0.00    +0.000 C 
ATOM     11  C   UNL     1       3.953   4.581  19.455  0.00  0.00    +0.000 A 
ATOM     12  C   UNL     1       2.950   5.461  19.779  0.00  0.00    +0.000 A 
ATOM     13  N   UNL     1       2.080   4.961  20.677  0.00  0.00    +0.000 NA
ATOM     14  C   UNL     1       2.445   3.699  20.788  0.00  0.00    +0.000 A 
ATOM     15 CL   UNL     1       1.612   2.533  21.697  0.00  0.00    +0.000 Cl
ATOM     16  N   UNL     1       3.548   3.394  20.021  0.00  0.00    +0.000 N 
ATOM     17  C   UNL     1       4.002   2.076  19.645  0.00  0.00    +0.000 C 
ENDROOT
TORSDOF 0
ENDMDL
MODEL 3
REMARK VINA RESULT:      -6.5      3.641      5.463
REMARK  Name = 
REMARK  2 active torsions:
REMARK  status: ('A' for Active; 'I' for Inactive)
REMARK    1  A    between atoms: C_1  and  N_2
REMARK    2  A    between atoms: N_16  and  C_17
REMARK                            x       y       z     vdW  Elec       q    Type
REMARK                         _______ _______ _______ _____ _____    ______ ____
ROOT
ATOM      1  C   UNL     1       7.846   7.044  18.200  0.00  0.00    +0.000 C 
ATOM      2  N   UNL     1       7.060   5.913  17.786  0.00  0.00    +0.000 N 
ATOM      3  C   UNL     1       6.481   5.092  18.747  0.00  0.00    +0.000 C 
ATOM      4  O   UNL     1       6.919   5.011  19.899  0.00  0.00    +0.000 OA
ATOM      5  N   UNL     1       5.318   4.424  18.342  0.00  0.00    +0.000 N 
ATOM      6  C   UNL     1       4.423   3.960  19.379  0.00  0.00    +0.000 C 
ATOM      7  C   UNL     1       3.048   4.491  19.059  0.00  0.00    +0.000 C 
ATOM      8  C   UNL     1       2.641   3.976  17.683  0.00  0.00    +0.000 C 
ATOM      9  N   UNL     1       3.701   4.033  16.662  0.00  0.00    +0.000 NA
ATOM     10  C   UNL     1       4.905   4.308  17.029  0.00  0.00    +0.000 C 
ATOM     11  C   UNL     1       5.913   4.687  16.089  0.00  0.00    +0.000 A 
ATOM     12  C   UNL     1       6.888   5.578  16.463  0.00  0.00    +0.000 A 
ATOM     13  N   UNL     1       7.629   6.014  15.426  0.00  0.00    +0.000 NA
ATOM     14  C   UNL     1       7.223   5.264  14.421  0.00  0.00    +0.000 A 
ATOM     15 CL   UNL     1       7.910   5.280  12.870  0.00  0.00    +0.000 Cl
ATOM     16  N   UNL     1       6.217   4.393  14.778  0.00  0.00    +0.000 N 
ATOM     17  C   UNL     1       5.782   3.227  14.047  0.00  0.00    +0.000 C 
ENDROOT
TORSDOF 0
ENDMDL
MODEL 4
REMARK VINA RESULT:      -6.2      2.872      4.618
REMARK  Name = 
REMARK  2 active torsions:
REMARK  status: ('A' for Active; 'I' for Inactive)
REMARK    1  A    between atoms: C_1  and  N_2
REMARK    2  A    between atoms: N_16  and  C_17
REMARK                            x       y       z     vdW  Elec       q    Type
REMARK                         _______ _______ _______ _____ _____    ______ ____
ROOT
ATOM      1  C   UNL     1       2.212   7.778  18.685  0.00  0.00    +0.000 C 
ATOM      2  N   UNL     1       2.973   6.568  18.835  0.00  0.00    +0.000 N 
ATOM      3  C   UNL     1       2.490   5.551  19.651  0.00  0.00    +0.000 C 
ATOM      4  O   UNL     1       1.687   5.762  20.566  0.00  0.00    +0.000 OA
ATOM      5  N   UNL     1       2.916   4.259  19.316  0.00  0.00    +0.000 N 
ATOM      6  C   UNL     1       2.111   3.152  19.783  0.00  0.00    +0.000 C 
ATOM      7  C   UNL     1       1.786   2.294  18.586  0.00  0.00    +0.000 C 
ATOM      8  C   UNL     1       3.095   1.823  17.961  0.00  0.00    +0.000 C 
ATOM      9  N   UNL     1       4.138   2.858  17.855  0.00  0.00    +0.000 NA
ATOM     10  C   UNL     1       3.960   3.984  18.454  0.00  0.00    +0.000 C 
ATOM     11  C   UNL     1       4.755   5.133  18.152  0.00  0.00    +0.000 A 
ATOM     12  C   UNL     1       4.196   6.384  18.232  0.00  0.00    +0.000 A 
ATOM     13  N   UNL     1       4.979   7.346  17.708  0.00  0.00    +0.000 NA
ATOM     14  C   UNL     1       6.109   6.717  17.451  0.00  0.00    +0.000 A 
ATOM     15 CL   UNL     1       7.524   7.468  16.895  0.00  0.00    +0.000 Cl
ATOM     16  N   UNL     1       6.052   5.374  17.756  0.00  0.00    +0.000 N 
ATOM     17  C   UNL     1       7.170   4.476  17.919  0.00  0.00    +0.000 C 
ENDROOT
TORSDOF 0
ENDMDL
MODEL 5
REMARK VINA RESULT:      -6.1      2.757      4.571
REMARK  Name = 
REMARK  2 active torsions:
REMARK  status: ('A' for Active; 'I' for Inactive)
REMARK    1  A    between atoms: C_1  and  N_2
REMARK    2  A    between atoms: N_16  and  C_17
REMARK                            x       y       z     vdW  Elec       q    Type
REMARK                         _______ _______ _______ _____ _____    ______ ____
ROOT
ATOM      1  C   UNL     1       2.201   8.424  17.835  0.00  0.00    +0.000 C 
ATOM      2  N   UNL     1       2.797   7.279  18.466  0.00  0.00    +0.000 N 
ATOM      3  C   UNL     1       2.305   6.835  19.688  0.00  0.00    +0.000 C 
ATOM      4  O   UNL     1       1.686   7.575  20.460  0.00  0.00    +0.000 OA
ATOM      5  N   UNL     1       2.489   5.471  19.949  0.00  0.00    +0.000 N 
ATOM      6  C   UNL     1       1.616   4.857  20.926  0.00  0.00    +0.000 C 
ATOM      7  C   UNL     1       0.997   3.644  20.278  0.00  0.00    +0.000 C 
ATOM      8  C   UNL     1       2.118   2.704  19.846  0.00  0.00    +0.000 C 
ATOM      9  N   UNL     1       3.268   3.366  19.206  0.00  0.00    +0.000 NA
ATOM     10  C   UNL     1       3.343   4.651  19.237  0.00  0.00    +0.000 C 
ATOM     11  C   UNL     1       4.237   5.375  18.389  0.00  0.00    +0.000 A 
ATOM     12  C   UNL     1       3.878   6.618  17.928  0.00  0.00    +0.000 A 
ATOM     13  N   UNL     1       4.702   7.083  16.970  0.00  0.00    +0.000 NA
ATOM     14  C   UNL     1       5.680   6.199  16.950  0.00  0.00    +0.000 A 
ATOM     15 CL   UNL     1       7.087   6.343  16.014  0.00  0.00    +0.000 Cl
ATOM     16  N   UNL     1       5.480   5.163  17.836  0.00  0.00    +0.000 N 
ATOM     17  C   UNL     1       6.473   4.229  18.312  0.00  0.00    +0.000 C 
ENDROOT
TORSDOF 0
ENDMDL
MODEL 6
REMARK VINA RESULT:      -6.1      2.453      3.604
REMARK  Name = 
REMARK  2 active torsions:
REMARK  status: ('A' for Active; 'I' for Inactive)
REMARK    1  A    between atoms: C_1  and  N_2
REMARK    2  A    between atoms: N_16  and  C_17
REMARK                            x       y       z     vdW  Elec       q    Type
REMARK                         _______ _______ _______ _____ _____    ______ ____
ROOT
ATOM      1  C   UNL     1       7.847   5.699  19.302  0.00  0.00    +0.000 C 
ATOM      2  N   UNL     1       6.861   5.454  18.286  0.00  0.00    +0.000 N 
ATOM      3  C   UNL     1       6.909   6.172  17.097  0.00  0.00    +0.000 C 
ATOM      4  O   UNL     1       7.466   7.272  17.009  0.00  0.00    +0.000 OA
ATOM      5  N   UNL     1       6.354   5.527  15.984  0.00  0.00    +0.000 N 
ATOM      6  C   UNL     1       6.782   5.970  14.675  0.00  0.00    +0.000 C 
ATOM      7  C   UNL     1       7.246   4.753  13.916  0.00  0.00    +0.000 C 
ATOM      8  C   UNL     1       6.086   3.766  13.831  0.00  0.00    +0.000 C 
ATOM      9  N   UNL     1       5.322   3.600  15.080  0.00  0.00    +0.000 NA
ATOM     10  C   UNL     1       5.543   4.411  16.057  0.00  0.00    +0.000 C 
ATOM     11  C   UNL     1       5.087   4.135  17.384  0.00  0.00    +0.000 A 
ATOM     12  C   UNL     1       5.830   4.559  18.457  0.00  0.00    +0.000 A 
ATOM     13  N   UNL     1       5.409   4.042  19.627  0.00  0.00    +0.000 NA
ATOM     14  C   UNL     1       4.290   3.422  19.304  0.00  0.00    +0.000 A 
ATOM     15 CL   UNL     1       3.241   2.689  20.417  0.00  0.00    +0.000 Cl
ATOM     16  N   UNL     1       4.012   3.494  17.957  0.00  0.00    +0.000 N 
ATOM     17  C   UNL     1       2.742   3.233  17.321  0.00  0.00    +0.000 C 
ENDROOT
TORSDOF 0
ENDMDL
MODEL 7
REMARK VINA RESULT:      -5.8      2.650      4.448
REMARK  Name = 
REMARK  2 active torsions:
REMARK  status: ('A' for Active; 'I' for Inactive)
REMARK    1  A    between atoms: C_1  and  N_2
REMARK    2  A    between atoms: N_16  and  C_17
REMARK                            x       y       z     vdW  Elec       q    Type
REMARK                         _______ _______ _______ _____ _____    ______ ____
ROOT
ATOM      1  C   UNL     1       2.252   7.577  17.864  0.00  0.00    +0.000 C 
ATOM      2  N   UNL     1       3.127   6.697  18.589  0.00  0.00    +0.000 N 
ATOM      3  C   UNL     1       2.649   6.025  19.708  0.00  0.00    +0.000 C 
ATOM      4  O   UNL     1       1.682   6.430  20.361  0.00  0.00    +0.000 OA
ATOM      5  N   UNL     1       3.289   4.813  19.998  0.00  0.00    +0.000 N 
ATOM      6  C   UNL     1       2.568   3.857  20.810  0.00  0.00    +0.000 C 
ATOM      7  C   UNL     1       2.564   2.545  20.066  0.00  0.00    +0.000 C 
ATOM      8  C   UNL     1       4.010   2.118  19.834  0.00  0.00    +0.000 C 
ATOM      9  N   UNL     1       4.912   3.200  19.402  0.00  0.00    +0.000 NA
ATOM     10  C   UNL     1       4.491   4.416  19.444  0.00  0.00    +0.000 C 
ATOM     11  C   UNL     1       5.170   5.473  18.762  0.00  0.00    +0.000 A 
ATOM     12  C   UNL     1       4.448   6.520  18.246  0.00  0.00    +0.000 A 
ATOM     13  N   UNL     1       5.178   7.319  17.444  0.00  0.00    +0.000 NA
ATOM     14  C   UNL     1       6.406   6.865  17.593  0.00  0.00    +0.000 A 
ATOM     15 CL   UNL     1       7.786   7.581  16.914  0.00  0.00    +0.000 Cl
ATOM     16  N   UNL     1       6.473   5.774  18.433  0.00  0.00    +0.000 N 
ATOM     17  C   UNL     1       7.654   5.246  19.073  0.00  0.00    +0.000 C 
ENDROOT
TORSDOF 0
ENDMDL
MODEL 8
REMARK VINA RESULT:      -5.7      3.149      4.871
REMARK  Name = 
REMARK  2 active torsions:
REMARK  status: ('A' for Active; 'I' for Inactive)
REMARK    1  A    between atoms: C_1  and  N_2
REMARK    2  A    between atoms: N_16  and  C_17
REMARK                            x       y       z     vdW  Elec       q    Type
REMARK                         _______ _______ _______ _____ _____    ______ ____
ROOT
ATOM      1  C   UNL     1       2.062   8.265  18.708  0.00  0.00    +0.000 C 
ATOM      2  N   UNL     1       2.537   6.913  18.812  0.00  0.00    +0.000 N 
ATOM      3  C   UNL     1       2.170   6.140  19.908  0.00  0.00    +0.000 C 
ATOM      4  O   UNL     1       1.819   6.639  20.982  0.00  0.00    +0.000 OA
ATOM      5  N   UNL     1       2.148   4.757  19.685  0.00  0.00    +0.000 N 
ATOM      6  C   UNL     1       1.342   3.952  20.578  0.00  0.00    +0.000 C 
ATOM      7  C   UNL     1       0.426   3.112  19.724  0.00  0.00    +0.000 C 
ATOM      8  C   UNL     1       1.282   2.252  18.799  0.00  0.00    +0.000 C 
ATOM      9  N   UNL     1       2.418   2.955  18.178  0.00  0.00    +0.000 NA
ATOM     10  C   UNL     1       2.723   4.135  18.593  0.00  0.00    +0.000 C 
ATOM     11  C   UNL     1       3.588   4.997  17.850  0.00  0.00    +0.000 A 
ATOM     12  C   UNL     1       3.387   6.354  17.885  0.00  0.00    +0.000 A 
ATOM     13  N   UNL     1       4.122   7.020  16.974  0.00  0.00    +0.000 NA
ATOM     14  C   UNL     1       4.913   6.089  16.478  0.00  0.00    +0.000 A 
ATOM     15 CL   UNL     1       6.161   6.380  15.366  0.00  0.00    +0.000 Cl
ATOM     16  N   UNL     1       4.673   4.844  17.016  0.00  0.00    +0.000 N 
ATOM     17  C   UNL     1       5.547   3.696  16.962  0.00  0.00    +0.000 C 
ENDROOT
TORSDOF 0
ENDMDL
MODEL 9
REMARK VINA RESULT:      -5.6      3.400      5.251
REMARK  Name = 
REMARK  2 active torsions:
REMARK  status: ('A' for Active; 'I' for Inactive)
REMARK    1  A    between atoms: C_1  and  N_2
REMARK    2  A    between atoms: N_16  and  C_17
REMARK                            x       y       z     vdW  Elec       q    Type
REMARK                         _______ _______ _______ _____ _____    ______ ____
ROOT
ATOM      1  C   UNL     1       3.947   1.237  18.117  0.00  0.00    +0.000 C 
ATOM      2  N   UNL     1       3.563   2.611  17.941  0.00  0.00    +0.000 N 
ATOM      3  C   UNL     1       2.295   3.024  18.334  0.00  0.00    +0.000 C 
ATOM      4  O   UNL     1       1.346   2.240  18.436  0.00  0.00    +0.000 OA
ATOM      5  N   UNL     1       2.188   4.376  18.684  0.00  0.00    +0.000 N 
ATOM      6  C   UNL     1       1.080   4.757  19.533  0.00  0.00    +0.000 C 
ATOM      7  C   UNL     1       1.650   5.513  20.707  0.00  0.00    +0.000 C 
ATOM      8  C   UNL     1       2.405   6.728  20.177  0.00  0.00    +0.000 C 
ATOM      9  N   UNL     1       3.249   6.466  18.998  0.00  0.00    +0.000 NA
ATOM     10  C   UNL     1       3.141   5.333  18.395  0.00  0.00    +0.000 C 
ATOM     11  C   UNL     1       4.122   4.881  17.457  0.00  0.00    +0.000 A 
ATOM     12  C   UNL     1       4.390   3.539  17.351  0.00  0.00    +0.000 A 
ATOM     13  N   UNL     1       5.479   3.277  16.604  0.00  0.00    +0.000 NA
ATOM     14  C   UNL     1       5.797   4.453  16.100  0.00  0.00    +0.000 A 
ATOM     15 CL   UNL     1       7.027   4.712  14.961  0.00  0.00    +0.000 Cl
ATOM     16  N   UNL     1       4.968   5.463  16.540  0.00  0.00    +0.000 N 
ATOM     17  C   UNL     1       4.812   6.772  15.952  0.00  0.00    +0.000 C 
ENDROOT
TORSDOF 0
ENDMDL
