MODEL 1
REMARK VINA RESULT:      -8.3      0.000      0.000
REMARK  Name = 
REMARK  9 active torsions:
REMARK  status: ('A' for Active; 'I' for Inactive)
REMARK    1  A    between atoms: C_1  and  N_2
REMARK    2  A    between atoms: C_7  and  C_8
REMARK    3  A    between atoms: C_16  and  C_17
REMARK    4  A    between atoms: C_18  and  C_19
REMARK    5  A    between atoms: C_19  and  C_20
REMARK    6  A    between atoms: C_20  and  C_21
REMARK    7  A    between atoms: C_21  and  C_22
REMARK    8  A    between atoms: C_22  and  C_23
REMARK    9  A    between atoms: N_25  and  O_26
REMARK                            x       y       z     vdW  Elec       q    Type
REMARK                         _______ _______ _______ _____ _____    ______ ____
ROOT
ATOM      1  C   UNL     1       3.213   2.007  21.105  0.00  0.00    +0.000 C 
ATOM      2  N   UNL     1       3.213   2.752  19.848  0.00  0.00    +0.000 N 
ATOM      3  C   UNL     1       3.612   2.070  18.698  0.00  0.00    +0.000 C 
ATOM      4  O   UNL     1       3.894   0.867  18.705  0.00  0.00    +0.000 OA
ATOM      5  C   UNL     1       3.596   2.841  17.389  0.00  0.00    +0.000 C 
ATOM      6  N   UNL     1       4.664   3.828  17.385  0.00  0.00    +0.000 NA
ATOM      7  C   UNL     1       4.584   4.851  18.168  0.00  0.00    +0.000 C 
ATOM      8  C   UNL     1       3.446   5.133  19.092  0.00  0.00    +0.000 A 
ATOM      9  C   UNL     1       3.027   6.481  19.203  0.00  0.00    +0.000 A 
ATOM     10  C   UNL     1       2.012   6.850  20.081  0.00  0.00    +0.000 A 
ATOM     11  C   UNL     1       1.400   5.871  20.850  0.00  0.00    +0.000 A 
ATOM     12  C   UNL     1       1.818   4.538  20.758  0.00  0.00    +0.000 A 
ATOM     13  C   UNL     1       2.844   4.135  19.882  0.00  0.00    +0.000 A 
ENDROOT
BRANCH   7  14
ATOM     14  C   UNL     1       5.728   5.812  18.123  0.00  0.00    +0.000 A 
ATOM     15  C   UNL     1       5.706   6.852  17.187  0.00  0.00    +0.000 A 
ATOM     16  C   UNL     1       6.810   7.689  17.059  0.00  0.00    +0.000 A 
ATOM     17  C   UNL     1       7.909   7.525  17.903  0.00  0.00    +0.000 A 
ATOM     18  C   UNL     1       7.906   6.529  18.880  0.00  0.00    +0.000 A 
ATOM     19  C   UNL     1       6.833   5.649  18.967  0.00  0.00    +0.000 A 
ENDBRANCH   7  14
BRANCH  10  20
ATOM     20  C   UNL     1       1.595   8.215  20.186  0.00  0.00    +0.000 C 
ATOM     21  C   UNL     1       1.212   9.459  20.281  0.00  0.00    +0.000 C 
BRANCH  21  22
ATOM     22  C   UNL     1       0.766  10.908  20.391  0.00  0.00    +0.000 C 
BRANCH  22  23
ATOM     23  C   UNL     1       0.813  11.571  19.018  0.00  0.00    +0.000 C 
BRANCH  23  24
ATOM     24  C   UNL     1      -0.596  11.748  18.463  0.00  0.00    +0.000 C 
BRANCH  24  25
ATOM     25  C   UNL     1      -1.260  10.412  18.145  0.00  0.00    +0.000 C 
BRANCH  25  26
ATOM     26  C   UNL     1      -2.480  10.612  17.265  0.00  0.00    +0.000 C 
ATOM     27  O   UNL     1      -3.550  10.047  17.426  0.00  0.00    +0.000 OA
ATOM     28  N   UNL     1      -2.279  11.509  16.247  0.00  0.00    +0.000 N 
ATOM     29  H   UNL     1      -1.419  12.001  16.045  0.00  0.00    +0.000 HD
BRANCH  28  30
ATOM     30  O   UNL     1      -3.381  11.741  15.394  0.00  0.00    +0.000 OA
ATOM     31  H   UNL     1      -3.994  11.012  15.639  0.00  0.00    +0.000 HD
ENDBRANCH  28  30
ENDBRANCH  25  26
ENDBRANCH  24  25
ENDBRANCH  23  24
ENDBRANCH  22  23
ENDBRANCH  21  22
ENDBRANCH  10  20
TORSDOF 8
ENDMDL
MODEL 2
REMARK VINA RESULT:      -8.2      3.303      5.310
REMARK  Name = 
REMARK  9 active torsions:
REMARK  status: ('A' for Active; 'I' for Inactive)
REMARK    1  A    between atoms: C_1  and  N_2
REMARK    2  A    between atoms: C_7  and  C_8
REMARK    3  A    between atoms: C_16  and  C_17
REMARK    4  A    between atoms: C_18  and  C_19
REMARK    5  A    between atoms: C_19  and  C_20
REMARK    6  A    between atoms: C_20  and  C_21
REMARK    7  A    between atoms: C_21  and  C_22
REMARK    8  A    between atoms: C_22  and  C_23
REMARK    9  A    between atoms: N_25  and  O_26
REMARK                            x       y       z     vdW  Elec       q    Type
REMARK                         _______ _______ _______ _____ _____    ______ ____
ROOT
ATOM      1  C   UNL     1       6.669   5.071  15.496  0.00  0.00    +0.000 C 
ATOM      2  N   UNL     1       6.369   5.344  16.900  0.00  0.00    +0.000 N 
ATOM      3  C   UNL     1       7.204   4.766  17.858  0.00  0.00    +0.000 C 
ATOM      4  O   UNL     1       8.200   4.102  17.555  0.00  0.00    +0.000 OA
ATOM      5  C   UNL     1       6.901   5.065  19.316  0.00  0.00    +0.000 C 
ATOM      6  N   UNL     1       5.680   4.384  19.716  0.00  0.00    +0.000 NA
ATOM      7  C   UNL     1       4.548   4.781  19.240  0.00  0.00    +0.000 C 
ATOM      8  C   UNL     1       4.372   5.928  18.301  0.00  0.00    +0.000 A 
ATOM      9  C   UNL     1       3.251   6.767  18.514  0.00  0.00    +0.000 A 
ATOM     10  C   UNL     1       2.971   7.828  17.657  0.00  0.00    +0.000 A 
ATOM     11  C   UNL     1       3.816   8.065  16.584  0.00  0.00    +0.000 A 
ATOM     12  C   UNL     1       4.918   7.232  16.356  0.00  0.00    +0.000 A 
ATOM     13  C   UNL     1       5.225   6.149  17.203  0.00  0.00    +0.000 A 
ENDROOT
BRANCH   7  14
ATOM     14  C   UNL     1       3.339   4.021  19.680  0.00  0.00    +0.000 A 
ATOM     15  C   UNL     1       2.930   2.905  18.941  0.00  0.00    +0.000 A 
ATOM     16  C   UNL     1       1.747   2.253  19.273  0.00  0.00    +0.000 A 
ATOM     17  C   UNL     1       1.005   2.677  20.375  0.00  0.00    +0.000 A 
ATOM     18  C   UNL     1       1.444   3.749  21.151  0.00  0.00    +0.000 A 
ATOM     19  C   UNL     1       2.590   4.445  20.784  0.00  0.00    +0.000 A 
ENDBRANCH   7  14
BRANCH  10  20
ATOM     20  C   UNL     1       1.836   8.671  17.882  0.00  0.00    +0.000 C 
ATOM     21  C   UNL     1       0.803   9.441  18.084  0.00  0.00    +0.000 C 
BRANCH  21  22
ATOM     22  C   UNL     1      -0.401  10.338  18.321  0.00  0.00    +0.000 C 
BRANCH  22  23
ATOM     23  C   UNL     1      -0.971  10.087  19.713  0.00  0.00    +0.000 C 
BRANCH  23  24
ATOM     24  C   UNL     1      -0.136   9.047  20.452  0.00  0.00    +0.000 C 
BRANCH  24  25
ATOM     25  C   UNL     1      -0.574   8.886  21.905  0.00  0.00    +0.000 C 
BRANCH  25  26
ATOM     26  C   UNL     1       0.556   9.247  22.850  0.00  0.00    +0.000 C 
ATOM     27  O   UNL     1       0.401   9.636  23.997  0.00  0.00    +0.000 OA
ATOM     28  N   UNL     1       1.802   9.094  22.299  0.00  0.00    +0.000 N 
ATOM     29  H   UNL     1       2.005   8.793  21.354  0.00  0.00    +0.000 HD
BRANCH  28  30
ATOM     30  O   UNL     1       2.897   9.412  23.133  0.00  0.00    +0.000 OA
ATOM     31  H   UNL     1       3.579   8.768  22.838  0.00  0.00    +0.000 HD
ENDBRANCH  28  30
ENDBRANCH  25  26
ENDBRANCH  24  25
ENDBRANCH  23  24
ENDBRANCH  22  23
ENDBRANCH  21  22
ENDBRANCH  10  20
TORSDOF 8
ENDMDL
MODEL 3
REMARK VINA RESULT:      -8.1      2.171      4.495
REMARK  Name = 
REMARK  9 active torsions:
REMARK  status: ('A' for Active; 'I' for Inactive)
REMARK    1  A    between atoms: C_1  and  N_2
REMARK    2  A    between atoms: C_7  and  C_8
REMARK    3  A    between atoms: C_16  and  C_17
REMARK    4  A    between atoms: C_18  and  C_19
REMARK    5  A    between atoms: C_19  and  C_20
REMARK    6  A    between atoms: C_20  and  C_21
REMARK    7  A    between atoms: C_21  and  C_22
REMARK    8  A    between atoms: C_22  and  C_23
REMARK    9  A    between atoms: N_25  and  O_26
REMARK                            x       y       z     vdW  Elec       q    Type
REMARK                         _______ _______ _______ _____ _____    ______ ____
ROOT
ATOM      1  C   UNL     1       6.683   5.127  15.542  0.00  0.00    +0.000 C 
ATOM      2  N   UNL     1       6.358   5.379  16.944  0.00  0.00    +0.000 N 
ATOM      3  C   UNL     1       7.187   4.803  17.908  0.00  0.00    +0.000 C 
ATOM      4  O   UNL     1       8.198   4.157  17.612  0.00  0.00    +0.000 OA
ATOM      5  C   UNL     1       6.859   5.079  19.365  0.00  0.00    +0.000 C 
ATOM      6  N   UNL     1       5.642   4.376  19.739  0.00  0.00    +0.000 NA
ATOM      7  C   UNL     1       4.512   4.760  19.250  0.00  0.00    +0.000 C 
ATOM      8  C   UNL     1       4.332   5.915  18.322  0.00  0.00    +0.000 A 
ATOM      9  C   UNL     1       3.195   6.735  18.528  0.00  0.00    +0.000 A 
ATOM     10  C   UNL     1       2.911   7.801  17.679  0.00  0.00    +0.000 A 
ATOM     11  C   UNL     1       3.769   8.064  16.621  0.00  0.00    +0.000 A 
ATOM     12  C   UNL     1       4.887   7.250  16.400  0.00  0.00    +0.000 A 
ATOM     13  C   UNL     1       5.197   6.162  17.239  0.00  0.00    +0.000 A 
ENDROOT
BRANCH   7  14
ATOM     14  C   UNL     1       3.308   3.977  19.663  0.00  0.00    +0.000 A 
ATOM     15  C   UNL     1       2.773   4.175  20.941  0.00  0.00    +0.000 A 
ATOM     16  C   UNL     1       1.722   3.377  21.381  0.00  0.00    +0.000 A 
ATOM     17  C   UNL     1       1.167   2.425  20.526  0.00  0.00    +0.000 A 
ATOM     18  C   UNL     1       1.656   2.270  19.229  0.00  0.00    +0.000 A 
ATOM     19  C   UNL     1       2.750   3.018  18.809  0.00  0.00    +0.000 A 
ENDBRANCH   7  14
BRANCH  10  20
ATOM     20  C   UNL     1       1.761   8.624  17.896  0.00  0.00    +0.000 C 
ATOM     21  C   UNL     1       0.711   9.373  18.094  0.00  0.00    +0.000 C 
BRANCH  21  22
ATOM     22  C   UNL     1      -0.513  10.245  18.323  0.00  0.00    +0.000 C 
BRANCH  22  23
ATOM     23  C   UNL     1      -1.611   9.871  17.332  0.00  0.00    +0.000 C 
BRANCH  23  24
ATOM     24  C   UNL     1      -2.448  11.095  16.977  0.00  0.00    +0.000 C 
BRANCH  24  25
ATOM     25  C   UNL     1      -3.270  11.592  18.162  0.00  0.00    +0.000 C 
BRANCH  25  26
ATOM     26  C   UNL     1      -4.755  11.433  17.891  0.00  0.00    +0.000 C 
ATOM     27  O   UNL     1      -5.442  10.519  18.318  0.00  0.00    +0.000 OA
ATOM     28  N   UNL     1      -5.278  12.429  17.107  0.00  0.00    +0.000 N 
ATOM     29  H   UNL     1      -4.768  13.205  16.707  0.00  0.00    +0.000 HD
BRANCH  28  30
ATOM     30  O   UNL     1      -6.659  12.339  16.823  0.00  0.00    +0.000 OA
ATOM     31  H   UNL     1      -6.887  11.447  17.169  0.00  0.00    +0.000 HD
ENDBRANCH  28  30
ENDBRANCH  25  26
ENDBRANCH  24  25
ENDBRANCH  23  24
ENDBRANCH  22  23
ENDBRANCH  21  22
ENDBRANCH  10  20
TORSDOF 8
ENDMDL
MODEL 4
REMARK VINA RESULT:      -8.0      1.895      4.238
REMARK  Name = 
REMARK  9 active torsions:
REMARK  status: ('A' for Active; 'I' for Inactive)
REMARK    1  A    between atoms: C_1  and  N_2
REMARK    2  A    between atoms: C_7  and  C_8
REMARK    3  A    between atoms: C_16  and  C_17
REMARK    4  A    between atoms: C_18  and  C_19
REMARK    5  A    between atoms: C_19  and  C_20
REMARK    6  A    between atoms: C_20  and  C_21
REMARK    7  A    between atoms: C_21  and  C_22
REMARK    8  A    between atoms: C_22  and  C_23
REMARK    9  A    between atoms: N_25  and  O_26
REMARK                            x       y       z     vdW  Elec       q    Type
REMARK                         _______ _______ _______ _____ _____    ______ ____
ROOT
ATOM      1  C   UNL     1       6.506   5.394  15.424  0.00  0.00    +0.000 C 
ATOM      2  N   UNL     1       6.218   5.438  16.856  0.00  0.00    +0.000 N 
ATOM      3  C   UNL     1       7.049   4.699  17.700  0.00  0.00    +0.000 C 
ATOM      4  O   UNL     1       8.034   4.080  17.284  0.00  0.00    +0.000 OA
ATOM      5  C   UNL     1       6.759   4.759  19.190  0.00  0.00    +0.000 C 
ATOM      6  N   UNL     1       5.530   4.038  19.482  0.00  0.00    +0.000 NA
ATOM      7  C   UNL     1       4.402   4.522  19.085  0.00  0.00    +0.000 C 
ATOM      8  C   UNL     1       4.237   5.810  18.349  0.00  0.00    +0.000 A 
ATOM      9  C   UNL     1       3.130   6.618  18.706  0.00  0.00    +0.000 A 
ATOM     10  C   UNL     1       2.861   7.809  18.036  0.00  0.00    +0.000 A 
ATOM     11  C   UNL     1       3.704   8.208  17.010  0.00  0.00    +0.000 A 
ATOM     12  C   UNL     1       4.792   7.408  16.640  0.00  0.00    +0.000 A 
ATOM     13  C   UNL     1       5.087   6.197  17.295  0.00  0.00    +0.000 A 
ENDROOT
BRANCH   7  14
ATOM     14  C   UNL     1       3.184   3.717  19.404  0.00  0.00    +0.000 A 
ATOM     15  C   UNL     1       2.555   3.000  18.380  0.00  0.00    +0.000 A 
ATOM     16  C   UNL     1       1.361   2.334  18.636  0.00  0.00    +0.000 A 
ATOM     17  C   UNL     1       0.826   2.335  19.925  0.00  0.00    +0.000 A 
ATOM     18  C   UNL     1       1.485   2.997  20.961  0.00  0.00    +0.000 A 
ATOM     19  C   UNL     1       2.643   3.718  20.696  0.00  0.00    +0.000 A 
ENDBRANCH   7  14
BRANCH  10  20
ATOM     20  C   UNL     1       1.740   8.619  18.405  0.00  0.00    +0.000 C 
ATOM     21  C   UNL     1       0.719   9.359  18.739  0.00  0.00    +0.000 C 
BRANCH  21  22
ATOM     22  C   UNL     1      -0.471  10.221  19.128  0.00  0.00    +0.000 C 
BRANCH  22  23
ATOM     23  C   UNL     1      -0.211  11.673  18.737  0.00  0.00    +0.000 C 
BRANCH  23  24
ATOM     24  C   UNL     1      -1.393  12.233  17.953  0.00  0.00    +0.000 C 
BRANCH  24  25
ATOM     25  C   UNL     1      -2.644  11.375  18.110  0.00  0.00    +0.000 C 
BRANCH  25  26
ATOM     26  C   UNL     1      -3.351  11.206  16.778  0.00  0.00    +0.000 C 
ATOM     27  O   UNL     1      -4.542  11.404  16.597  0.00  0.00    +0.000 OA
ATOM     28  N   UNL     1      -2.521  10.805  15.764  0.00  0.00    +0.000 N 
ATOM     29  H   UNL     1      -1.532  10.608  15.844  0.00  0.00    +0.000 HD
BRANCH  28  30
ATOM     30  O   UNL     1      -3.121  10.633  14.496  0.00  0.00    +0.000 OA
ATOM     31  H   UNL     1      -3.277   9.663  14.468  0.00  0.00    +0.000 HD
ENDBRANCH  28  30
ENDBRANCH  25  26
ENDBRANCH  24  25
ENDBRANCH  23  24
ENDBRANCH  22  23
ENDBRANCH  21  22
ENDBRANCH  10  20
TORSDOF 8
ENDMDL
MODEL 5
REMARK VINA RESULT:      -8.0      0.815      1.262
REMARK  Name = 
REMARK  9 active torsions:
REMARK  status: ('A' for Active; 'I' for Inactive)
REMARK    1  A    between atoms: C_1  and  N_2
REMARK    2  A    between atoms: C_7  and  C_8
REMARK    3  A    between atoms: C_16  and  C_17
REMARK    4  A    between atoms: C_18  and  C_19
REMARK    5  A    between atoms: C_19  and  C_20
REMARK    6  A    between atoms: C_20  and  C_21
REMARK    7  A    between atoms: C_21  and  C_22
REMARK    8  A    between atoms: C_22  and  C_23
REMARK    9  A    between atoms: N_25  and  O_26
REMARK                            x       y       z     vdW  Elec       q    Type
REMARK                         _______ _______ _______ _____ _____    ______ ____
ROOT
ATOM      1  C   UNL     1       3.082   2.148  21.231  0.00  0.00    +0.000 C 
ATOM      2  N   UNL     1       3.123   2.811  19.930  0.00  0.00    +0.000 N 
ATOM      3  C   UNL     1       3.513   2.043  18.831  0.00  0.00    +0.000 C 
ATOM      4  O   UNL     1       3.754   0.834  18.919  0.00  0.00    +0.000 OA
ATOM      5  C   UNL     1       3.540   2.728  17.476  0.00  0.00    +0.000 C 
ATOM      6  N   UNL     1       4.640   3.677  17.424  0.00  0.00    +0.000 NA
ATOM      7  C   UNL     1       4.586   4.750  18.139  0.00  0.00    +0.000 C 
ATOM      8  C   UNL     1       3.447   5.128  19.027  0.00  0.00    +0.000 A 
ATOM      9  C   UNL     1       3.073   6.494  19.045  0.00  0.00    +0.000 A 
ATOM     10  C   UNL     1       2.061   6.953  19.884  0.00  0.00    +0.000 A 
ATOM     11  C   UNL     1       1.405   6.046  20.704  0.00  0.00    +0.000 A 
ATOM     12  C   UNL     1       1.778   4.697  20.703  0.00  0.00    +0.000 A 
ATOM     13  C   UNL     1       2.801   4.204  19.870  0.00  0.00    +0.000 A 
ENDROOT
BRANCH   7  14
ATOM     14  C   UNL     1       5.763   5.668  18.050  0.00  0.00    +0.000 A 
ATOM     15  C   UNL     1       6.821   5.506  18.951  0.00  0.00    +0.000 A 
ATOM     16  C   UNL     1       7.872   6.418  18.952  0.00  0.00    +0.000 A 
ATOM     17  C   UNL     1       7.894   7.455  18.018  0.00  0.00    +0.000 A 
ATOM     18  C   UNL     1       6.872   7.579  17.078  0.00  0.00    +0.000 A 
ATOM     19  C   UNL     1       5.788   6.711  17.116  0.00  0.00    +0.000 A 
ENDBRANCH   7  14
BRANCH  10  20
ATOM     20  C   UNL     1       1.689   8.335  19.895  0.00  0.00    +0.000 C 
ATOM     21  C   UNL     1       1.348   9.594  19.906  0.00  0.00    +0.000 C 
BRANCH  21  22
ATOM     22  C   UNL     1       0.950  11.061  19.919  0.00  0.00    +0.000 C 
BRANCH  22  23
ATOM     23  C   UNL     1      -0.469  11.210  20.459  0.00  0.00    +0.000 C 
BRANCH  23  24
ATOM     24  C   UNL     1      -1.185  12.363  19.764  0.00  0.00    +0.000 C 
BRANCH  24  25
ATOM     25  C   UNL     1      -2.684  12.110  19.629  0.00  0.00    +0.000 C 
BRANCH  25  26
ATOM     26  C   UNL     1      -3.051  11.806  18.188  0.00  0.00    +0.000 C 
ATOM     27  O   UNL     1      -4.174  11.516  17.806  0.00  0.00    +0.000 OA
ATOM     28  N   UNL     1      -1.989  11.887  17.324  0.00  0.00    +0.000 N 
ATOM     29  H   UNL     1      -1.033  12.105  17.571  0.00  0.00    +0.000 HD
BRANCH  28  30
ATOM     30  O   UNL     1      -2.269  11.617  15.965  0.00  0.00    +0.000 OA
ATOM     31  H   UNL     1      -3.216  11.871  15.892  0.00  0.00    +0.000 HD
ENDBRANCH  28  30
ENDBRANCH  25  26
ENDBRANCH  24  25
ENDBRANCH  23  24
ENDBRANCH  22  23
ENDBRANCH  21  22
ENDBRANCH  10  20
TORSDOF 8
ENDMDL
MODEL 6
REMARK VINA RESULT:      -8.0      2.979      5.100
REMARK  Name = 
REMARK  9 active torsions:
REMARK  status: ('A' for Active; 'I' for Inactive)
REMARK    1  A    between atoms: C_1  and  N_2
REMARK    2  A    between atoms: C_7  and  C_8
REMARK    3  A    between atoms: C_16  and  C_17
REMARK    4  A    between atoms: C_18  and  C_19
REMARK    5  A    between atoms: C_19  and  C_20
REMARK    6  A    between atoms: C_20  and  C_21
REMARK    7  A    between atoms: C_21  and  C_22
REMARK    8  A    between atoms: C_22  and  C_23
REMARK    9  A    between atoms: N_25  and  O_26
REMARK                            x       y       z     vdW  Elec       q    Type
REMARK                         _______ _______ _______ _____ _____    ______ ____
ROOT
ATOM      1  C   UNL     1       6.735   5.094  15.547  0.00  0.00    +0.000 C 
ATOM      2  N   UNL     1       6.411   5.374  16.944  0.00  0.00    +0.000 N 
ATOM      3  C   UNL     1       7.255   4.838  17.918  0.00  0.00    +0.000 C 
ATOM      4  O   UNL     1       8.278   4.206  17.634  0.00  0.00    +0.000 OA
ATOM      5  C   UNL     1       6.926   5.143  19.370  0.00  0.00    +0.000 C 
ATOM      6  N   UNL     1       5.725   4.424  19.765  0.00  0.00    +0.000 NA
ATOM      7  C   UNL     1       4.586   4.774  19.272  0.00  0.00    +0.000 C 
ATOM      8  C   UNL     1       4.379   5.902  18.317  0.00  0.00    +0.000 A 
ATOM      9  C   UNL     1       3.227   6.703  18.508  0.00  0.00    +0.000 A 
ATOM     10  C   UNL     1       2.918   7.743  17.635  0.00  0.00    +0.000 A 
ATOM     11  C   UNL     1       3.766   7.997  16.568  0.00  0.00    +0.000 A 
ATOM     12  C   UNL     1       4.900   7.201  16.362  0.00  0.00    +0.000 A 
ATOM     13  C   UNL     1       5.235   6.140  17.225  0.00  0.00    +0.000 A 
ENDROOT
BRANCH   7  14
ATOM     14  C   UNL     1       3.399   3.976  19.709  0.00  0.00    +0.000 A 
ATOM     15  C   UNL     1       2.807   4.260  20.945  0.00  0.00    +0.000 A 
ATOM     16  C   UNL     1       1.772   3.458  21.415  0.00  0.00    +0.000 A 
ATOM     17  C   UNL     1       1.291   2.411  20.627  0.00  0.00    +0.000 A 
ATOM     18  C   UNL     1       1.838   2.167  19.368  0.00  0.00    +0.000 A 
ATOM     19  C   UNL     1       2.916   2.924  18.923  0.00  0.00    +0.000 A 
ENDBRANCH   7  14
BRANCH  10  20
ATOM     20  C   UNL     1       1.752   8.548  17.837  0.00  0.00    +0.000 C 
ATOM     21  C   UNL     1       0.688   9.279  18.021  0.00  0.00    +0.000 C 
BRANCH  21  22
ATOM     22  C   UNL     1      -0.552  10.132  18.235  0.00  0.00    +0.000 C 
BRANCH  22  23
ATOM     23  C   UNL     1      -0.150  11.580  18.495  0.00  0.00    +0.000 C 
BRANCH  23  24
ATOM     24  C   UNL     1       0.388  11.737  19.913  0.00  0.00    +0.000 C 
BRANCH  24  25
ATOM     25  C   UNL     1      -0.615  11.265  20.962  0.00  0.00    +0.000 C 
BRANCH  25  26
ATOM     26  C   UNL     1       0.035  10.293  21.929  0.00  0.00    +0.000 C 
ATOM     27  O   UNL     1       0.981   9.571  21.653  0.00  0.00    +0.000 OA
ATOM     28  N   UNL     1      -0.539  10.292  23.174  0.00  0.00    +0.000 N 
ATOM     29  H   UNL     1      -1.331  10.849  23.467  0.00  0.00    +0.000 HD
BRANCH  28  30
ATOM     30  O   UNL     1       0.025   9.408  24.121  0.00  0.00    +0.000 OA
ATOM     31  H   UNL     1      -0.732   8.820  24.336  0.00  0.00    +0.000 HD
ENDBRANCH  28  30
ENDBRANCH  25  26
ENDBRANCH  24  25
ENDBRANCH  23  24
ENDBRANCH  22  23
ENDBRANCH  21  22
ENDBRANCH  10  20
TORSDOF 8
ENDMDL
MODEL 7
REMARK VINA RESULT:      -7.9      2.000      4.314
REMARK  Name = 
REMARK  9 active torsions:
REMARK  status: ('A' for Active; 'I' for Inactive)
REMARK    1  A    between atoms: C_1  and  N_2
REMARK    2  A    between atoms: C_7  and  C_8
REMARK    3  A    between atoms: C_16  and  C_17
REMARK    4  A    between atoms: C_18  and  C_19
REMARK    5  A    between atoms: C_19  and  C_20
REMARK    6  A    between atoms: C_20  and  C_21
REMARK    7  A    between atoms: C_21  and  C_22
REMARK    8  A    between atoms: C_22  and  C_23
REMARK    9  A    between atoms: N_25  and  O_26
REMARK                            x       y       z     vdW  Elec       q    Type
REMARK                         _______ _______ _______ _____ _____    ______ ____
ROOT
ATOM      1  C   UNL     1       5.943   5.448  15.128  0.00  0.00    +0.000 C 
ATOM      2  N   UNL     1       5.863   5.538  16.584  0.00  0.00    +0.000 N 
ATOM      3  C   UNL     1       6.802   4.818  17.324  0.00  0.00    +0.000 C 
ATOM      4  O   UNL     1       7.714   4.176  16.792  0.00  0.00    +0.000 OA
ATOM      5  C   UNL     1       6.728   4.926  18.837  0.00  0.00    +0.000 C 
ATOM      6  N   UNL     1       5.550   4.227  19.325  0.00  0.00    +0.000 NA
ATOM      7  C   UNL     1       4.379   4.710  19.078  0.00  0.00    +0.000 C 
ATOM      8  C   UNL     1       4.118   5.977  18.332  0.00  0.00    +0.000 A 
ATOM      9  C   UNL     1       3.078   6.806  18.817  0.00  0.00    +0.000 A 
ATOM     10  C   UNL     1       2.722   7.978  18.156  0.00  0.00    +0.000 A 
ATOM     11  C   UNL     1       3.412   8.337  17.007  0.00  0.00    +0.000 A 
ATOM     12  C   UNL     1       4.432   7.516  16.511  0.00  0.00    +0.000 A 
ATOM     13  C   UNL     1       4.811   6.322  17.156  0.00  0.00    +0.000 A 
ENDROOT
BRANCH   7  14
ATOM     14  C   UNL     1       3.215   3.928  19.593  0.00  0.00    +0.000 A 
ATOM     15  C   UNL     1       2.426   3.208  18.689  0.00  0.00    +0.000 A 
ATOM     16  C   UNL     1       1.276   2.563  19.137  0.00  0.00    +0.000 A 
ATOM     17  C   UNL     1       0.948   2.589  20.493  0.00  0.00    +0.000 A 
ATOM     18  C   UNL     1       1.769   3.252  21.405  0.00  0.00    +0.000 A 
ATOM     19  C   UNL     1       2.881   3.952  20.953  0.00  0.00    +0.000 A 
ENDBRANCH   7  14
BRANCH  10  20
ATOM     20  C   UNL     1       1.670   8.811  18.654  0.00  0.00    +0.000 C 
ATOM     21  C   UNL     1       0.710   9.570  19.107  0.00  0.00    +0.000 C 
BRANCH  21  22
ATOM     22  C   UNL     1      -0.408  10.454  19.633  0.00  0.00    +0.000 C 
BRANCH  22  23
ATOM     23  C   UNL     1      -1.690  10.195  18.848  0.00  0.00    +0.000 C 
BRANCH  23  24
ATOM     24  C   UNL     1      -1.407  10.194  17.350  0.00  0.00    +0.000 C 
BRANCH  24  25
ATOM     25  C   UNL     1      -2.505   9.491  16.558  0.00  0.00    +0.000 C 
BRANCH  25  26
ATOM     26  C   UNL     1      -2.929  10.327  15.365  0.00  0.00    +0.000 C 
ATOM     27  O   UNL     1      -3.173  11.523  15.410  0.00  0.00    +0.000 OA
ATOM     28  N   UNL     1      -3.015   9.612  14.198  0.00  0.00    +0.000 N 
ATOM     29  H   UNL     1      -2.843   8.621  14.091  0.00  0.00    +0.000 HD
BRANCH  28  30
ATOM     30  O   UNL     1      -3.402  10.338  13.049  0.00  0.00    +0.000 OA
ATOM     31  H   UNL     1      -4.202   9.849  12.752  0.00  0.00    +0.000 HD
ENDBRANCH  28  30
ENDBRANCH  25  26
ENDBRANCH  24  25
ENDBRANCH  23  24
ENDBRANCH  22  23
ENDBRANCH  21  22
ENDBRANCH  10  20
TORSDOF 8
ENDMDL
MODEL 8
REMARK VINA RESULT:      -7.9      1.847      4.164
REMARK  Name = 
REMARK  9 active torsions:
REMARK  status: ('A' for Active; 'I' for Inactive)
REMARK    1  A    between atoms: C_1  and  N_2
REMARK    2  A    between atoms: C_7  and  C_8
REMARK    3  A    between atoms: C_16  and  C_17
REMARK    4  A    between atoms: C_18  and  C_19
REMARK    5  A    between atoms: C_19  and  C_20
REMARK    6  A    between atoms: C_20  and  C_21
REMARK    7  A    between atoms: C_21  and  C_22
REMARK    8  A    between atoms: C_22  and  C_23
REMARK    9  A    between atoms: N_25  and  O_26
REMARK                            x       y       z     vdW  Elec       q    Type
REMARK                         _______ _______ _______ _____ _____    ______ ____
ROOT
ATOM      1  C   UNL     1       5.262   5.970  15.313  0.00  0.00    +0.000 C 
ATOM      2  N   UNL     1       5.312   5.897  16.771  0.00  0.00    +0.000 N 
ATOM      3  C   UNL     1       6.322   5.120  17.341  0.00  0.00    +0.000 C 
ATOM      4  O   UNL     1       7.189   4.560  16.662  0.00  0.00    +0.000 OA
ATOM      5  C   UNL     1       6.383   5.059  18.857  0.00  0.00    +0.000 C 
ATOM      6  N   UNL     1       5.261   4.286  19.366  0.00  0.00    +0.000 NA
ATOM      7  C   UNL     1       4.068   4.769  19.279  0.00  0.00    +0.000 C 
ATOM      8  C   UNL     1       3.727   6.104  18.704  0.00  0.00    +0.000 A 
ATOM      9  C   UNL     1       2.725   6.853  19.369  0.00  0.00    +0.000 A 
ATOM     10  C   UNL     1       2.299   8.084  18.876  0.00  0.00    +0.000 A 
ATOM     11  C   UNL     1       2.879   8.581  17.718  0.00  0.00    +0.000 A 
ATOM     12  C   UNL     1       3.859   7.841  17.046  0.00  0.00    +0.000 A 
ATOM     13  C   UNL     1       4.307   6.592  17.518  0.00  0.00    +0.000 A 
ENDROOT
BRANCH   7  14
ATOM     14  C   UNL     1       2.963   3.910  19.804  0.00  0.00    +0.000 A 
ATOM     15  C   UNL     1       2.038   3.367  18.906  0.00  0.00    +0.000 A 
ATOM     16  C   UNL     1       0.943   2.657  19.388  0.00  0.00    +0.000 A 
ATOM     17  C   UNL     1       0.804   2.439  20.759  0.00  0.00    +0.000 A 
ATOM     18  C   UNL     1       1.760   2.925  21.651  0.00  0.00    +0.000 A 
ATOM     19  C   UNL     1       2.819   3.692  21.180  0.00  0.00    +0.000 A 
ENDBRANCH   7  14
BRANCH  10  20
ATOM     20  C   UNL     1       1.287   8.834  19.555  0.00  0.00    +0.000 C 
ATOM     21  C   UNL     1       0.364   9.519  20.172  0.00  0.00    +0.000 C 
BRANCH  21  22
ATOM     22  C   UNL     1      -0.711  10.317  20.891  0.00  0.00    +0.000 C 
BRANCH  22  23
ATOM     23  C   UNL     1      -0.951  11.638  20.165  0.00  0.00    +0.000 C 
BRANCH  23  24
ATOM     24  C   UNL     1      -1.116  11.401  18.668  0.00  0.00    +0.000 C 
BRANCH  24  25
ATOM     25  C   UNL     1      -2.548  11.647  18.202  0.00  0.00    +0.000 C 
BRANCH  25  26
ATOM     26  C   UNL     1      -2.862  10.825  16.966  0.00  0.00    +0.000 C 
ATOM     27  O   UNL     1      -2.970   9.609  16.953  0.00  0.00    +0.000 OA
ATOM     28  N   UNL     1      -3.021  11.579  15.832  0.00  0.00    +0.000 N 
ATOM     29  H   UNL     1      -2.931  12.584  15.766  0.00  0.00    +0.000 HD
BRANCH  28  30
ATOM     30  O   UNL     1      -3.318  10.869  14.647  0.00  0.00    +0.000 OA
ATOM     31  H   UNL     1      -2.519  11.033  14.098  0.00  0.00    +0.000 HD
ENDBRANCH  28  30
ENDBRANCH  25  26
ENDBRANCH  24  25
ENDBRANCH  23  24
ENDBRANCH  22  23
ENDBRANCH  21  22
ENDBRANCH  10  20
TORSDOF 8
ENDMDL
MODEL 9
REMARK VINA RESULT:      -7.8      2.040      4.288
REMARK  Name = 
REMARK  9 active torsions:
REMARK  status: ('A' for Active; 'I' for Inactive)
REMARK    1  A    between atoms: C_1  and  N_2
REMARK    2  A    between atoms: C_7  and  C_8
REMARK    3  A    between atoms: C_16  and  C_17
REMARK    4  A    between atoms: C_18  and  C_19
REMARK    5  A    between atoms: C_19  and  C_20
REMARK    6  A    between atoms: C_20  and  C_21
REMARK    7  A    between atoms: C_21  and  C_22
REMARK    8  A    between atoms: C_22  and  C_23
REMARK    9  A    between atoms: N_25  and  O_26
REMARK                            x       y       z     vdW  Elec       q    Type
REMARK                         _______ _______ _______ _____ _____    ______ ____
ROOT
ATOM      1  C   UNL     1       6.328   5.275  15.280  0.00  0.00    +0.000 C 
ATOM      2  N   UNL     1       6.155   5.397  16.726  0.00  0.00    +0.000 N 
ATOM      3  C   UNL     1       7.064   4.720  17.540  0.00  0.00    +0.000 C 
ATOM      4  O   UNL     1       8.024   4.092  17.082  0.00  0.00    +0.000 OA
ATOM      5  C   UNL     1       6.894   4.861  19.043  0.00  0.00    +0.000 C 
ATOM      6  N   UNL     1       5.705   4.142  19.475  0.00  0.00    +0.000 NA
ATOM      7  C   UNL     1       4.540   4.587  19.144  0.00  0.00    +0.000 C 
ATOM      8  C   UNL     1       4.294   5.828  18.352  0.00  0.00    +0.000 A 
ATOM      9  C   UNL     1       3.204   6.639  18.751  0.00  0.00    +0.000 A 
ATOM     10  C   UNL     1       2.860   7.786  18.039  0.00  0.00    +0.000 A 
ATOM     11  C   UNL     1       3.610   8.136  16.927  0.00  0.00    +0.000 A 
ATOM     12  C   UNL     1       4.680   7.332  16.516  0.00  0.00    +0.000 A 
ATOM     13  C   UNL     1       5.049   6.165  17.213  0.00  0.00    +0.000 A 
ENDROOT
BRANCH   7  14
ATOM     14  C   UNL     1       3.367   3.785  19.606  0.00  0.00    +0.000 A 
ATOM     15  C   UNL     1       2.742   2.914  18.706  0.00  0.00    +0.000 A 
ATOM     16  C   UNL     1       1.584   2.243  19.086  0.00  0.00    +0.000 A 
ATOM     17  C   UNL     1       1.086   2.395  20.381  0.00  0.00    +0.000 A 
ATOM     18  C   UNL     1       1.744   3.212  21.299  0.00  0.00    +0.000 A 
ATOM     19  C   UNL     1       2.862   3.936  20.903  0.00  0.00    +0.000 A 
ENDBRANCH   7  14
BRANCH  10  20
ATOM     20  C   UNL     1       1.757   8.600  18.451  0.00  0.00    +0.000 C 
ATOM     21  C   UNL     1       0.754   9.345  18.826  0.00  0.00    +0.000 C 
BRANCH  21  22
ATOM     22  C   UNL     1      -0.415  10.212  19.265  0.00  0.00    +0.000 C 
BRANCH  22  23
ATOM     23  C   UNL     1      -0.246  11.627  18.720  0.00  0.00    +0.000 C 
BRANCH  23  24
ATOM     24  C   UNL     1      -1.455  12.023  17.881  0.00  0.00    +0.000 C 
BRANCH  24  25
ATOM     25  C   UNL     1      -2.592  11.012  17.998  0.00  0.00    +0.000 C 
BRANCH  25  26
ATOM     26  C   UNL     1      -3.927  11.718  18.141  0.00  0.00    +0.000 C 
ATOM     27  O   UNL     1      -4.479  11.946  19.206  0.00  0.00    +0.000 OA
ATOM     28  N   UNL     1      -4.480  12.092  16.943  0.00  0.00    +0.000 N 
ATOM     29  H   UNL     1      -4.088  11.923  16.026  0.00  0.00    +0.000 HD
BRANCH  28  30
ATOM     30  O   UNL     1      -5.724  12.758  17.011  0.00  0.00    +0.000 OA
ATOM     31  H   UNL     1      -6.173  12.448  16.193  0.00  0.00    +0.000 HD
ENDBRANCH  28  30
ENDBRANCH  25  26
ENDBRANCH  24  25
ENDBRANCH  23  24
ENDBRANCH  22  23
ENDBRANCH  21  22
ENDBRANCH  10  20
TORSDOF 8
ENDMDL
