MODEL 1
REMARK VINA RESULT:      -6.5      0.000      0.000
REMARK  Name = 
REMARK  7 active torsions:
REMARK  status: ('A' for Active; 'I' for Inactive)
REMARK    1  A    between atoms: C_1  and  C_2
REMARK    2  A    between atoms: C_2  and  C_3
REMARK    3  A    between atoms: C_2  and  N_4
REMARK    4  A    between atoms: C_5  and  C_7
REMARK    5  A    between atoms: C_8  and  C_9
REMARK    6  A    between atoms: C_12  and  O_13
REMARK    7  A    between atoms: C_14  and  O_15
REMARK                            x       y       z     vdW  Elec       q    Type
REMARK                         _______ _______ _______ _____ _____    ______ ____
ROOT
ATOM      1  C   UNL     1       3.592   3.847  17.750  0.00  0.00    +0.000 A 
ATOM      2  C   UNL     1       2.439   3.080  17.501  0.00  0.00    +0.000 A 
ATOM      3  C   UNL     1       1.347   3.109  18.379  0.00  0.00    +0.000 A 
ATOM      4  C   UNL     1       1.416   3.902  19.515  0.00  0.00    +0.000 A 
ATOM      5  C   UNL     1       2.557   4.655  19.775  0.00  0.00    +0.000 A 
ATOM      6  C   UNL     1       3.644   4.632  18.909  0.00  0.00    +0.000 A 
ENDROOT
BRANCH   1   8
ATOM      7  C   UNL     1       5.328   4.796  16.232  0.00  0.00    +0.000 C 
ATOM      8  C   UNL     1       4.724   3.748  16.816  0.00  0.00    +0.000 C 
BRANCH   7  10
ATOM      9  N   UNL     1       6.037   4.227  14.021  0.00  0.00    +0.000 N 
ATOM     10  C   UNL     1       6.452   4.562  15.288  0.00  0.00    +0.000 C 
ATOM     11  O   UNL     1       7.626   4.653  15.626  0.00  0.00    +0.000 OA
ATOM     12  H   UNL     1       5.054   4.261  13.791  0.00  0.00    +0.000 HD
BRANCH   9  14
ATOM     13  C   UNL     1       6.344   3.117  11.862  0.00  0.00    +0.000 C 
ATOM     14  C   UNL     1       6.991   3.971  12.949  0.00  0.00    +0.000 C 
ATOM     15  C   UNL     1       7.524   5.275  12.362  0.00  0.00    +0.000 C 
ENDBRANCH   9  14
ENDBRANCH   7  10
ENDBRANCH   1   8
BRANCH   4  16
ATOM     16  O   UNL     1       0.390   3.970  20.417  0.00  0.00    +0.000 OA
ATOM     17  H   UNL     1       0.761   3.843  21.307  0.00  0.00    +0.000 HD
ENDBRANCH   4  16
BRANCH   5  18
ATOM     18  O   UNL     1       2.623   5.426  20.901  0.00  0.00    +0.000 OA
ATOM     19  H   UNL     1       3.577   5.607  21.017  0.00  0.00    +0.000 HD
ENDBRANCH   5  18
TORSDOF 5
ENDMDL
MODEL 2
REMARK VINA RESULT:      -6.5      6.867      8.669
REMARK  Name = 
REMARK  7 active torsions:
REMARK  status: ('A' for Active; 'I' for Inactive)
REMARK    1  A    between atoms: C_1  and  C_2
REMARK    2  A    between atoms: C_2  and  C_3
REMARK    3  A    between atoms: C_2  and  N_4
REMARK    4  A    between atoms: C_5  and  C_7
REMARK    5  A    between atoms: C_8  and  C_9
REMARK    6  A    between atoms: C_12  and  O_13
REMARK    7  A    between atoms: C_14  and  O_15
REMARK                            x       y       z     vdW  Elec       q    Type
REMARK                         _______ _______ _______ _____ _____    ______ ____
ROOT
ATOM      1  C   UNL     1       9.206  10.339  18.929  0.00  0.00    +0.000 A 
ATOM      2  C   UNL     1       9.623  10.756  20.206  0.00  0.00    +0.000 A 
ATOM      3  C   UNL     1      10.103  12.054  20.423  0.00  0.00    +0.000 A 
ATOM      4  C   UNL     1      10.177  12.934  19.353  0.00  0.00    +0.000 A 
ATOM      5  C   UNL     1       9.777  12.526  18.084  0.00  0.00    +0.000 A 
ATOM      6  C   UNL     1       9.299  11.240  17.861  0.00  0.00    +0.000 A 
ENDROOT
BRANCH   1   8
ATOM      7  C   UNL     1       7.927   8.538  17.771  0.00  0.00    +0.000 C 
ATOM      8  C   UNL     1       8.747   8.952  18.751  0.00  0.00    +0.000 C 
BRANCH   7  10
ATOM      9  N   UNL     1       7.017   6.739  16.486  0.00  0.00    +0.000 N 
ATOM     10  C   UNL     1       7.519   7.110  17.711  0.00  0.00    +0.000 C 
ATOM     11  O   UNL     1       7.619   6.356  18.671  0.00  0.00    +0.000 OA
ATOM     12  H   UNL     1       7.051   7.390  15.714  0.00  0.00    +0.000 HD
BRANCH   9  14
ATOM     13  C   UNL     1       5.055   5.285  16.336  0.00  0.00    +0.000 C 
ATOM     14  C   UNL     1       6.574   5.376  16.224  0.00  0.00    +0.000 C 
ATOM     15  C   UNL     1       7.042   4.898  14.852  0.00  0.00    +0.000 C 
ENDBRANCH   9  14
ENDBRANCH   7  10
ENDBRANCH   1   8
BRANCH   4  16
ATOM     16  O   UNL     1      10.643  14.211  19.493  0.00  0.00    +0.000 OA
ATOM     17  H   UNL     1      11.227  14.236  20.270  0.00  0.00    +0.000 HD
ENDBRANCH   4  16
BRANCH   5  18
ATOM     18  O   UNL     1       9.861  13.393  17.031  0.00  0.00    +0.000 OA
ATOM     19  H   UNL     1       9.904  12.816  16.243  0.00  0.00    +0.000 HD
ENDBRANCH   5  18
TORSDOF 5
ENDMDL
MODEL 3
REMARK VINA RESULT:      -6.4      6.843      8.015
REMARK  Name = 
REMARK  7 active torsions:
REMARK  status: ('A' for Active; 'I' for Inactive)
REMARK    1  A    between atoms: C_1  and  C_2
REMARK    2  A    between atoms: C_2  and  C_3
REMARK    3  A    between atoms: C_2  and  N_4
REMARK    4  A    between atoms: C_5  and  C_7
REMARK    5  A    between atoms: C_8  and  C_9
REMARK    6  A    between atoms: C_12  and  O_13
REMARK    7  A    between atoms: C_14  and  O_15
REMARK                            x       y       z     vdW  Elec       q    Type
REMARK                         _______ _______ _______ _____ _____    ______ ____
ROOT
ATOM      1  C   UNL     1       7.799   7.946  17.921  0.00  0.00    +0.000 A 
ATOM      2  C   UNL     1       6.881   7.354  17.035  0.00  0.00    +0.000 A 
ATOM      3  C   UNL     1       6.464   6.028  17.204  0.00  0.00    +0.000 A 
ATOM      4  C   UNL     1       6.978   5.288  18.260  0.00  0.00    +0.000 A 
ATOM      5  C   UNL     1       7.895   5.863  19.135  0.00  0.00    +0.000 A 
ATOM      6  C   UNL     1       8.313   7.178  18.974  0.00  0.00    +0.000 A 
ENDROOT
BRANCH   1   8
ATOM      7  C   UNL     1       8.929  10.082  18.541  0.00  0.00    +0.000 C 
ATOM      8  C   UNL     1       8.232   9.330  17.673  0.00  0.00    +0.000 C 
BRANCH   7  10
ATOM      9  N   UNL     1      10.560  11.828  18.568  0.00  0.00    +0.000 N 
ATOM     10  C   UNL     1       9.290  11.477  18.179  0.00  0.00    +0.000 C 
ATOM     11  O   UNL     1       8.515  12.229  17.600  0.00  0.00    +0.000 OA
ATOM     12  H   UNL     1      11.175  11.128  18.958  0.00  0.00    +0.000 HD
BRANCH   9  14
ATOM     13  C   UNL     1      11.891  13.660  19.497  0.00  0.00    +0.000 C 
ATOM     14  C   UNL     1      11.104  13.152  18.292  0.00  0.00    +0.000 C 
ATOM     15  C   UNL     1      11.983  13.138  17.043  0.00  0.00    +0.000 C 
ENDBRANCH   9  14
ENDBRANCH   7  10
ENDBRANCH   1   8
BRANCH   4  16
ATOM     16  O   UNL     1       6.620   3.987  18.478  0.00  0.00    +0.000 OA
ATOM     17  H   UNL     1       7.120   3.660  19.245  0.00  0.00    +0.000 HD
ENDBRANCH   4  16
BRANCH   5  18
ATOM     18  O   UNL     1       8.406   5.127  20.167  0.00  0.00    +0.000 OA
ATOM     19  H   UNL     1       9.119   4.597  19.759  0.00  0.00    +0.000 HD
ENDBRANCH   5  18
TORSDOF 5
ENDMDL
MODEL 4
REMARK VINA RESULT:      -6.4      4.489      6.734
REMARK  Name = 
REMARK  7 active torsions:
REMARK  status: ('A' for Active; 'I' for Inactive)
REMARK    1  A    between atoms: C_1  and  C_2
REMARK    2  A    between atoms: C_2  and  C_3
REMARK    3  A    between atoms: C_2  and  N_4
REMARK    4  A    between atoms: C_5  and  C_7
REMARK    5  A    between atoms: C_8  and  C_9
REMARK    6  A    between atoms: C_12  and  O_13
REMARK    7  A    between atoms: C_14  and  O_15
REMARK                            x       y       z     vdW  Elec       q    Type
REMARK                         _______ _______ _______ _____ _____    ______ ____
ROOT
ATOM      1  C   UNL     1       2.576   5.223  18.218  0.00  0.00    +0.000 A 
ATOM      2  C   UNL     1       1.777   4.153  17.775  0.00  0.00    +0.000 A 
ATOM      3  C   UNL     1       2.283   2.848  17.712  0.00  0.00    +0.000 A 
ATOM      4  C   UNL     1       3.600   2.617  18.086  0.00  0.00    +0.000 A 
ATOM      5  C   UNL     1       4.400   3.671  18.515  0.00  0.00    +0.000 A 
ATOM      6  C   UNL     1       3.905   4.968  18.580  0.00  0.00    +0.000 A 
ENDROOT
BRANCH   1   8
ATOM      7  C   UNL     1       2.725   7.712  18.215  0.00  0.00    +0.000 C 
ATOM      8  C   UNL     1       2.005   6.578  18.226  0.00  0.00    +0.000 C 
BRANCH   7  10
ATOM      9  N   UNL     1       1.241   9.196  19.360  0.00  0.00    +0.000 N 
ATOM     10  C   UNL     1       2.027   9.024  18.245  0.00  0.00    +0.000 C 
ATOM     11  O   UNL     1       2.145   9.854  17.352  0.00  0.00    +0.000 OA
ATOM     12  H   UNL     1       1.264   8.508  20.099  0.00  0.00    +0.000 HD
BRANCH   9  14
ATOM     13  C   UNL     1      -0.921  10.284  19.004  0.00  0.00    +0.000 C 
ATOM     14  C   UNL     1       0.485  10.423  19.579  0.00  0.00    +0.000 C 
ATOM     15  C   UNL     1       0.428  10.776  21.063  0.00  0.00    +0.000 C 
ENDBRANCH   9  14
ENDBRANCH   7  10
ENDBRANCH   1   8
BRANCH   4  16
ATOM     16  O   UNL     1       4.159   1.370  18.041  0.00  0.00    +0.000 OA
ATOM     17  H   UNL     1       3.934   0.907  18.866  0.00  0.00    +0.000 HD
ENDBRANCH   4  16
BRANCH   5  18
ATOM     18  O   UNL     1       5.699   3.439  18.872  0.00  0.00    +0.000 OA
ATOM     19  H   UNL     1       5.868   2.517  18.592  0.00  0.00    +0.000 HD
ENDBRANCH   5  18
TORSDOF 5
ENDMDL
MODEL 5
REMARK VINA RESULT:      -6.3      0.810      1.757
REMARK  Name = 
REMARK  7 active torsions:
REMARK  status: ('A' for Active; 'I' for Inactive)
REMARK    1  A    between atoms: C_1  and  C_2
REMARK    2  A    between atoms: C_2  and  C_3
REMARK    3  A    between atoms: C_2  and  N_4
REMARK    4  A    between atoms: C_5  and  C_7
REMARK    5  A    between atoms: C_8  and  C_9
REMARK    6  A    between atoms: C_12  and  O_13
REMARK    7  A    between atoms: C_14  and  O_15
REMARK                            x       y       z     vdW  Elec       q    Type
REMARK                         _______ _______ _______ _____ _____    ______ ____
ROOT
ATOM      1  C   UNL     1       3.544   3.416  17.801  0.00  0.00    +0.000 A 
ATOM      2  C   UNL     1       3.568   4.322  18.877  0.00  0.00    +0.000 A 
ATOM      3  C   UNL     1       2.510   4.386  19.793  0.00  0.00    +0.000 A 
ATOM      4  C   UNL     1       1.420   3.545  19.624  0.00  0.00    +0.000 A 
ATOM      5  C   UNL     1       1.383   2.653  18.557  0.00  0.00    +0.000 A 
ATOM      6  C   UNL     1       2.429   2.584  17.644  0.00  0.00    +0.000 A 
ENDROOT
BRANCH   1   8
ATOM      7  C   UNL     1       5.317   4.519  16.437  0.00  0.00    +0.000 C 
ATOM      8  C   UNL     1       4.664   3.419  16.847  0.00  0.00    +0.000 C 
BRANCH   7  10
ATOM      9  N   UNL     1       5.990   4.047  14.192  0.00  0.00    +0.000 N 
ATOM     10  C   UNL     1       6.422   4.391  15.451  0.00  0.00    +0.000 C 
ATOM     11  O   UNL     1       7.596   4.568  15.751  0.00  0.00    +0.000 OA
ATOM     12  H   UNL     1       4.999   4.007  13.997  0.00  0.00    +0.000 HD
BRANCH   9  14
ATOM     13  C   UNL     1       6.267   3.089  11.958  0.00  0.00    +0.000 C 
ATOM     14  C   UNL     1       6.921   3.885  13.083  0.00  0.00    +0.000 C 
ATOM     15  C   UNL     1       7.409   5.238  12.572  0.00  0.00    +0.000 C 
ENDBRANCH   9  14
ENDBRANCH   7  10
ENDBRANCH   1   8
BRANCH   4  16
ATOM     16  O   UNL     1       0.351   3.561  20.476  0.00  0.00    +0.000 OA
ATOM     17  H   UNL     1      -0.442   3.310  19.972  0.00  0.00    +0.000 HD
ENDBRANCH   4  16
BRANCH   5  18
ATOM     18  O   UNL     1       0.302   1.835  18.389  0.00  0.00    +0.000 OA
ATOM     19  H   UNL     1      -0.426   2.293  18.856  0.00  0.00    +0.000 HD
ENDBRANCH   5  18
TORSDOF 5
ENDMDL
MODEL 6
REMARK VINA RESULT:      -6.3      6.187      7.644
REMARK  Name = 
REMARK  7 active torsions:
REMARK  status: ('A' for Active; 'I' for Inactive)
REMARK    1  A    between atoms: C_1  and  C_2
REMARK    2  A    between atoms: C_2  and  C_3
REMARK    3  A    between atoms: C_2  and  N_4
REMARK    4  A    between atoms: C_5  and  C_7
REMARK    5  A    between atoms: C_8  and  C_9
REMARK    6  A    between atoms: C_12  and  O_13
REMARK    7  A    between atoms: C_14  and  O_15
REMARK                            x       y       z     vdW  Elec       q    Type
REMARK                         _______ _______ _______ _____ _____    ______ ____
ROOT
ATOM      1  C   UNL     1       7.083   7.429  17.530  0.00  0.00    +0.000 A 
ATOM      2  C   UNL     1       5.803   7.277  16.968  0.00  0.00    +0.000 A 
ATOM      3  C   UNL     1       5.250   6.006  16.759  0.00  0.00    +0.000 A 
ATOM      4  C   UNL     1       5.989   4.884  17.106  0.00  0.00    +0.000 A 
ATOM      5  C   UNL     1       7.260   5.025  17.652  0.00  0.00    +0.000 A 
ATOM      6  C   UNL     1       7.815   6.282  17.863  0.00  0.00    +0.000 A 
ENDROOT
BRANCH   1   8
ATOM      7  C   UNL     1       8.653   9.107  18.499  0.00  0.00    +0.000 C 
ATOM      8  C   UNL     1       7.630   8.785  17.690  0.00  0.00    +0.000 C 
BRANCH   7  10
ATOM      9  N   UNL     1      10.062  10.728  19.549  0.00  0.00    +0.000 N 
ATOM     10  C   UNL     1       9.101  10.521  18.588  0.00  0.00    +0.000 C 
ATOM     11  O   UNL     1       8.640  11.404  17.875  0.00  0.00    +0.000 OA
ATOM     12  H   UNL     1      10.461   9.938  20.035  0.00  0.00    +0.000 HD
BRANCH   9  14
ATOM     13  C   UNL     1      10.083  12.644  21.071  0.00  0.00    +0.000 C 
ATOM     14  C   UNL     1      10.638  12.047  19.781  0.00  0.00    +0.000 C 
ATOM     15  C   UNL     1      12.162  11.981  19.830  0.00  0.00    +0.000 C 
ENDBRANCH   9  14
ENDBRANCH   7  10
ENDBRANCH   1   8
BRANCH   4  16
ATOM     16  O   UNL     1       5.513   3.615  16.922  0.00  0.00    +0.000 OA
ATOM     17  H   UNL     1       6.252   2.995  17.039  0.00  0.00    +0.000 HD
ENDBRANCH   4  16
BRANCH   5  18
ATOM     18  O   UNL     1       7.988   3.916  17.983  0.00  0.00    +0.000 OA
ATOM     19  H   UNL     1       7.828   3.292  17.247  0.00  0.00    +0.000 HD
ENDBRANCH   5  18
TORSDOF 5
ENDMDL
MODEL 7
REMARK VINA RESULT:      -6.3      6.607      7.918
REMARK  Name = 
REMARK  7 active torsions:
REMARK  status: ('A' for Active; 'I' for Inactive)
REMARK    1  A    between atoms: C_1  and  C_2
REMARK    2  A    between atoms: C_2  and  C_3
REMARK    3  A    between atoms: C_2  and  N_4
REMARK    4  A    between atoms: C_5  and  C_7
REMARK    5  A    between atoms: C_8  and  C_9
REMARK    6  A    between atoms: C_12  and  O_13
REMARK    7  A    between atoms: C_14  and  O_15
REMARK                            x       y       z     vdW  Elec       q    Type
REMARK                         _______ _______ _______ _____ _____    ______ ____
ROOT
ATOM      1  C   UNL     1       7.532   7.553  17.911  0.00  0.00    +0.000 A 
ATOM      2  C   UNL     1       8.114   6.622  18.790  0.00  0.00    +0.000 A 
ATOM      3  C   UNL     1       7.620   5.315  18.891  0.00  0.00    +0.000 A 
ATOM      4  C   UNL     1       6.531   4.943  18.115  0.00  0.00    +0.000 A 
ATOM      5  C   UNL     1       5.943   5.862  17.250  0.00  0.00    +0.000 A 
ATOM      6  C   UNL     1       6.428   7.160  17.145  0.00  0.00    +0.000 A 
ENDROOT
BRANCH   1   8
ATOM      7  C   UNL     1       8.874   9.455  18.808  0.00  0.00    +0.000 C 
ATOM      8  C   UNL     1       8.067   8.924  17.875  0.00  0.00    +0.000 C 
BRANCH   7  10
ATOM      9  N   UNL     1      10.232  11.240  19.633  0.00  0.00    +0.000 N 
ATOM     10  C   UNL     1       9.331  10.862  18.666  0.00  0.00    +0.000 C 
ATOM     11  O   UNL     1       8.926  11.600  17.777  0.00  0.00    +0.000 OA
ATOM     12  H   UNL     1      10.591  10.552  20.279  0.00  0.00    +0.000 HD
BRANCH   9  14
ATOM     13  C   UNL     1      10.305  13.345  20.878  0.00  0.00    +0.000 C 
ATOM     14  C   UNL     1      10.807  12.579  19.658  0.00  0.00    +0.000 C 
ATOM     15  C   UNL     1      12.333  12.524  19.648  0.00  0.00    +0.000 C 
ENDBRANCH   9  14
ENDBRANCH   7  10
ENDBRANCH   1   8
BRANCH   4  16
ATOM     16  O   UNL     1       5.994   3.687  18.170  0.00  0.00    +0.000 OA
ATOM     17  H   UNL     1       6.450   3.194  18.873  0.00  0.00    +0.000 HD
ENDBRANCH   4  16
BRANCH   5  18
ATOM     18  O   UNL     1       4.865   5.494  16.496  0.00  0.00    +0.000 OA
ATOM     19  H   UNL     1       5.052   5.859  15.608  0.00  0.00    +0.000 HD
ENDBRANCH   5  18
TORSDOF 5
ENDMDL
MODEL 8
REMARK VINA RESULT:      -6.3      1.048      1.048
REMARK  Name = 
REMARK  7 active torsions:
REMARK  status: ('A' for Active; 'I' for Inactive)
REMARK    1  A    between atoms: C_1  and  C_2
REMARK    2  A    between atoms: C_2  and  C_3
REMARK    3  A    between atoms: C_2  and  N_4
REMARK    4  A    between atoms: C_5  and  C_7
REMARK    5  A    between atoms: C_8  and  C_9
REMARK    6  A    between atoms: C_12  and  O_13
REMARK    7  A    between atoms: C_14  and  O_15
REMARK                            x       y       z     vdW  Elec       q    Type
REMARK                         _______ _______ _______ _____ _____    ______ ____
ROOT
ATOM      1  C   UNL     1       3.714   3.474  18.014  0.00  0.00    +0.000 A 
ATOM      2  C   UNL     1       2.421   3.884  17.640  0.00  0.00    +0.000 A 
ATOM      3  C   UNL     1       1.363   3.870  18.559  0.00  0.00    +0.000 A 
ATOM      4  C   UNL     1       1.601   3.433  19.854  0.00  0.00    +0.000 A 
ATOM      5  C   UNL     1       2.874   3.016  20.229  0.00  0.00    +0.000 A 
ATOM      6  C   UNL     1       3.928   3.027  19.324  0.00  0.00    +0.000 A 
ENDROOT
BRANCH   1   8
ATOM      7  C   UNL     1       5.355   4.575  16.492  0.00  0.00    +0.000 C 
ATOM      8  C   UNL     1       4.778   3.472  16.998  0.00  0.00    +0.000 C 
BRANCH   7  10
ATOM      9  N   UNL     1       5.921   4.026  14.235  0.00  0.00    +0.000 N 
ATOM     10  C   UNL     1       6.408   4.440  15.452  0.00  0.00    +0.000 C 
ATOM     11  O   UNL     1       7.590   4.669  15.679  0.00  0.00    +0.000 OA
ATOM     12  H   UNL     1       4.924   3.946  14.097  0.00  0.00    +0.000 HD
BRANCH   9  14
ATOM     13  C   UNL     1       6.046   3.145  11.956  0.00  0.00    +0.000 C 
ATOM     14  C   UNL     1       6.797   3.846  13.084  0.00  0.00    +0.000 C 
ATOM     15  C   UNL     1       7.360   5.183  12.606  0.00  0.00    +0.000 C 
ENDBRANCH   9  14
ENDBRANCH   7  10
ENDBRANCH   1   8
BRANCH   4  16
ATOM     16  O   UNL     1       0.612   3.386  20.798  0.00  0.00    +0.000 OA
ATOM     17  H   UNL     1      -0.024   4.095  20.605  0.00  0.00    +0.000 HD
ENDBRANCH   4  16
BRANCH   5  18
ATOM     18  O   UNL     1       3.100   2.577  21.504  0.00  0.00    +0.000 OA
ATOM     19  H   UNL     1       3.572   3.316  21.936  0.00  0.00    +0.000 HD
ENDBRANCH   5  18
TORSDOF 5
ENDMDL
MODEL 9
REMARK VINA RESULT:      -6.3      5.905      7.179
REMARK  Name = 
REMARK  7 active torsions:
REMARK  status: ('A' for Active; 'I' for Inactive)
REMARK    1  A    between atoms: C_1  and  C_2
REMARK    2  A    between atoms: C_2  and  C_3
REMARK    3  A    between atoms: C_2  and  N_4
REMARK    4  A    between atoms: C_5  and  C_7
REMARK    5  A    between atoms: C_8  and  C_9
REMARK    6  A    between atoms: C_12  and  O_13
REMARK    7  A    between atoms: C_14  and  O_15
REMARK                            x       y       z     vdW  Elec       q    Type
REMARK                         _______ _______ _______ _____ _____    ______ ____
ROOT
ATOM      1  C   UNL     1       7.505   6.722  17.991  0.00  0.00    +0.000 A 
ATOM      2  C   UNL     1       7.362   6.609  16.596  0.00  0.00    +0.000 A 
ATOM      3  C   UNL     1       6.714   5.508  16.022  0.00  0.00    +0.000 A 
ATOM      4  C   UNL     1       6.216   4.511  16.849  0.00  0.00    +0.000 A 
ATOM      5  C   UNL     1       6.363   4.610  18.229  0.00  0.00    +0.000 A 
ATOM      6  C   UNL     1       7.004   5.700  18.806  0.00  0.00    +0.000 A 
ENDROOT
BRANCH   1   8
ATOM      7  C   UNL     1       8.214   9.113  18.004  0.00  0.00    +0.000 C 
ATOM      8  C   UNL     1       8.229   7.881  18.538  0.00  0.00    +0.000 C 
BRANCH   7  10
ATOM      9  N   UNL     1       9.193  11.286  17.824  0.00  0.00    +0.000 N 
ATOM     10  C   UNL     1       9.006  10.197  18.641  0.00  0.00    +0.000 C 
ATOM     11  O   UNL     1       9.450  10.107  19.780  0.00  0.00    +0.000 OA
ATOM     12  H   UNL     1       8.721  11.329  16.932  0.00  0.00    +0.000 HD
BRANCH   9  14
ATOM     13  C   UNL     1      10.829  12.977  17.150  0.00  0.00    +0.000 C 
ATOM     14  C   UNL     1       9.934  12.459  18.272  0.00  0.00    +0.000 C 
ATOM     15  C   UNL     1       8.990  13.556  18.757  0.00  0.00    +0.000 C 
ENDBRANCH   9  14
ENDBRANCH   7  10
ENDBRANCH   1   8
BRANCH   4  16
ATOM     16  O   UNL     1       5.581   3.406  16.355  0.00  0.00    +0.000 OA
ATOM     17  H   UNL     1       4.649   3.637  16.198  0.00  0.00    +0.000 HD
ENDBRANCH   4  16
BRANCH   5  18
ATOM     18  O   UNL     1       5.880   3.620  19.039  0.00  0.00    +0.000 OA
ATOM     19  H   UNL     1       5.512   2.958  18.421  0.00  0.00    +0.000 HD
ENDBRANCH   5  18
TORSDOF 5
ENDMDL
