MODEL 1
REMARK VINA RESULT:      -8.4      0.000      0.000
REMARK  Name = 
REMARK  7 active torsions:
REMARK  status: ('A' for Active; 'I' for Inactive)
REMARK    1  A    between atoms: C_1  and  C_2
REMARK    2  A    between atoms: C_2  and  N_3
REMARK    3  A    between atoms: C_4  and  C_5
REMARK    4  A    between atoms: C_5  and  N_6
REMARK    5  A    between atoms: C_7  and  C_9
REMARK    6  A    between atoms: N_20  and  C_21
REMARK    7  A    between atoms: C_21  and  C_22
REMARK                            x       y       z     vdW  Elec       q    Type
REMARK                         _______ _______ _______ _____ _____    ______ ____
ROOT
ATOM      1  N   UNL     1       8.201   7.054  18.953  0.00  0.00    +0.000 N 
ATOM      2  C   UNL     1       8.098   8.010  17.965  0.00  0.00    +0.000 C 
ATOM      3  O   UNL     1       7.646   7.799  16.847  0.00  0.00    +0.000 OA
ATOM      4  H   UNL     1       8.568   7.295  19.860  0.00  0.00    +0.000 HD
ENDROOT
BRANCH   2   5
ATOM      5  C   UNL     1       8.513   9.387  18.351  0.00  0.00    +0.000 A 
ATOM      6  C   UNL     1       8.445  10.418  17.405  0.00  0.00    +0.000 A 
ATOM      7  C   UNL     1       8.777  11.739  17.756  0.00  0.00    +0.000 A 
ATOM      8  C   UNL     1       9.173  12.051  19.057  0.00  0.00    +0.000 A 
ATOM      9  C   UNL     1       9.293  10.991  19.972  0.00  0.00    +0.000 A 
ATOM     10  C   UNL     1       8.978   9.671  19.634  0.00  0.00    +0.000 A 
ATOM     11  N   UNL     1       9.766  11.226  21.278  0.00  0.00    +0.000 N 
ATOM     12  C   UNL     1       9.507  12.472  21.818  0.00  0.00    +0.000 A 
ATOM     13  O   UNL     1       9.208  12.638  22.990  0.00  0.00    +0.000 OA
ATOM     14  C   UNL     1       9.669  13.659  20.850  0.00  0.00    +0.000 A 
ATOM     15  O   UNL     1       9.965  14.758  21.297  0.00  0.00    +0.000 OA
ATOM     16  N   UNL     1       9.503  13.371  19.490  0.00  0.00    +0.000 N 
ATOM     17  H   UNL     1      10.778  11.104  21.266  0.00  0.00    +0.000 HD
BRANCH  16  18
ATOM     18  C   UNL     1       9.735  14.453  18.538  0.00  0.00    +0.000 C 
ATOM     19  C   UNL     1       8.500  15.288  18.245  0.00  0.00    +0.000 C 
ENDBRANCH  16  18
ENDBRANCH   2   5
BRANCH   1  20
ATOM     20  C   UNL     1       7.945   5.651  18.705  0.00  0.00    +0.000 C 
BRANCH  20  22
ATOM     21  N   UNL     1       5.850   4.745  17.609  0.00  0.00    +0.000 N 
ATOM     22  C   UNL     1       6.472   5.360  18.680  0.00  0.00    +0.000 A 
ATOM     23  N   UNL     1       5.587   5.642  19.622  0.00  0.00    +0.000 NA
ATOM     24  C   UNL     1       4.390   5.130  19.183  0.00  0.00    +0.000 A 
ATOM     25  C   UNL     1       3.130   5.125  19.806  0.00  0.00    +0.000 A 
ATOM     26  C   UNL     1       2.048   4.531  19.144  0.00  0.00    +0.000 A 
ATOM     27  C   UNL     1       2.211   3.950  17.886  0.00  0.00    +0.000 A 
ATOM     28  C   UNL     1       3.456   3.949  17.248  0.00  0.00    +0.000 A 
ATOM     29  C   UNL     1       4.525   4.551  17.926  0.00  0.00    +0.000 A 
BRANCH  21  31
ATOM     30  C   UNL     1       5.872   5.232  15.176  0.00  0.00    +0.000 C 
ATOM     31  C   UNL     1       6.445   4.421  16.325  0.00  0.00    +0.000 C 
ENDBRANCH  21  31
ENDBRANCH  20  22
ENDBRANCH   1  20
TORSDOF 5
ENDMDL
MODEL 2
REMARK VINA RESULT:      -8.3      1.249      2.237
REMARK  Name = 
REMARK  7 active torsions:
REMARK  status: ('A' for Active; 'I' for Inactive)
REMARK    1  A    between atoms: C_1  and  C_2
REMARK    2  A    between atoms: C_2  and  N_3
REMARK    3  A    between atoms: C_4  and  C_5
REMARK    4  A    between atoms: C_5  and  N_6
REMARK    5  A    between atoms: C_7  and  C_9
REMARK    6  A    between atoms: N_20  and  C_21
REMARK    7  A    between atoms: C_21  and  C_22
REMARK                            x       y       z     vdW  Elec       q    Type
REMARK                         _______ _______ _______ _____ _____    ______ ____
ROOT
ATOM      1  N   UNL     1       8.136   7.021  18.908  0.00  0.00    +0.000 N 
ATOM      2  C   UNL     1       8.141   8.044  17.985  0.00  0.00    +0.000 C 
ATOM      3  O   UNL     1       7.749   7.931  16.831  0.00  0.00    +0.000 OA
ATOM      4  H   UNL     1       8.458   7.182  19.850  0.00  0.00    +0.000 HD
ENDROOT
BRANCH   2   5
ATOM      5  C   UNL     1       8.598   9.370  18.489  0.00  0.00    +0.000 A 
ATOM      6  C   UNL     1       8.934   9.513  19.841  0.00  0.00    +0.000 A 
ATOM      7  C   UNL     1       9.422  10.737  20.334  0.00  0.00    +0.000 A 
ATOM      8  C   UNL     1       9.589  11.831  19.483  0.00  0.00    +0.000 A 
ATOM      9  C   UNL     1       9.187  11.681  18.145  0.00  0.00    +0.000 A 
ATOM     10  C   UNL     1       8.689  10.474  17.644  0.00  0.00    +0.000 A 
ATOM     11  N   UNL     1       9.252  12.770  17.254  0.00  0.00    +0.000 N 
ATOM     12  C   UNL     1      10.236  13.711  17.494  0.00  0.00    +0.000 A 
ATOM     13  O   UNL     1      10.868  14.253  16.600  0.00  0.00    +0.000 OA
ATOM     14  C   UNL     1      10.457  14.074  18.974  0.00  0.00    +0.000 A 
ATOM     15  O   UNL     1      10.887  15.184  19.259  0.00  0.00    +0.000 OA
ATOM     16  N   UNL     1      10.099  13.095  19.908  0.00  0.00    +0.000 N 
ATOM     17  H   UNL     1       8.355  13.252  17.290  0.00  0.00    +0.000 HD
BRANCH  16  18
ATOM     18  C   UNL     1      10.213  13.437  21.323  0.00  0.00    +0.000 C 
ATOM     19  C   UNL     1       8.926  13.967  21.932  0.00  0.00    +0.000 C 
ENDBRANCH  16  18
ENDBRANCH   2   5
BRANCH   1  20
ATOM     20  C   UNL     1       7.829   5.653  18.550  0.00  0.00    +0.000 C 
BRANCH  20  22
ATOM     21  N   UNL     1       5.651   4.829  17.556  0.00  0.00    +0.000 N 
ATOM     22  C   UNL     1       6.351   5.393  18.607  0.00  0.00    +0.000 A 
ATOM     23  N   UNL     1       5.532   5.658  19.612  0.00  0.00    +0.000 NA
ATOM     24  C   UNL     1       4.299   5.185  19.231  0.00  0.00    +0.000 A 
ATOM     25  C   UNL     1       3.081   5.182  19.931  0.00  0.00    +0.000 A 
ATOM     26  C   UNL     1       1.947   4.634  19.318  0.00  0.00    +0.000 A 
ATOM     27  C   UNL     1       2.018   4.097  18.032  0.00  0.00    +0.000 A 
ATOM     28  C   UNL     1       3.222   4.095  17.319  0.00  0.00    +0.000 A 
ATOM     29  C   UNL     1       4.343   4.650  17.949  0.00  0.00    +0.000 A 
BRANCH  21  31
ATOM     30  C   UNL     1       5.659   5.511  15.171  0.00  0.00    +0.000 C 
ATOM     31  C   UNL     1       6.157   4.541  16.227  0.00  0.00    +0.000 C 
ENDBRANCH  21  31
ENDBRANCH  20  22
ENDBRANCH   1  20
TORSDOF 5
ENDMDL
MODEL 3
REMARK VINA RESULT:      -8.3      5.149      7.025
REMARK  Name = 
REMARK  7 active torsions:
REMARK  status: ('A' for Active; 'I' for Inactive)
REMARK    1  A    between atoms: C_1  and  C_2
REMARK    2  A    between atoms: C_2  and  N_3
REMARK    3  A    between atoms: C_4  and  C_5
REMARK    4  A    between atoms: C_5  and  N_6
REMARK    5  A    between atoms: C_7  and  C_9
REMARK    6  A    between atoms: N_20  and  C_21
REMARK    7  A    between atoms: C_21  and  C_22
REMARK                            x       y       z     vdW  Elec       q    Type
REMARK                         _______ _______ _______ _____ _____    ______ ____
ROOT
ATOM      1  N   UNL     1       4.256   5.577  19.091  0.00  0.00    +0.000 N 
ATOM      2  C   UNL     1       2.922   5.741  18.786  0.00  0.00    +0.000 C 
ATOM      3  O   UNL     1       2.206   4.858  18.331  0.00  0.00    +0.000 OA
ATOM      4  H   UNL     1       4.788   6.340  19.479  0.00  0.00    +0.000 HD
ENDROOT
BRANCH   2   5
ATOM      5  C   UNL     1       2.343   7.075  19.110  0.00  0.00    +0.000 A 
ATOM      6  C   UNL     1       2.159   8.013  18.086  0.00  0.00    +0.000 A 
ATOM      7  C   UNL     1       1.564   9.260  18.352  0.00  0.00    +0.000 A 
ATOM      8  C   UNL     1       1.135   9.583  19.640  0.00  0.00    +0.000 A 
ATOM      9  C   UNL     1       1.385   8.651  20.661  0.00  0.00    +0.000 A 
ATOM     10  C   UNL     1       1.988   7.413  20.414  0.00  0.00    +0.000 A 
ATOM     11  N   UNL     1       1.052   8.950  21.997  0.00  0.00    +0.000 N 
ATOM     12  C   UNL     1      -0.021   9.798  22.195  0.00  0.00    +0.000 A 
ATOM     13  O   UNL     1      -0.831   9.646  23.096  0.00  0.00    +0.000 OA
ATOM     14  C   UNL     1      -0.107  10.993  21.226  0.00  0.00    +0.000 A 
ATOM     15  O   UNL     1      -0.655  12.022  21.594  0.00  0.00    +0.000 OA
ATOM     16  N   UNL     1       0.503  10.817  19.978  0.00  0.00    +0.000 N 
ATOM     17  H   UNL     1       1.867   9.384  22.428  0.00  0.00    +0.000 HD
BRANCH  16  18
ATOM     18  C   UNL     1       0.517  11.958  19.067  0.00  0.00    +0.000 C 
ATOM     19  C   UNL     1       1.782  12.796  19.151  0.00  0.00    +0.000 C 
ENDBRANCH  16  18
ENDBRANCH   2   5
BRANCH   1  20
ATOM     20  C   UNL     1       4.992   4.383  18.735  0.00  0.00    +0.000 C 
BRANCH  20  22
ATOM     21  N   UNL     1       6.580   5.036  16.875  0.00  0.00    +0.000 N 
ATOM     22  C   UNL     1       5.419   4.413  17.296  0.00  0.00    +0.000 A 
ATOM     23  N   UNL     1       4.780   3.890  16.262  0.00  0.00    +0.000 NA
ATOM     24  C   UNL     1       5.583   4.111  15.169  0.00  0.00    +0.000 A 
ATOM     25  C   UNL     1       5.399   3.737  13.827  0.00  0.00    +0.000 A 
ATOM     26  C   UNL     1       6.376   4.085  12.885  0.00  0.00    +0.000 A 
ATOM     27  C   UNL     1       7.518   4.790  13.267  0.00  0.00    +0.000 A 
ATOM     28  C   UNL     1       7.716   5.174  14.598  0.00  0.00    +0.000 A 
ATOM     29  C   UNL     1       6.726   4.819  15.523  0.00  0.00    +0.000 A 
BRANCH  21  31
ATOM     30  C   UNL     1       7.249   7.344  17.492  0.00  0.00    +0.000 C 
ATOM     31  C   UNL     1       7.471   5.854  17.677  0.00  0.00    +0.000 C 
ENDBRANCH  21  31
ENDBRANCH  20  22
ENDBRANCH   1  20
TORSDOF 5
ENDMDL
MODEL 4
REMARK VINA RESULT:      -8.1      6.467     10.295
REMARK  Name = 
REMARK  7 active torsions:
REMARK  status: ('A' for Active; 'I' for Inactive)
REMARK    1  A    between atoms: C_1  and  C_2
REMARK    2  A    between atoms: C_2  and  N_3
REMARK    3  A    between atoms: C_4  and  C_5
REMARK    4  A    between atoms: C_5  and  N_6
REMARK    5  A    between atoms: C_7  and  C_9
REMARK    6  A    between atoms: N_20  and  C_21
REMARK    7  A    between atoms: C_21  and  C_22
REMARK                            x       y       z     vdW  Elec       q    Type
REMARK                         _______ _______ _______ _____ _____    ______ ____
ROOT
ATOM      1  N   UNL     1       1.155  10.140  19.434  0.00  0.00    +0.000 N 
ATOM      2  C   UNL     1       1.776   9.343  18.496  0.00  0.00    +0.000 C 
ATOM      3  O   UNL     1       2.081   9.715  17.371  0.00  0.00    +0.000 OA
ATOM      4  H   UNL     1       0.944   9.778  20.351  0.00  0.00    +0.000 HD
ENDROOT
BRANCH   2   5
ATOM      5  C   UNL     1       2.138   7.971  18.950  0.00  0.00    +0.000 A 
ATOM      6  C   UNL     1       1.530   7.441  20.095  0.00  0.00    +0.000 A 
ATOM      7  C   UNL     1       1.811   6.129  20.516  0.00  0.00    +0.000 A 
ATOM      8  C   UNL     1       2.694   5.324  19.795  0.00  0.00    +0.000 A 
ATOM      9  C   UNL     1       3.337   5.897  18.685  0.00  0.00    +0.000 A 
ATOM     10  C   UNL     1       3.078   7.205  18.263  0.00  0.00    +0.000 A 
ATOM     11  N   UNL     1       4.301   5.167  17.963  0.00  0.00    +0.000 N 
ATOM     12  C   UNL     1       4.149   3.793  17.937  0.00  0.00    +0.000 A 
ATOM     13  O   UNL     1       4.375   3.119  16.944  0.00  0.00    +0.000 OA
ATOM     14  C   UNL     1       3.716   3.150  19.268  0.00  0.00    +0.000 A 
ATOM     15  O   UNL     1       4.035   1.993  19.505  0.00  0.00    +0.000 OA
ATOM     16  N   UNL     1       3.008   3.977  20.149  0.00  0.00    +0.000 N 
ATOM     17  H   UNL     1       5.212   5.364  18.377  0.00  0.00    +0.000 HD
BRANCH  16  18
ATOM     18  C   UNL     1       2.658   3.428  21.456  0.00  0.00    +0.000 C 
ATOM     19  C   UNL     1       1.310   2.727  21.486  0.00  0.00    +0.000 C 
ENDBRANCH  16  18
ENDBRANCH   2   5
BRANCH   1  20
ATOM     20  C   UNL     1       0.640  11.454  19.117  0.00  0.00    +0.000 C 
BRANCH  20  22
ATOM     21  N   UNL     1      -1.740  12.087  19.706  0.00  0.00    +0.000 N 
ATOM     22  C   UNL     1      -0.844  11.418  18.891  0.00  0.00    +0.000 A 
ATOM     23  N   UNL     1      -1.492  10.768  17.937  0.00  0.00    +0.000 NA
ATOM     24  C   UNL     1      -2.819  11.087  18.094  0.00  0.00    +0.000 A 
ATOM     25  C   UNL     1      -3.935  10.695  17.335  0.00  0.00    +0.000 A 
ATOM     26  C   UNL     1      -5.203  11.161  17.703  0.00  0.00    +0.000 A 
ATOM     27  C   UNL     1      -5.364  12.004  18.803  0.00  0.00    +0.000 A 
ATOM     28  C   UNL     1      -4.265  12.402  19.573  0.00  0.00    +0.000 A 
ATOM     29  C   UNL     1      -3.006  11.922  19.190  0.00  0.00    +0.000 A 
BRANCH  21  31
ATOM     30  C   UNL     1      -1.559  11.900  22.173  0.00  0.00    +0.000 C 
ATOM     31  C   UNL     1      -1.440  12.783  20.944  0.00  0.00    +0.000 C 
ENDBRANCH  21  31
ENDBRANCH  20  22
ENDBRANCH   1  20
TORSDOF 5
ENDMDL
MODEL 5
REMARK VINA RESULT:      -8.1      5.888      7.138
REMARK  Name = 
REMARK  7 active torsions:
REMARK  status: ('A' for Active; 'I' for Inactive)
REMARK    1  A    between atoms: C_1  and  C_2
REMARK    2  A    between atoms: C_2  and  N_3
REMARK    3  A    between atoms: C_4  and  C_5
REMARK    4  A    between atoms: C_5  and  N_6
REMARK    5  A    between atoms: C_7  and  C_9
REMARK    6  A    between atoms: N_20  and  C_21
REMARK    7  A    between atoms: C_21  and  C_22
REMARK                            x       y       z     vdW  Elec       q    Type
REMARK                         _______ _______ _______ _____ _____    ______ ____
ROOT
ATOM      1  N   UNL     1       3.695   5.971  19.853  0.00  0.00    +0.000 N 
ATOM      2  C   UNL     1       2.334   6.110  20.021  0.00  0.00    +0.000 C 
ATOM      3  O   UNL     1       1.560   5.174  20.174  0.00  0.00    +0.000 OA
ATOM      4  H   UNL     1       4.282   6.784  19.747  0.00  0.00    +0.000 HD
ENDROOT
BRANCH   2   5
ATOM      5  C   UNL     1       1.829   7.510  20.081  0.00  0.00    +0.000 A 
ATOM      6  C   UNL     1       1.826   8.292  18.919  0.00  0.00    +0.000 A 
ATOM      7  C   UNL     1       1.304   9.598  18.932  0.00  0.00    +0.000 A 
ATOM      8  C   UNL     1       0.770  10.138  20.103  0.00  0.00    +0.000 A 
ATOM      9  C   UNL     1       0.839   9.359  21.269  0.00  0.00    +0.000 A 
ATOM     10  C   UNL     1       1.367   8.064  21.274  0.00  0.00    +0.000 A 
ATOM     11  N   UNL     1       0.393   9.876  22.501  0.00  0.00    +0.000 N 
ATOM     12  C   UNL     1      -0.626  10.808  22.450  0.00  0.00    +0.000 A 
ATOM     13  O   UNL     1      -1.536  10.844  23.265  0.00  0.00    +0.000 OA
ATOM     14  C   UNL     1      -0.519  11.845  21.316  0.00  0.00    +0.000 A 
ATOM     15  O   UNL     1      -1.021  12.950  21.467  0.00  0.00    +0.000 OA
ATOM     16  N   UNL     1       0.203  11.446  20.185  0.00  0.00    +0.000 N 
ATOM     17  H   UNL     1       1.189  10.321  22.956  0.00  0.00    +0.000 HD
BRANCH  16  18
ATOM     18  C   UNL     1       0.400  12.433  19.127  0.00  0.00    +0.000 C 
ATOM     19  C   UNL     1       1.706  13.201  19.239  0.00  0.00    +0.000 C 
ENDBRANCH  16  18
ENDBRANCH   2   5
BRANCH   1  20
ATOM     20  C   UNL     1       4.326   4.682  19.661  0.00  0.00    +0.000 C 
BRANCH  20  22
ATOM     21  N   UNL     1       4.287   4.077  17.203  0.00  0.00    +0.000 N 
ATOM     22  C   UNL     1       4.958   4.580  18.304  0.00  0.00    +0.000 A 
ATOM     23  N   UNL     1       6.191   4.925  17.969  0.00  0.00    +0.000 NA
ATOM     24  C   UNL     1       6.290   4.714  16.615  0.00  0.00    +0.000 A 
ATOM     25  C   UNL     1       7.369   4.942  15.744  0.00  0.00    +0.000 A 
ATOM     26  C   UNL     1       7.220   4.641  14.384  0.00  0.00    +0.000 A 
ATOM     27  C   UNL     1       6.020   4.123  13.894  0.00  0.00    +0.000 A 
ATOM     28  C   UNL     1       4.936   3.886  14.746  0.00  0.00    +0.000 A 
ATOM     29  C   UNL     1       5.107   4.191  16.103  0.00  0.00    +0.000 A 
BRANCH  21  31
ATOM     30  C   UNL     1       2.980   2.039  17.744  0.00  0.00    +0.000 C 
ATOM     31  C   UNL     1       2.977   3.453  17.192  0.00  0.00    +0.000 C 
ENDBRANCH  21  31
ENDBRANCH  20  22
ENDBRANCH   1  20
TORSDOF 5
ENDMDL
MODEL 6
REMARK VINA RESULT:      -8.1      6.767     10.406
REMARK  Name = 
REMARK  7 active torsions:
REMARK  status: ('A' for Active; 'I' for Inactive)
REMARK    1  A    between atoms: C_1  and  C_2
REMARK    2  A    between atoms: C_2  and  N_3
REMARK    3  A    between atoms: C_4  and  C_5
REMARK    4  A    between atoms: C_5  and  N_6
REMARK    5  A    between atoms: C_7  and  C_9
REMARK    6  A    between atoms: N_20  and  C_21
REMARK    7  A    between atoms: C_21  and  C_22
REMARK                            x       y       z     vdW  Elec       q    Type
REMARK                         _______ _______ _______ _____ _____    ______ ____
ROOT
ATOM      1  N   UNL     1       1.108   9.943  19.245  0.00  0.00    +0.000 N 
ATOM      2  C   UNL     1       1.318   9.015  20.242  0.00  0.00    +0.000 C 
ATOM      3  O   UNL     1       1.103   9.219  21.429  0.00  0.00    +0.000 OA
ATOM      4  H   UNL     1       1.290   9.707  18.281  0.00  0.00    +0.000 HD
ENDROOT
BRANCH   2   5
ATOM      5  C   UNL     1       1.774   7.670  19.789  0.00  0.00    +0.000 A 
ATOM      6  C   UNL     1       2.455   7.548  18.571  0.00  0.00    +0.000 A 
ATOM      7  C   UNL     1       2.947   6.301  18.144  0.00  0.00    +0.000 A 
ATOM      8  C   UNL     1       2.773   5.161  18.931  0.00  0.00    +0.000 A 
ATOM      9  C   UNL     1       2.034   5.298  20.118  0.00  0.00    +0.000 A 
ATOM     10  C   UNL     1       1.529   6.528  20.549  0.00  0.00    +0.000 A 
ATOM     11  N   UNL     1       1.752   4.171  20.916  0.00  0.00    +0.000 N 
ATOM     12  C   UNL     1       2.674   3.142  20.887  0.00  0.00    +0.000 A 
ATOM     13  O   UNL     1       2.983   2.499  21.878  0.00  0.00    +0.000 OA
ATOM     14  C   UNL     1       3.260   2.819  19.499  0.00  0.00    +0.000 A 
ATOM     15  O   UNL     1       3.649   1.683  19.265  0.00  0.00    +0.000 OA
ATOM     16  N   UNL     1       3.263   3.869  18.574  0.00  0.00    +0.000 N 
ATOM     17  H   UNL     1       0.859   3.789  20.606  0.00  0.00    +0.000 HD
BRANCH  16  18
ATOM     18  C   UNL     1       3.731   3.576  17.222  0.00  0.00    +0.000 C 
ATOM     19  C   UNL     1       5.181   3.960  16.977  0.00  0.00    +0.000 C 
ENDBRANCH  16  18
ENDBRANCH   2   5
BRANCH   1  20
ATOM     20  C   UNL     1       0.774  11.323  19.526  0.00  0.00    +0.000 C 
BRANCH  20  22
ATOM     21  N   UNL     1      -1.417  12.209  20.433  0.00  0.00    +0.000 N 
ATOM     22  C   UNL     1      -0.707  11.554  19.443  0.00  0.00    +0.000 A 
ATOM     23  N   UNL     1      -1.521  11.179  18.469  0.00  0.00    +0.000 NA
ATOM     24  C   UNL     1      -2.761  11.668  18.801  0.00  0.00    +0.000 A 
ATOM     25  C   UNL     1      -3.978  11.584  18.104  0.00  0.00    +0.000 A 
ATOM     26  C   UNL     1      -5.121  12.173  18.660  0.00  0.00    +0.000 A 
ATOM     27  C   UNL     1      -5.059  12.837  19.886  0.00  0.00    +0.000 A 
ATOM     28  C   UNL     1      -3.857  12.927  20.596  0.00  0.00    +0.000 A 
ATOM     29  C   UNL     1      -2.727  12.329  20.025  0.00  0.00    +0.000 A 
BRANCH  21  31
ATOM     30  C   UNL     1      -1.113  11.597  22.818  0.00  0.00    +0.000 C 
ATOM     31  C   UNL     1      -0.918  12.635  21.728  0.00  0.00    +0.000 C 
ENDBRANCH  21  31
ENDBRANCH  20  22
ENDBRANCH   1  20
TORSDOF 5
ENDMDL
MODEL 7
REMARK VINA RESULT:      -8.0      5.609      7.166
REMARK  Name = 
REMARK  7 active torsions:
REMARK  status: ('A' for Active; 'I' for Inactive)
REMARK    1  A    between atoms: C_1  and  C_2
REMARK    2  A    between atoms: C_2  and  N_3
REMARK    3  A    between atoms: C_4  and  C_5
REMARK    4  A    between atoms: C_5  and  N_6
REMARK    5  A    between atoms: C_7  and  C_9
REMARK    6  A    between atoms: N_20  and  C_21
REMARK    7  A    between atoms: C_21  and  C_22
REMARK                            x       y       z     vdW  Elec       q    Type
REMARK                         _______ _______ _______ _____ _____    ______ ____
ROOT
ATOM      1  N   UNL     1       3.580   5.985  19.893  0.00  0.00    +0.000 N 
ATOM      2  C   UNL     1       2.227   6.038  20.148  0.00  0.00    +0.000 C 
ATOM      3  O   UNL     1       1.539   5.064  20.424  0.00  0.00    +0.000 OA
ATOM      4  H   UNL     1       4.094   6.828  19.687  0.00  0.00    +0.000 HD
ENDROOT
BRANCH   2   5
ATOM      5  C   UNL     1       1.619   7.399  20.142  0.00  0.00    +0.000 A 
ATOM      6  C   UNL     1       0.735   7.763  21.166  0.00  0.00    +0.000 A 
ATOM      7  C   UNL     1       0.190   9.058  21.217  0.00  0.00    +0.000 A 
ATOM      8  C   UNL     1       0.525  10.010  20.253  0.00  0.00    +0.000 A 
ATOM      9  C   UNL     1       1.364   9.603  19.202  0.00  0.00    +0.000 A 
ATOM     10  C   UNL     1       1.904   8.315  19.131  0.00  0.00    +0.000 A 
ATOM     11  N   UNL     1       1.675  10.490  18.153  0.00  0.00    +0.000 N 
ATOM     12  C   UNL     1       1.696  11.836  18.463  0.00  0.00    +0.000 A 
ATOM     13  O   UNL     1       2.520  12.612  18.002  0.00  0.00    +0.000 OA
ATOM     14  C   UNL     1       0.573  12.317  19.402  0.00  0.00    +0.000 A 
ATOM     15  O   UNL     1       0.193  13.477  19.334  0.00  0.00    +0.000 OA
ATOM     16  N   UNL     1       0.029  11.348  20.254  0.00  0.00    +0.000 N 
ATOM     17  H   UNL     1       0.979  10.357  17.420  0.00  0.00    +0.000 HD
BRANCH  16  18
ATOM     18  C   UNL     1      -1.096  11.746  21.096  0.00  0.00    +0.000 C 
ATOM     19  C   UNL     1      -0.686  12.276  22.459  0.00  0.00    +0.000 C 
ENDBRANCH  16  18
ENDBRANCH   2   5
BRANCH   1  20
ATOM     20  C   UNL     1       4.295   4.735  19.752  0.00  0.00    +0.000 C 
BRANCH  20  22
ATOM     21  N   UNL     1       4.265   4.115  17.298  0.00  0.00    +0.000 N 
ATOM     22  C   UNL     1       4.934   4.621  18.398  0.00  0.00    +0.000 A 
ATOM     23  N   UNL     1       6.170   4.956  18.067  0.00  0.00    +0.000 NA
ATOM     24  C   UNL     1       6.274   4.736  16.715  0.00  0.00    +0.000 A 
ATOM     25  C   UNL     1       7.358   4.953  15.848  0.00  0.00    +0.000 A 
ATOM     26  C   UNL     1       7.214   4.645  14.489  0.00  0.00    +0.000 A 
ATOM     27  C   UNL     1       6.013   4.131  13.996  0.00  0.00    +0.000 A 
ATOM     28  C   UNL     1       4.924   3.906  14.845  0.00  0.00    +0.000 A 
ATOM     29  C   UNL     1       5.090   4.218  16.201  0.00  0.00    +0.000 A 
BRANCH  21  31
ATOM     30  C   UNL     1       2.953   2.067  17.786  0.00  0.00    +0.000 C 
ATOM     31  C   UNL     1       2.951   3.499  17.284  0.00  0.00    +0.000 C 
ENDBRANCH  21  31
ENDBRANCH  20  22
ENDBRANCH   1  20
TORSDOF 5
ENDMDL
MODEL 8
REMARK VINA RESULT:      -7.9      7.124      9.080
REMARK  Name = 
REMARK  7 active torsions:
REMARK  status: ('A' for Active; 'I' for Inactive)
REMARK    1  A    between atoms: C_1  and  C_2
REMARK    2  A    between atoms: C_2  and  N_3
REMARK    3  A    between atoms: C_4  and  C_5
REMARK    4  A    between atoms: C_5  and  N_6
REMARK    5  A    between atoms: C_7  and  C_9
REMARK    6  A    between atoms: N_20  and  C_21
REMARK    7  A    between atoms: C_21  and  C_22
REMARK                            x       y       z     vdW  Elec       q    Type
REMARK                         _______ _______ _______ _____ _____    ______ ____
ROOT
ATOM      1  N   UNL     1       1.829   8.579  18.171  0.00  0.00    +0.000 N 
ATOM      2  C   UNL     1       1.694   9.948  18.094  0.00  0.00    +0.000 C 
ATOM      3  O   UNL     1       2.539  10.698  17.623  0.00  0.00    +0.000 OA
ATOM      4  H   UNL     1       1.088   8.014  18.557  0.00  0.00    +0.000 HD
ENDROOT
BRANCH   2   5
ATOM      5  C   UNL     1       0.392  10.499  18.565  0.00  0.00    +0.000 A 
ATOM      6  C   UNL     1       0.369  11.364  19.666  0.00  0.00    +0.000 A 
ATOM      7  C   UNL     1      -0.837  11.943  20.100  0.00  0.00    +0.000 A 
ATOM      8  C   UNL     1      -2.035  11.674  19.435  0.00  0.00    +0.000 A 
ATOM      9  C   UNL     1      -1.996  10.755  18.373  0.00  0.00    +0.000 A 
ATOM     10  C   UNL     1      -0.806  10.162  17.939  0.00  0.00    +0.000 A 
ATOM     11  N   UNL     1      -3.182  10.376  17.713  0.00  0.00    +0.000 N 
ATOM     12  C   UNL     1      -4.196  11.314  17.672  0.00  0.00    +0.000 A 
ATOM     13  O   UNL     1      -4.909  11.479  16.694  0.00  0.00    +0.000 OA
ATOM     14  C   UNL     1      -4.408  12.117  18.969  0.00  0.00    +0.000 A 
ATOM     15  O   UNL     1      -5.519  12.563  19.222  0.00  0.00    +0.000 OA
ATOM     16  N   UNL     1      -3.291  12.242  19.804  0.00  0.00    +0.000 N 
ATOM     17  H   UNL     1      -3.549   9.552  18.187  0.00  0.00    +0.000 HD
BRANCH  16  18
ATOM     18  C   UNL     1      -3.477  12.922  21.083  0.00  0.00    +0.000 C 
ATOM     19  C   UNL     1      -3.284  14.427  21.012  0.00  0.00    +0.000 C 
ENDBRANCH  16  18
ENDBRANCH   2   5
BRANCH   1  20
ATOM     20  C   UNL     1       3.070   7.902  17.860  0.00  0.00    +0.000 C 
BRANCH  20  22
ATOM     21  N   UNL     1       3.942   5.535  17.638  0.00  0.00    +0.000 N 
ATOM     22  C   UNL     1       2.905   6.410  17.908  0.00  0.00    +0.000 A 
ATOM     23  N   UNL     1       1.801   5.737  18.189  0.00  0.00    +0.000 NA
ATOM     24  C   UNL     1       2.153   4.409  18.176  0.00  0.00    +0.000 A 
ATOM     25  C   UNL     1       1.374   3.269  18.436  0.00  0.00    +0.000 A 
ATOM     26  C   UNL     1       1.972   2.005  18.358  0.00  0.00    +0.000 A 
ATOM     27  C   UNL     1       3.322   1.872  18.029  0.00  0.00    +0.000 A 
ATOM     28  C   UNL     1       4.112   2.996  17.763  0.00  0.00    +0.000 A 
ATOM     29  C   UNL     1       3.494   4.250  17.843  0.00  0.00    +0.000 A 
BRANCH  21  31
ATOM     30  C   UNL     1       5.359   5.857  15.628  0.00  0.00    +0.000 C 
ATOM     31  C   UNL     1       5.263   5.876  17.142  0.00  0.00    +0.000 C 
ENDBRANCH  21  31
ENDBRANCH  20  22
ENDBRANCH   1  20
TORSDOF 5
ENDMDL
MODEL 9
REMARK VINA RESULT:      -7.9      4.826      7.125
REMARK  Name = 
REMARK  7 active torsions:
REMARK  status: ('A' for Active; 'I' for Inactive)
REMARK    1  A    between atoms: C_1  and  C_2
REMARK    2  A    between atoms: C_2  and  N_3
REMARK    3  A    between atoms: C_4  and  C_5
REMARK    4  A    between atoms: C_5  and  N_6
REMARK    5  A    between atoms: C_7  and  C_9
REMARK    6  A    between atoms: N_20  and  C_21
REMARK    7  A    between atoms: C_21  and  C_22
REMARK                            x       y       z     vdW  Elec       q    Type
REMARK                         _______ _______ _______ _____ _____    ______ ____
ROOT
ATOM      1  N   UNL     1       4.307   5.586  19.416  0.00  0.00    +0.000 N 
ATOM      2  C   UNL     1       2.940   5.563  19.241  0.00  0.00    +0.000 C 
ATOM      3  O   UNL     1       2.301   4.565  18.937  0.00  0.00    +0.000 OA
ATOM      4  H   UNL     1       4.774   6.439  19.682  0.00  0.00    +0.000 HD
ENDROOT
BRANCH   2   5
ATOM      5  C   UNL     1       2.231   6.845  19.516  0.00  0.00    +0.000 A 
ATOM      6  C   UNL     1       1.478   6.977  20.690  0.00  0.00    +0.000 A 
ATOM      7  C   UNL     1       0.844   8.192  21.004  0.00  0.00    +0.000 A 
ATOM      8  C   UNL     1       0.959   9.294  20.156  0.00  0.00    +0.000 A 
ATOM      9  C   UNL     1       1.667   9.119  18.955  0.00  0.00    +0.000 A 
ATOM     10  C   UNL     1       2.293   7.913  18.624  0.00  0.00    +0.000 A 
ATOM     11  N   UNL     1       1.751  10.167  18.017  0.00  0.00    +0.000 N 
ATOM     12  C   UNL     1       1.709  11.454  18.518  0.00  0.00    +0.000 A 
ATOM     13  O   UNL     1       2.392  12.363  18.072  0.00  0.00    +0.000 OA
ATOM     14  C   UNL     1       0.698  11.688  19.657  0.00  0.00    +0.000 A 
ATOM     15  O   UNL     1       0.221  12.803  19.813  0.00  0.00    +0.000 OA
ATOM     16  N   UNL     1       0.362  10.564  20.420  0.00  0.00    +0.000 N 
ATOM     17  H   UNL     1       0.969  10.066  17.371  0.00  0.00    +0.000 HD
BRANCH  16  18
ATOM     18  C   UNL     1      -0.658  10.729  21.452  0.00  0.00    +0.000 C 
ATOM     19  C   UNL     1      -0.207  10.293  22.836  0.00  0.00    +0.000 C 
ENDBRANCH  16  18
ENDBRANCH   2   5
BRANCH   1  20
ATOM     20  C   UNL     1       5.151   4.458  19.081  0.00  0.00    +0.000 C 
BRANCH  20  22
ATOM     21  N   UNL     1       6.631   5.097  17.129  0.00  0.00    +0.000 N 
ATOM     22  C   UNL     1       5.508   4.458  17.623  0.00  0.00    +0.000 A 
ATOM     23  N   UNL     1       4.835   3.888  16.636  0.00  0.00    +0.000 NA
ATOM     24  C   UNL     1       5.579   4.097  15.500  0.00  0.00    +0.000 A 
ATOM     25  C   UNL     1       5.342   3.679  14.179  0.00  0.00    +0.000 A 
ATOM     26  C   UNL     1       6.263   4.024  13.182  0.00  0.00    +0.000 A 
ATOM     27  C   UNL     1       7.403   4.770  13.488  0.00  0.00    +0.000 A 
ATOM     28  C   UNL     1       7.653   5.198  14.796  0.00  0.00    +0.000 A 
ATOM     29  C   UNL     1       6.718   4.845  15.778  0.00  0.00    +0.000 A 
BRANCH  21  31
ATOM     30  C   UNL     1       7.395   7.428  17.500  0.00  0.00    +0.000 C 
ATOM     31  C   UNL     1       7.536   5.961  17.864  0.00  0.00    +0.000 C 
ENDBRANCH  21  31
ENDBRANCH  20  22
ENDBRANCH   1  20
TORSDOF 5
ENDMDL
