MODEL 1
REMARK VINA RESULT:      -6.8      0.000      0.000
REMARK  Name = 
REMARK  7 active torsions:
REMARK  status: ('A' for Active; 'I' for Inactive)
REMARK    1  A    between atoms: C_1  and  C_2
REMARK    2  A    between atoms: C_2  and  C_3
REMARK    3  A    between atoms: C_6  and  S_7
REMARK    4  A    between atoms: S_7  and  C_8
REMARK    5  A    between atoms: C_8  and  C_9
REMARK    6  A    between atoms: C_13  and  C_14
REMARK    7  A    between atoms: N_15  and  C_16
REMARK                            x       y       z     vdW  Elec       q    Type
REMARK                         _______ _______ _______ _____ _____    ______ ____
ROOT
ATOM      1  C   UNL     1       3.417   3.158  19.539  0.00  0.00    +0.000 A 
ATOM      2  N   UNL     1       4.703   3.091  19.816  0.00  0.00    +0.000 NA
ATOM      3  N   UNL     1       5.391   3.749  18.822  0.00  0.00    +0.000 NA
ATOM      4  C   UNL     1       4.511   4.206  17.967  0.00  0.00    +0.000 A 
ATOM      5  N   UNL     1       3.249   3.924  18.404  0.00  0.00    +0.000 N 
ATOM      6  C   UNL     1       1.986   4.282  17.814  0.00  0.00    +0.000 C 
ENDROOT
BRANCH   1   8
ATOM      7  C   UNL     1       1.894   3.266  21.486  0.00  0.00    +0.000 C 
ATOM      8  C   UNL     1       2.317   2.461  20.264  0.00  0.00    +0.000 C 
ENDBRANCH   1   8
BRANCH   4   9
ATOM      9  S   UNL     1       4.851   5.031  16.490  0.00  0.00    +0.000 S 
BRANCH   9  10
ATOM     10  C   UNL     1       6.031   3.901  15.697  0.00  0.00    +0.000 C 
BRANCH  10  11
ATOM     11  C   UNL     1       6.779   4.517  14.566  0.00  0.00    +0.000 A 
ATOM     12  N   UNL     1       7.720   5.441  14.793  0.00  0.00    +0.000 NA
ATOM     13  O   UNL     1       8.256   5.730  13.544  0.00  0.00    +0.000 OA
ATOM     14  N   UNL     1       7.639   4.985  12.549  0.00  0.00    +0.000 NA
ATOM     15  C   UNL     1       6.730   4.239  13.184  0.00  0.00    +0.000 A 
ATOM     16  C   UNL     1       5.899   3.282  12.424  0.00  0.00    +0.000 C 
ENDBRANCH  10  11
ENDBRANCH   9  10
ENDBRANCH   4   9
TORSDOF 4
ENDMDL
MODEL 2
REMARK VINA RESULT:      -6.5      2.354      3.359
REMARK  Name = 
REMARK  7 active torsions:
REMARK  status: ('A' for Active; 'I' for Inactive)
REMARK    1  A    between atoms: C_1  and  C_2
REMARK    2  A    between atoms: C_2  and  C_3
REMARK    3  A    between atoms: C_6  and  S_7
REMARK    4  A    between atoms: S_7  and  C_8
REMARK    5  A    between atoms: C_8  and  C_9
REMARK    6  A    between atoms: C_13  and  C_14
REMARK    7  A    between atoms: N_15  and  C_16
REMARK                            x       y       z     vdW  Elec       q    Type
REMARK                         _______ _______ _______ _____ _____    ______ ____
ROOT
ATOM      1  C   UNL     1       3.164   3.806  19.904  0.00  0.00    +0.000 A 
ATOM      2  N   UNL     1       3.293   5.118  19.902  0.00  0.00    +0.000 NA
ATOM      3  N   UNL     1       3.844   5.493  18.699  0.00  0.00    +0.000 NA
ATOM      4  C   UNL     1       4.033   4.406  17.993  0.00  0.00    +0.000 A 
ATOM      5  N   UNL     1       3.559   3.322  18.674  0.00  0.00    +0.000 N 
ATOM      6  C   UNL     1       3.508   1.944  18.260  0.00  0.00    +0.000 C 
ENDROOT
BRANCH   1   8
ATOM      7  C   UNL     1       1.227   2.869  21.124  0.00  0.00    +0.000 C 
ATOM      8  C   UNL     1       2.745   2.959  21.056  0.00  0.00    +0.000 C 
ENDBRANCH   1   8
BRANCH   4   9
ATOM      9  S   UNL     1       4.780   4.310  16.440  0.00  0.00    +0.000 S 
BRANCH   9  10
ATOM     10  C   UNL     1       6.538   4.191  16.881  0.00  0.00    +0.000 C 
BRANCH  10  11
ATOM     11  C   UNL     1       7.170   5.507  17.173  0.00  0.00    +0.000 A 
ATOM     12  N   UNL     1       7.385   6.393  16.194  0.00  0.00    +0.000 NA
ATOM     13  O   UNL     1       7.903   7.518  16.825  0.00  0.00    +0.000 OA
ATOM     14  N   UNL     1       8.011   7.318  18.194  0.00  0.00    +0.000 NA
ATOM     15  C   UNL     1       7.558   6.078  18.404  0.00  0.00    +0.000 A 
ATOM     16  C   UNL     1       7.495   5.537  19.777  0.00  0.00    +0.000 C 
ENDBRANCH  10  11
ENDBRANCH   9  10
ENDBRANCH   4   9
TORSDOF 4
ENDMDL
MODEL 3
REMARK VINA RESULT:      -6.4      3.112      3.810
REMARK  Name = 
REMARK  7 active torsions:
REMARK  status: ('A' for Active; 'I' for Inactive)
REMARK    1  A    between atoms: C_1  and  C_2
REMARK    2  A    between atoms: C_2  and  C_3
REMARK    3  A    between atoms: C_6  and  S_7
REMARK    4  A    between atoms: S_7  and  C_8
REMARK    5  A    between atoms: C_8  and  C_9
REMARK    6  A    between atoms: C_13  and  C_14
REMARK    7  A    between atoms: N_15  and  C_16
REMARK                            x       y       z     vdW  Elec       q    Type
REMARK                         _______ _______ _______ _____ _____    ______ ____
ROOT
ATOM      1  C   UNL     1       2.000   3.622  19.120  0.00  0.00    +0.000 A 
ATOM      2  N   UNL     1       1.894   4.910  18.859  0.00  0.00    +0.000 NA
ATOM      3  N   UNL     1       2.818   5.228  17.889  0.00  0.00    +0.000 NA
ATOM      4  C   UNL     1       3.461   4.130  17.579  0.00  0.00    +0.000 A 
ATOM      5  N   UNL     1       2.940   3.075  18.272  0.00  0.00    +0.000 N 
ATOM      6  C   UNL     1       3.298   1.682  18.203  0.00  0.00    +0.000 C 
ENDROOT
BRANCH   1   8
ATOM      7  C   UNL     1       1.897   3.222  21.559  0.00  0.00    +0.000 C 
ATOM      8  C   UNL     1       1.297   2.878  20.203  0.00  0.00    +0.000 C 
ENDBRANCH   1   8
BRANCH   4   9
ATOM      9  S   UNL     1       4.782   3.993  16.478  0.00  0.00    +0.000 S 
BRANCH   9  10
ATOM     10  C   UNL     1       5.585   5.612  16.659  0.00  0.00    +0.000 C 
BRANCH  10  11
ATOM     11  C   UNL     1       6.581   5.664  17.765  0.00  0.00    +0.000 A 
ATOM     12  N   UNL     1       6.775   4.605  18.559  0.00  0.00    +0.000 NA
ATOM     13  O   UNL     1       7.811   4.970  19.410  0.00  0.00    +0.000 OA
ATOM     14  N   UNL     1       8.250   6.259  19.140  0.00  0.00    +0.000 NA
ATOM     15  C   UNL     1       7.489   6.682  18.126  0.00  0.00    +0.000 A 
ATOM     16  C   UNL     1       7.710   8.023  17.546  0.00  0.00    +0.000 C 
ENDBRANCH  10  11
ENDBRANCH   9  10
ENDBRANCH   4   9
TORSDOF 4
ENDMDL
MODEL 4
REMARK VINA RESULT:      -6.4      1.958      2.581
REMARK  Name = 
REMARK  7 active torsions:
REMARK  status: ('A' for Active; 'I' for Inactive)
REMARK    1  A    between atoms: C_1  and  C_2
REMARK    2  A    between atoms: C_2  and  C_3
REMARK    3  A    between atoms: C_6  and  S_7
REMARK    4  A    between atoms: S_7  and  C_8
REMARK    5  A    between atoms: C_8  and  C_9
REMARK    6  A    between atoms: C_13  and  C_14
REMARK    7  A    between atoms: N_15  and  C_16
REMARK                            x       y       z     vdW  Elec       q    Type
REMARK                         _______ _______ _______ _____ _____    ______ ____
ROOT
ATOM      1  C   UNL     1       2.293   4.115  19.863  0.00  0.00    +0.000 A 
ATOM      2  N   UNL     1       2.101   5.414  19.751  0.00  0.00    +0.000 NA
ATOM      3  N   UNL     1       3.315   6.004  19.480  0.00  0.00    +0.000 NA
ATOM      4  C   UNL     1       4.215   5.054  19.427  0.00  0.00    +0.000 A 
ATOM      5  N   UNL     1       3.617   3.838  19.591  0.00  0.00    +0.000 N 
ATOM      6  C   UNL     1       4.207   2.526  19.549  0.00  0.00    +0.000 C 
ENDROOT
BRANCH   1   8
ATOM      7  C   UNL     1       0.628   2.461  19.079  0.00  0.00    +0.000 C 
ATOM      8  C   UNL     1       1.284   3.106  20.293  0.00  0.00    +0.000 C 
ENDBRANCH   1   8
BRANCH   4   9
ATOM      9  S   UNL     1       5.913   5.264  19.202  0.00  0.00    +0.000 S 
BRANCH   9  10
ATOM     10  C   UNL     1       5.962   6.388  17.776  0.00  0.00    +0.000 C 
BRANCH  10  11
ATOM     11  C   UNL     1       6.438   5.741  16.522  0.00  0.00    +0.000 A 
ATOM     12  N   UNL     1       7.575   6.138  15.938  0.00  0.00    +0.000 NA
ATOM     13  O   UNL     1       7.750   5.280  14.858  0.00  0.00    +0.000 OA
ATOM     14  N   UNL     1       6.716   4.359  14.778  0.00  0.00    +0.000 NA
ATOM     15  C   UNL     1       5.910   4.647  15.805  0.00  0.00    +0.000 A 
ATOM     16  C   UNL     1       4.705   3.827  16.050  0.00  0.00    +0.000 C 
ENDBRANCH  10  11
ENDBRANCH   9  10
ENDBRANCH   4   9
TORSDOF 4
ENDMDL
MODEL 5
REMARK VINA RESULT:      -6.3      1.461      1.658
REMARK  Name = 
REMARK  7 active torsions:
REMARK  status: ('A' for Active; 'I' for Inactive)
REMARK    1  A    between atoms: C_1  and  C_2
REMARK    2  A    between atoms: C_2  and  C_3
REMARK    3  A    between atoms: C_6  and  S_7
REMARK    4  A    between atoms: S_7  and  C_8
REMARK    5  A    between atoms: C_8  and  C_9
REMARK    6  A    between atoms: C_13  and  C_14
REMARK    7  A    between atoms: N_15  and  C_16
REMARK                            x       y       z     vdW  Elec       q    Type
REMARK                         _______ _______ _______ _____ _____    ______ ____
ROOT
ATOM      1  C   UNL     1       2.875   3.185  20.240  0.00  0.00    +0.000 A 
ATOM      2  N   UNL     1       3.822   2.269  20.271  0.00  0.00    +0.000 NA
ATOM      3  N   UNL     1       4.962   2.812  19.725  0.00  0.00    +0.000 NA
ATOM      4  C   UNL     1       4.688   4.046  19.381  0.00  0.00    +0.000 A 
ATOM      5  N   UNL     1       3.409   4.356  19.745  0.00  0.00    +0.000 N 
ATOM      6  C   UNL     1       2.709   5.607  19.613  0.00  0.00    +0.000 C 
ENDROOT
BRANCH   1   8
ATOM      7  C   UNL     1       0.626   2.667  19.349  0.00  0.00    +0.000 C 
ATOM      8  C   UNL     1       1.441   2.988  20.594  0.00  0.00    +0.000 C 
ENDBRANCH   1   8
BRANCH   4   9
ATOM      9  S   UNL     1       5.746   5.143  18.572  0.00  0.00    +0.000 S 
BRANCH   9  10
ATOM     10  C   UNL     1       5.125   5.068  16.867  0.00  0.00    +0.000 C 
BRANCH  10  11
ATOM     11  C   UNL     1       6.183   5.264  15.837  0.00  0.00    +0.000 A 
ATOM     12  N   UNL     1       7.285   5.968  16.117  0.00  0.00    +0.000 NA
ATOM     13  O   UNL     1       8.074   5.880  14.976  0.00  0.00    +0.000 OA
ATOM     14  N   UNL     1       7.452   5.123  13.994  0.00  0.00    +0.000 NA
ATOM     15  C   UNL     1       6.287   4.746  14.529  0.00  0.00    +0.000 A 
ATOM     16  C   UNL     1       5.366   3.882  13.760  0.00  0.00    +0.000 C 
ENDBRANCH  10  11
ENDBRANCH   9  10
ENDBRANCH   4   9
TORSDOF 4
ENDMDL
MODEL 6
REMARK VINA RESULT:      -6.3      2.858      3.762
REMARK  Name = 
REMARK  7 active torsions:
REMARK  status: ('A' for Active; 'I' for Inactive)
REMARK    1  A    between atoms: C_1  and  C_2
REMARK    2  A    between atoms: C_2  and  C_3
REMARK    3  A    between atoms: C_6  and  S_7
REMARK    4  A    between atoms: S_7  and  C_8
REMARK    5  A    between atoms: C_8  and  C_9
REMARK    6  A    between atoms: C_13  and  C_14
REMARK    7  A    between atoms: N_15  and  C_16
REMARK                            x       y       z     vdW  Elec       q    Type
REMARK                         _______ _______ _______ _____ _____    ______ ____
ROOT
ATOM      1  C   UNL     1       3.046   4.809  19.177  0.00  0.00    +0.000 A 
ATOM      2  N   UNL     1       3.117   6.041  18.713  0.00  0.00    +0.000 NA
ATOM      3  N   UNL     1       3.835   6.016  17.539  0.00  0.00    +0.000 NA
ATOM      4  C   UNL     1       4.179   4.773  17.311  0.00  0.00    +0.000 A 
ATOM      5  N   UNL     1       3.651   3.961  18.273  0.00  0.00    +0.000 N 
ATOM      6  C   UNL     1       3.726   2.528  18.389  0.00  0.00    +0.000 C 
ENDROOT
BRANCH   1   8
ATOM      7  C   UNL     1       0.994   4.124  20.376  0.00  0.00    +0.000 C 
ATOM      8  C   UNL     1       2.488   4.391  20.494  0.00  0.00    +0.000 C 
ENDBRANCH   1   8
BRANCH   4   9
ATOM      9  S   UNL     1       5.165   4.205  16.014  0.00  0.00    +0.000 S 
BRANCH   9  10
ATOM     10  C   UNL     1       6.532   5.401  16.035  0.00  0.00    +0.000 C 
BRANCH  10  11
ATOM     11  C   UNL     1       7.175   5.549  17.370  0.00  0.00    +0.000 A 
ATOM     12  N   UNL     1       7.443   4.474  18.121  0.00  0.00    +0.000 NA
ATOM     13  O   UNL     1       8.102   4.966  19.241  0.00  0.00    +0.000 OA
ATOM     14  N   UNL     1       8.234   6.346  19.178  0.00  0.00    +0.000 NA
ATOM     15  C   UNL     1       7.661   6.700  18.024  0.00  0.00    +0.000 A 
ATOM     16  C   UNL     1       7.652   8.119  17.609  0.00  0.00    +0.000 C 
ENDBRANCH  10  11
ENDBRANCH   9  10
ENDBRANCH   4   9
TORSDOF 4
ENDMDL
MODEL 7
REMARK VINA RESULT:      -6.2      2.865      3.704
REMARK  Name = 
REMARK  7 active torsions:
REMARK  status: ('A' for Active; 'I' for Inactive)
REMARK    1  A    between atoms: C_1  and  C_2
REMARK    2  A    between atoms: C_2  and  C_3
REMARK    3  A    between atoms: C_6  and  S_7
REMARK    4  A    between atoms: S_7  and  C_8
REMARK    5  A    between atoms: C_8  and  C_9
REMARK    6  A    between atoms: C_13  and  C_14
REMARK    7  A    between atoms: N_15  and  C_16
REMARK                            x       y       z     vdW  Elec       q    Type
REMARK                         _______ _______ _______ _____ _____    ______ ____
ROOT
ATOM      1  C   UNL     1       3.165   4.752  18.575  0.00  0.00    +0.000 A 
ATOM      2  N   UNL     1       3.487   3.502  18.313  0.00  0.00    +0.000 NA
ATOM      3  N   UNL     1       4.314   3.494  17.212  0.00  0.00    +0.000 NA
ATOM      4  C   UNL     1       4.481   4.736  16.833  0.00  0.00    +0.000 A 
ATOM      5  N   UNL     1       3.838   5.576  17.696  0.00  0.00    +0.000 N 
ATOM      6  C   UNL     1       3.798   7.015  17.698  0.00  0.00    +0.000 C 
ENDROOT
BRANCH   1   8
ATOM      7  C   UNL     1       1.425   4.033  20.179  0.00  0.00    +0.000 C 
ATOM      8  C   UNL     1       2.177   5.218  19.589  0.00  0.00    +0.000 C 
ENDBRANCH   1   8
BRANCH   4   9
ATOM      9  S   UNL     1       5.359   5.275  15.449  0.00  0.00    +0.000 S 
BRANCH   9  10
ATOM     10  C   UNL     1       7.069   4.883  15.918  0.00  0.00    +0.000 C 
BRANCH  10  11
ATOM     11  C   UNL     1       7.404   5.257  17.320  0.00  0.00    +0.000 A 
ATOM     12  N   UNL     1       7.662   4.315  18.235  0.00  0.00    +0.000 NA
ATOM     13  O   UNL     1       8.007   5.011  19.388  0.00  0.00    +0.000 OA
ATOM     14  N   UNL     1       7.956   6.381  19.180  0.00  0.00    +0.000 NA
ATOM     15  C   UNL     1       7.583   6.528  17.905  0.00  0.00    +0.000 A 
ATOM     16  C   UNL     1       7.460   7.881  17.322  0.00  0.00    +0.000 C 
ENDBRANCH  10  11
ENDBRANCH   9  10
ENDBRANCH   4   9
TORSDOF 4
ENDMDL
MODEL 8
REMARK VINA RESULT:      -6.2      2.697      3.608
REMARK  Name = 
REMARK  7 active torsions:
REMARK  status: ('A' for Active; 'I' for Inactive)
REMARK    1  A    between atoms: C_1  and  C_2
REMARK    2  A    between atoms: C_2  and  C_3
REMARK    3  A    between atoms: C_6  and  S_7
REMARK    4  A    between atoms: S_7  and  C_8
REMARK    5  A    between atoms: C_8  and  C_9
REMARK    6  A    between atoms: C_13  and  C_14
REMARK    7  A    between atoms: N_15  and  C_16
REMARK                            x       y       z     vdW  Elec       q    Type
REMARK                         _______ _______ _______ _____ _____    ______ ____
ROOT
ATOM      1  C   UNL     1       2.030   3.666  19.185  0.00  0.00    +0.000 A 
ATOM      2  N   UNL     1       1.919   2.670  18.329  0.00  0.00    +0.000 NA
ATOM      3  N   UNL     1       2.771   2.914  17.275  0.00  0.00    +0.000 NA
ATOM      4  C   UNL     1       3.385   4.046  17.515  0.00  0.00    +0.000 A 
ATOM      5  N   UNL     1       3.009   4.528  18.736  0.00  0.00    +0.000 N 
ATOM      6  C   UNL     1       3.469   5.706  19.425  0.00  0.00    +0.000 C 
ENDROOT
BRANCH   1   8
ATOM      7  C   UNL     1       1.582   2.913  21.499  0.00  0.00    +0.000 C 
ATOM      8  C   UNL     1       1.192   3.888  20.397  0.00  0.00    +0.000 C 
ENDBRANCH   1   8
BRANCH   4   9
ATOM      9  S   UNL     1       4.495   4.851  16.468  0.00  0.00    +0.000 S 
BRANCH   9  10
ATOM     10  C   UNL     1       6.077   4.557  17.309  0.00  0.00    +0.000 C 
BRANCH  10  11
ATOM     11  C   UNL     1       6.902   5.786  17.474  0.00  0.00    +0.000 A 
ATOM     12  N   UNL     1       6.944   6.715  16.512  0.00  0.00    +0.000 NA
ATOM     13  O   UNL     1       7.730   7.739  17.027  0.00  0.00    +0.000 OA
ATOM     14  N   UNL     1       8.174   7.435  18.305  0.00  0.00    +0.000 NA
ATOM     15  C   UNL     1       7.662   6.231  18.577  0.00  0.00    +0.000 A 
ATOM     16  C   UNL     1       7.907   5.603  19.892  0.00  0.00    +0.000 C 
ENDBRANCH  10  11
ENDBRANCH   9  10
ENDBRANCH   4   9
TORSDOF 4
ENDMDL
MODEL 9
REMARK VINA RESULT:      -6.2      3.420      6.973
REMARK  Name = 
REMARK  7 active torsions:
REMARK  status: ('A' for Active; 'I' for Inactive)
REMARK    1  A    between atoms: C_1  and  C_2
REMARK    2  A    between atoms: C_2  and  C_3
REMARK    3  A    between atoms: C_6  and  S_7
REMARK    4  A    between atoms: S_7  and  C_8
REMARK    5  A    between atoms: C_8  and  C_9
REMARK    6  A    between atoms: C_13  and  C_14
REMARK    7  A    between atoms: N_15  and  C_16
REMARK                            x       y       z     vdW  Elec       q    Type
REMARK                         _______ _______ _______ _____ _____    ______ ____
ROOT
ATOM      1  C   UNL     1       5.921   4.432  15.685  0.00  0.00    +0.000 A 
ATOM      2  N   UNL     1       4.638   4.143  15.595  0.00  0.00    +0.000 NA
ATOM      3  N   UNL     1       4.119   4.098  16.869  0.00  0.00    +0.000 NA
ATOM      4  C   UNL     1       5.092   4.365  17.704  0.00  0.00    +0.000 A 
ATOM      5  N   UNL     1       6.233   4.652  17.011  0.00  0.00    +0.000 N 
ATOM      6  C   UNL     1       7.521   5.051  17.514  0.00  0.00    +0.000 C 
ENDROOT
BRANCH   1   8
ATOM      7  C   UNL     1       6.282   3.863  13.305  0.00  0.00    +0.000 C 
ATOM      8  C   UNL     1       6.907   4.440  14.568  0.00  0.00    +0.000 C 
ENDBRANCH   1   8
BRANCH   4   9
ATOM      9  S   UNL     1       4.996   4.352  19.427  0.00  0.00    +0.000 S 
BRANCH   9  10
ATOM     10  C   UNL     1       4.346   2.687  19.749  0.00  0.00    +0.000 C 
BRANCH  10  11
ATOM     11  C   UNL     1       3.041   2.685  20.467  0.00  0.00    +0.000 A 
ATOM     12  N   UNL     1       2.990   2.480  21.788  0.00  0.00    +0.000 NA
ATOM     13  O   UNL     1       1.651   2.622  22.129  0.00  0.00    +0.000 OA
ATOM     14  N   UNL     1       0.878   2.911  21.013  0.00  0.00    +0.000 NA
ATOM     15  C   UNL     1       1.739   2.948  19.992  0.00  0.00    +0.000 A 
ATOM     16  C   UNL     1       1.259   3.270  18.632  0.00  0.00    +0.000 C 
ENDBRANCH  10  11
ENDBRANCH   9  10
ENDBRANCH   4   9
TORSDOF 4
ENDMDL
