MODEL 1
REMARK VINA RESULT:      -6.6      0.000      0.000
REMARK  Name = 
REMARK  11 active torsions:
REMARK  status: ('A' for Active; 'I' for Inactive)
REMARK    1  A    between atoms: C_1  and  C_2
REMARK    2  A    between atoms: C_2  and  O_3
REMARK    3  A    between atoms: O_3  and  C_4
REMARK    4  A    between atoms: C_4  and  C_6
REMARK    5  A    between atoms: C_6  and  C_7
REMARK    6  A    between atoms: C_7  and  C_8
REMARK    7  A    between atoms: C_8  and  C_9
REMARK    8  A    between atoms: C_9  and  C_10
REMARK    9  A    between atoms: C_10  and  N_11
REMARK   10  A    between atoms: N_18  and  C_19
REMARK   11  A    between atoms: N_22  and  C_23
REMARK                            x       y       z     vdW  Elec       q    Type
REMARK                         _______ _______ _______ _____ _____    ______ ____
ROOT
ATOM      1  N   UNL     1       4.483   4.825  16.829  0.00  0.00    +0.000 N 
ATOM      2  C   UNL     1       4.574   3.468  16.983  0.00  0.00    +0.000 A 
ATOM      3  N   UNL     1       3.890   3.048  18.031  0.00  0.00    +0.000 NA
ATOM      4  C   UNL     1       3.339   4.181  18.550  0.00  0.00    +0.000 A 
ATOM      5  C   UNL     1       3.685   5.293  17.841  0.00  0.00    +0.000 A 
ATOM      6  C   UNL     1       3.248   6.604  18.180  0.00  0.00    +0.000 A 
ATOM      7  O   UNL     1       3.583   7.603  17.550  0.00  0.00    +0.000 OA
ATOM      8  N   UNL     1       2.420   6.623  19.305  0.00  0.00    +0.000 N 
ATOM      9  C   UNL     1       1.905   7.901  19.756  0.00  0.00    +0.000 C 
ATOM     10  C   UNL     1       2.035   5.497  20.061  0.00  0.00    +0.000 A 
ATOM     11  O   UNL     1       1.304   5.617  21.049  0.00  0.00    +0.000 OA
ATOM     12  N   UNL     1       2.526   4.256  19.655  0.00  0.00    +0.000 N 
ATOM     13  C   UNL     1       2.177   3.055  20.388  0.00  0.00    +0.000 C 
ENDROOT
BRANCH   1  14
ATOM     14  C   UNL     1       5.062   5.591  15.752  0.00  0.00    +0.000 C 
BRANCH  14  15
ATOM     15  C   UNL     1       6.577   5.417  15.659  0.00  0.00    +0.000 C 
BRANCH  15  16
ATOM     16  C   UNL     1       6.968   4.310  14.675  0.00  0.00    +0.000 C 
BRANCH  16  17
ATOM     17  C   UNL     1       6.054   4.298  13.448  0.00  0.00    +0.000 C 
BRANCH  17  18
ATOM     18  C   UNL     1       6.577   3.389  12.359  0.00  0.00    +0.000 C 
BRANCH  18  19
ATOM     19  C   UNL     1       5.437   2.721  11.642  0.00  0.00    +0.000 C 
ATOM     20  O   UNL     1       5.441   1.551  11.289  0.00  0.00    +0.000 OA
BRANCH  19  21
ATOM     21  O   UNL     1       4.451   3.625  11.395  0.00  0.00    +0.000 OA
BRANCH  21  23
ATOM     22  C   UNL     1       2.941   4.223   9.661  0.00  0.00    +0.000 C 
ATOM     23  C   UNL     1       3.360   3.120  10.616  0.00  0.00    +0.000 C 
ENDBRANCH  21  23
ENDBRANCH  19  21
ENDBRANCH  18  19
ENDBRANCH  17  18
ENDBRANCH  16  17
ENDBRANCH  15  16
ENDBRANCH  14  15
ENDBRANCH   1  14
TORSDOF 8
ENDMDL
MODEL 2
REMARK VINA RESULT:      -6.6      1.358      2.453
REMARK  Name = 
REMARK  11 active torsions:
REMARK  status: ('A' for Active; 'I' for Inactive)
REMARK    1  A    between atoms: C_1  and  C_2
REMARK    2  A    between atoms: C_2  and  O_3
REMARK    3  A    between atoms: O_3  and  C_4
REMARK    4  A    between atoms: C_4  and  C_6
REMARK    5  A    between atoms: C_6  and  C_7
REMARK    6  A    between atoms: C_7  and  C_8
REMARK    7  A    between atoms: C_8  and  C_9
REMARK    8  A    between atoms: C_9  and  C_10
REMARK    9  A    between atoms: C_10  and  N_11
REMARK   10  A    between atoms: N_18  and  C_19
REMARK   11  A    between atoms: N_22  and  C_23
REMARK                            x       y       z     vdW  Elec       q    Type
REMARK                         _______ _______ _______ _____ _____    ______ ____
ROOT
ATOM      1  N   UNL     1       5.222   5.336  17.309  0.00  0.00    +0.000 N 
ATOM      2  C   UNL     1       5.128   6.646  16.923  0.00  0.00    +0.000 A 
ATOM      3  N   UNL     1       4.185   7.285  17.590  0.00  0.00    +0.000 NA
ATOM      4  C   UNL     1       3.674   6.346  18.434  0.00  0.00    +0.000 A 
ATOM      5  C   UNL     1       4.283   5.135  18.287  0.00  0.00    +0.000 A 
ATOM      6  C   UNL     1       3.929   3.984  19.044  0.00  0.00    +0.000 A 
ATOM      7  O   UNL     1       4.466   2.891  18.889  0.00  0.00    +0.000 OA
ATOM      8  N   UNL     1       2.903   4.234  19.960  0.00  0.00    +0.000 N 
ATOM      9  C   UNL     1       2.448   3.141  20.796  0.00  0.00    +0.000 C 
ATOM     10  C   UNL     1       2.253   5.471  20.146  0.00  0.00    +0.000 A 
ATOM     11  O   UNL     1       1.347   5.591  20.977  0.00  0.00    +0.000 OA
ATOM     12  N   UNL     1       2.663   6.537  19.346  0.00  0.00    +0.000 N 
ATOM     13  C   UNL     1       2.035   7.836  19.478  0.00  0.00    +0.000 C 
ENDROOT
BRANCH   1  14
ATOM     14  C   UNL     1       6.188   4.382  16.820  0.00  0.00    +0.000 C 
BRANCH  14  15
ATOM     15  C   UNL     1       5.695   3.629  15.585  0.00  0.00    +0.000 C 
BRANCH  15  16
ATOM     16  C   UNL     1       5.886   4.443  14.303  0.00  0.00    +0.000 C 
BRANCH  16  17
ATOM     17  C   UNL     1       6.981   3.848  13.415  0.00  0.00    +0.000 C 
BRANCH  17  18
ATOM     18  C   UNL     1       6.591   3.846  11.954  0.00  0.00    +0.000 C 
BRANCH  18  19
ATOM     19  C   UNL     1       5.511   2.831  11.703  0.00  0.00    +0.000 C 
ATOM     20  O   UNL     1       5.720   1.641  11.515  0.00  0.00    +0.000 OA
BRANCH  19  21
ATOM     21  O   UNL     1       4.299   3.445  11.651  0.00  0.00    +0.000 OA
BRANCH  21  23
ATOM     22  C   UNL     1       3.030   4.208   9.793  0.00  0.00    +0.000 C 
ATOM     23  C   UNL     1       3.443   2.988  10.597  0.00  0.00    +0.000 C 
ENDBRANCH  21  23
ENDBRANCH  19  21
ENDBRANCH  18  19
ENDBRANCH  17  18
ENDBRANCH  16  17
ENDBRANCH  15  16
ENDBRANCH  14  15
ENDBRANCH   1  14
TORSDOF 8
ENDMDL
MODEL 3
REMARK VINA RESULT:      -6.5      3.027      6.635
REMARK  Name = 
REMARK  11 active torsions:
REMARK  status: ('A' for Active; 'I' for Inactive)
REMARK    1  A    between atoms: C_1  and  C_2
REMARK    2  A    between atoms: C_2  and  O_3
REMARK    3  A    between atoms: O_3  and  C_4
REMARK    4  A    between atoms: C_4  and  C_6
REMARK    5  A    between atoms: C_6  and  C_7
REMARK    6  A    between atoms: C_7  and  C_8
REMARK    7  A    between atoms: C_8  and  C_9
REMARK    8  A    between atoms: C_9  and  C_10
REMARK    9  A    between atoms: C_10  and  N_11
REMARK   10  A    between atoms: N_18  and  C_19
REMARK   11  A    between atoms: N_22  and  C_23
REMARK                            x       y       z     vdW  Elec       q    Type
REMARK                         _______ _______ _______ _____ _____    ______ ____
ROOT
ATOM      1  N   UNL     1       4.452   3.202  18.956  0.00  0.00    +0.000 N 
ATOM      2  C   UNL     1       3.822   2.505  17.959  0.00  0.00    +0.000 A 
ATOM      3  N   UNL     1       4.233   2.885  16.764  0.00  0.00    +0.000 NA
ATOM      4  C   UNL     1       5.162   3.848  17.015  0.00  0.00    +0.000 A 
ATOM      5  C   UNL     1       5.321   4.074  18.351  0.00  0.00    +0.000 A 
ATOM      6  C   UNL     1       6.225   5.036  18.880  0.00  0.00    +0.000 A 
ATOM      7  O   UNL     1       6.345   5.250  20.083  0.00  0.00    +0.000 OA
ATOM      8  N   UNL     1       6.939   5.711  17.885  0.00  0.00    +0.000 N 
ATOM      9  C   UNL     1       7.896   6.720  18.293  0.00  0.00    +0.000 C 
ATOM     10  C   UNL     1       6.808   5.503  16.497  0.00  0.00    +0.000 A 
ATOM     11  O   UNL     1       7.478   6.158  15.694  0.00  0.00    +0.000 OA
ATOM     12  N   UNL     1       5.885   4.546  16.078  0.00  0.00    +0.000 N 
ATOM     13  C   UNL     1       5.693   4.283  14.665  0.00  0.00    +0.000 C 
ENDROOT
BRANCH   1  14
ATOM     14  C   UNL     1       4.276   2.990  20.372  0.00  0.00    +0.000 C 
BRANCH  14  15
ATOM     15  C   UNL     1       2.991   2.230  20.695  0.00  0.00    +0.000 C 
BRANCH  15  16
ATOM     16  C   UNL     1       2.012   3.078  21.510  0.00  0.00    +0.000 C 
BRANCH  16  17
ATOM     17  C   UNL     1       2.244   4.574  21.291  0.00  0.00    +0.000 C 
BRANCH  17  18
ATOM     18  C   UNL     1       1.240   5.171  20.329  0.00  0.00    +0.000 C 
BRANCH  18  19
ATOM     19  C   UNL     1       1.918   5.571  19.049  0.00  0.00    +0.000 C 
ATOM     20  O   UNL     1       1.761   4.996  17.981  0.00  0.00    +0.000 OA
BRANCH  19  21
ATOM     21  O   UNL     1       2.767   6.609  19.277  0.00  0.00    +0.000 OA
BRANCH  21  23
ATOM     22  C   UNL     1       2.350   8.435  17.816  0.00  0.00    +0.000 C 
ATOM     23  C   UNL     1       2.155   7.903  19.224  0.00  0.00    +0.000 C 
ENDBRANCH  21  23
ENDBRANCH  19  21
ENDBRANCH  18  19
ENDBRANCH  17  18
ENDBRANCH  16  17
ENDBRANCH  15  16
ENDBRANCH  14  15
ENDBRANCH   1  14
TORSDOF 8
ENDMDL
MODEL 4
REMARK VINA RESULT:      -6.4      3.100      6.460
REMARK  Name = 
REMARK  11 active torsions:
REMARK  status: ('A' for Active; 'I' for Inactive)
REMARK    1  A    between atoms: C_1  and  C_2
REMARK    2  A    between atoms: C_2  and  O_3
REMARK    3  A    between atoms: O_3  and  C_4
REMARK    4  A    between atoms: C_4  and  C_6
REMARK    5  A    between atoms: C_6  and  C_7
REMARK    6  A    between atoms: C_7  and  C_8
REMARK    7  A    between atoms: C_8  and  C_9
REMARK    8  A    between atoms: C_9  and  C_10
REMARK    9  A    between atoms: C_10  and  N_11
REMARK   10  A    between atoms: N_18  and  C_19
REMARK   11  A    between atoms: N_22  and  C_23
REMARK                            x       y       z     vdW  Elec       q    Type
REMARK                         _______ _______ _______ _____ _____    ______ ____
ROOT
ATOM      1  N   UNL     1       4.319   3.249  18.782  0.00  0.00    +0.000 N 
ATOM      2  C   UNL     1       3.683   2.699  17.701  0.00  0.00    +0.000 A 
ATOM      3  N   UNL     1       4.167   3.162  16.564  0.00  0.00    +0.000 NA
ATOM      4  C   UNL     1       5.149   4.027  16.940  0.00  0.00    +0.000 A 
ATOM      5  C   UNL     1       5.269   4.110  18.297  0.00  0.00    +0.000 A 
ATOM      6  C   UNL     1       6.214   4.949  18.948  0.00  0.00    +0.000 A 
ATOM      7  O   UNL     1       6.300   5.037  20.170  0.00  0.00    +0.000 OA
ATOM      8  N   UNL     1       7.012   5.664  18.050  0.00  0.00    +0.000 N 
ATOM      9  C   UNL     1       8.019   6.557  18.588  0.00  0.00    +0.000 C 
ATOM     10  C   UNL     1       6.923   5.601  16.645  0.00  0.00    +0.000 A 
ATOM     11  O   UNL     1       7.669   6.281  15.933  0.00  0.00    +0.000 OA
ATOM     12  N   UNL     1       5.955   4.758  16.101  0.00  0.00    +0.000 N 
ATOM     13  C   UNL     1       5.802   4.648  14.664  0.00  0.00    +0.000 C 
ENDROOT
BRANCH   1  14
ATOM     14  C   UNL     1       4.072   2.914  20.164  0.00  0.00    +0.000 C 
BRANCH  14  15
ATOM     15  C   UNL     1       2.824   3.599  20.719  0.00  0.00    +0.000 C 
BRANCH  15  16
ATOM     16  C   UNL     1       2.790   5.092  20.382  0.00  0.00    +0.000 C 
BRANCH  16  17
ATOM     17  C   UNL     1       1.599   5.442  19.488  0.00  0.00    +0.000 C 
BRANCH  17  18
ATOM     18  C   UNL     1       2.032   5.846  18.096  0.00  0.00    +0.000 C 
BRANCH  18  19
ATOM     19  C   UNL     1       2.780   7.149  18.139  0.00  0.00    +0.000 C 
ATOM     20  O   UNL     1       3.931   7.292  17.753  0.00  0.00    +0.000 OA
BRANCH  19  21
ATOM     21  O   UNL     1       2.012   8.106  18.727  0.00  0.00    +0.000 OA
BRANCH  21  23
ATOM     22  C   UNL     1       0.436   9.757  18.071  0.00  0.00    +0.000 C 
ATOM     23  C   UNL     1       1.885   9.317  17.972  0.00  0.00    +0.000 C 
ENDBRANCH  21  23
ENDBRANCH  19  21
ENDBRANCH  18  19
ENDBRANCH  17  18
ENDBRANCH  16  17
ENDBRANCH  15  16
ENDBRANCH  14  15
ENDBRANCH   1  14
TORSDOF 8
ENDMDL
MODEL 5
REMARK VINA RESULT:      -6.4      2.914      7.028
REMARK  Name = 
REMARK  11 active torsions:
REMARK  status: ('A' for Active; 'I' for Inactive)
REMARK    1  A    between atoms: C_1  and  C_2
REMARK    2  A    between atoms: C_2  and  O_3
REMARK    3  A    between atoms: O_3  and  C_4
REMARK    4  A    between atoms: C_4  and  C_6
REMARK    5  A    between atoms: C_6  and  C_7
REMARK    6  A    between atoms: C_7  and  C_8
REMARK    7  A    between atoms: C_8  and  C_9
REMARK    8  A    between atoms: C_9  and  C_10
REMARK    9  A    between atoms: C_10  and  N_11
REMARK   10  A    between atoms: N_18  and  C_19
REMARK   11  A    between atoms: N_22  and  C_23
REMARK                            x       y       z     vdW  Elec       q    Type
REMARK                         _______ _______ _______ _____ _____    ______ ____
ROOT
ATOM      1  N   UNL     1       3.967   3.301  18.730  0.00  0.00    +0.000 N 
ATOM      2  C   UNL     1       3.306   2.723  17.679  0.00  0.00    +0.000 A 
ATOM      3  N   UNL     1       3.809   3.102  16.519  0.00  0.00    +0.000 NA
ATOM      4  C   UNL     1       4.829   3.941  16.851  0.00  0.00    +0.000 A 
ATOM      5  C   UNL     1       4.954   4.091  18.201  0.00  0.00    +0.000 A 
ATOM      6  C   UNL     1       5.937   4.921  18.808  0.00  0.00    +0.000 A 
ATOM      7  O   UNL     1       6.028   5.069  20.023  0.00  0.00    +0.000 OA
ATOM      8  N   UNL     1       6.765   5.549  17.874  0.00  0.00    +0.000 N 
ATOM      9  C   UNL     1       7.811   6.424  18.364  0.00  0.00    +0.000 C 
ATOM     10  C   UNL     1       6.672   5.416  16.474  0.00  0.00    +0.000 A 
ATOM     11  O   UNL     1       7.447   6.023  15.727  0.00  0.00    +0.000 OA
ATOM     12  N   UNL     1       5.666   4.589  15.975  0.00  0.00    +0.000 N 
ATOM     13  C   UNL     1       5.507   4.409  14.545  0.00  0.00    +0.000 C 
ENDROOT
BRANCH   1  14
ATOM     14  C   UNL     1       3.706   3.051  20.127  0.00  0.00    +0.000 C 
BRANCH  14  15
ATOM     15  C   UNL     1       2.214   2.933  20.433  0.00  0.00    +0.000 C 
BRANCH  15  16
ATOM     16  C   UNL     1       1.427   4.144  19.925  0.00  0.00    +0.000 C 
BRANCH  16  17
ATOM     17  C   UNL     1       1.935   5.448  20.542  0.00  0.00    +0.000 C 
BRANCH  17  18
ATOM     18  C   UNL     1       2.395   6.433  19.492  0.00  0.00    +0.000 C 
BRANCH  18  19
ATOM     19  C   UNL     1       1.940   7.822  19.842  0.00  0.00    +0.000 C 
ATOM     20  O   UNL     1       1.366   8.113  20.882  0.00  0.00    +0.000 OA
BRANCH  19  21
ATOM     21  O   UNL     1       2.203   8.671  18.813  0.00  0.00    +0.000 OA
BRANCH  21  23
ATOM     22  C   UNL     1       1.374  10.891  18.638  0.00  0.00    +0.000 C 
ATOM     23  C   UNL     1       1.074   9.429  18.361  0.00  0.00    +0.000 C 
ENDBRANCH  21  23
ENDBRANCH  19  21
ENDBRANCH  18  19
ENDBRANCH  17  18
ENDBRANCH  16  17
ENDBRANCH  15  16
ENDBRANCH  14  15
ENDBRANCH   1  14
TORSDOF 8
ENDMDL
MODEL 6
REMARK VINA RESULT:      -6.4      4.413      6.565
REMARK  Name = 
REMARK  11 active torsions:
REMARK  status: ('A' for Active; 'I' for Inactive)
REMARK    1  A    between atoms: C_1  and  C_2
REMARK    2  A    between atoms: C_2  and  O_3
REMARK    3  A    between atoms: O_3  and  C_4
REMARK    4  A    between atoms: C_4  and  C_6
REMARK    5  A    between atoms: C_6  and  C_7
REMARK    6  A    between atoms: C_7  and  C_8
REMARK    7  A    between atoms: C_8  and  C_9
REMARK    8  A    between atoms: C_9  and  C_10
REMARK    9  A    between atoms: C_10  and  N_11
REMARK   10  A    between atoms: N_18  and  C_19
REMARK   11  A    between atoms: N_22  and  C_23
REMARK                            x       y       z     vdW  Elec       q    Type
REMARK                         _______ _______ _______ _____ _____    ______ ____
ROOT
ATOM      1  N   UNL     1       2.116   7.801  18.689  0.00  0.00    +0.000 N 
ATOM      2  C   UNL     1       2.340   8.557  17.569  0.00  0.00    +0.000 A 
ATOM      3  N   UNL     1       1.993   9.817  17.754  0.00  0.00    +0.000 NA
ATOM      4  C   UNL     1       1.545   9.859  19.040  0.00  0.00    +0.000 A 
ATOM      5  C   UNL     1       1.602   8.638  19.645  0.00  0.00    +0.000 A 
ATOM      6  C   UNL     1       1.184   8.410  20.985  0.00  0.00    +0.000 A 
ATOM      7  O   UNL     1       1.216   7.303  21.516  0.00  0.00    +0.000 OA
ATOM      8  N   UNL     1       0.726   9.571  21.614  0.00  0.00    +0.000 N 
ATOM      9  C   UNL     1       0.271   9.474  22.987  0.00  0.00    +0.000 C 
ATOM     10  C   UNL     1       0.658  10.850  21.026  0.00  0.00    +0.000 A 
ATOM     11  O   UNL     1       0.227  11.817  21.662  0.00  0.00    +0.000 OA
ATOM     12  N   UNL     1       1.079  10.969  19.702  0.00  0.00    +0.000 N 
ATOM     13  C   UNL     1       1.031  12.253  19.030  0.00  0.00    +0.000 C 
ENDROOT
BRANCH   1  14
ATOM     14  C   UNL     1       2.441   6.403  18.840  0.00  0.00    +0.000 C 
BRANCH  14  15
ATOM     15  C   UNL     1       3.924   6.118  18.612  0.00  0.00    +0.000 C 
BRANCH  15  16
ATOM     16  C   UNL     1       4.237   4.621  18.674  0.00  0.00    +0.000 C 
BRANCH  16  17
ATOM     17  C   UNL     1       3.791   3.897  17.402  0.00  0.00    +0.000 C 
BRANCH  17  18
ATOM     18  C   UNL     1       3.117   2.578  17.705  0.00  0.00    +0.000 C 
BRANCH  18  19
ATOM     19  C   UNL     1       1.729   2.810  18.234  0.00  0.00    +0.000 C 
ATOM     20  O   UNL     1       0.911   3.553  17.710  0.00  0.00    +0.000 OA
BRANCH  19  21
ATOM     21  O   UNL     1       1.556   2.130  19.399  0.00  0.00    +0.000 OA
BRANCH  21  23
ATOM     22  C   UNL     1       2.329   2.854  21.526  0.00  0.00    +0.000 C 
ATOM     23  C   UNL     1       1.197   2.947  20.520  0.00  0.00    +0.000 C 
ENDBRANCH  21  23
ENDBRANCH  19  21
ENDBRANCH  18  19
ENDBRANCH  17  18
ENDBRANCH  16  17
ENDBRANCH  15  16
ENDBRANCH  14  15
ENDBRANCH   1  14
TORSDOF 8
ENDMDL
MODEL 7
REMARK VINA RESULT:      -6.4      4.732      6.790
REMARK  Name = 
REMARK  11 active torsions:
REMARK  status: ('A' for Active; 'I' for Inactive)
REMARK    1  A    between atoms: C_1  and  C_2
REMARK    2  A    between atoms: C_2  and  O_3
REMARK    3  A    between atoms: O_3  and  C_4
REMARK    4  A    between atoms: C_4  and  C_6
REMARK    5  A    between atoms: C_6  and  C_7
REMARK    6  A    between atoms: C_7  and  C_8
REMARK    7  A    between atoms: C_8  and  C_9
REMARK    8  A    between atoms: C_9  and  C_10
REMARK    9  A    between atoms: C_10  and  N_11
REMARK   10  A    between atoms: N_18  and  C_19
REMARK   11  A    between atoms: N_22  and  C_23
REMARK                            x       y       z     vdW  Elec       q    Type
REMARK                         _______ _______ _______ _____ _____    ______ ____
ROOT
ATOM      1  N   UNL     1       2.191   7.637  18.664  0.00  0.00    +0.000 N 
ATOM      2  C   UNL     1       2.421   8.371  17.531  0.00  0.00    +0.000 A 
ATOM      3  N   UNL     1       2.074   9.634  17.689  0.00  0.00    +0.000 NA
ATOM      4  C   UNL     1       1.619   9.702  18.971  0.00  0.00    +0.000 A 
ATOM      5  C   UNL     1       1.672   8.493  19.600  0.00  0.00    +0.000 A 
ATOM      6  C   UNL     1       1.247   8.291  20.943  0.00  0.00    +0.000 A 
ATOM      7  O   UNL     1       1.275   7.194  21.495  0.00  0.00    +0.000 OA
ATOM      8  N   UNL     1       0.786   9.464  21.546  0.00  0.00    +0.000 N 
ATOM      9  C   UNL     1       0.324   9.394  22.918  0.00  0.00    +0.000 C 
ATOM     10  C   UNL     1       0.722  10.732  20.933  0.00  0.00    +0.000 A 
ATOM     11  O   UNL     1       0.288  11.711  21.548  0.00  0.00    +0.000 OA
ATOM     12  N   UNL     1       1.150  10.825  19.609  0.00  0.00    +0.000 N 
ATOM     13  C   UNL     1       1.106  12.095  18.912  0.00  0.00    +0.000 C 
ENDROOT
BRANCH   1  14
ATOM     14  C   UNL     1       2.514   6.242  18.843  0.00  0.00    +0.000 C 
BRANCH  14  15
ATOM     15  C   UNL     1       2.015   5.372  17.690  0.00  0.00    +0.000 C 
BRANCH  15  16
ATOM     16  C   UNL     1       1.778   3.924  18.125  0.00  0.00    +0.000 C 
BRANCH  16  17
ATOM     17  C   UNL     1       2.822   2.978  17.528  0.00  0.00    +0.000 C 
BRANCH  17  18
ATOM     18  C   UNL     1       3.336   1.984  18.545  0.00  0.00    +0.000 C 
BRANCH  18  19
ATOM     19  C   UNL     1       4.083   2.695  19.639  0.00  0.00    +0.000 C 
ATOM     20  O   UNL     1       5.051   3.418  19.450  0.00  0.00    +0.000 OA
BRANCH  19  21
ATOM     21  O   UNL     1       3.564   2.358  20.851  0.00  0.00    +0.000 OA
BRANCH  21  23
ATOM     22  C   UNL     1       1.332   2.637  21.613  0.00  0.00    +0.000 C 
ATOM     23  C   UNL     1       2.668   3.327  21.407  0.00  0.00    +0.000 C 
ENDBRANCH  21  23
ENDBRANCH  19  21
ENDBRANCH  18  19
ENDBRANCH  17  18
ENDBRANCH  16  17
ENDBRANCH  15  16
ENDBRANCH  14  15
ENDBRANCH   1  14
TORSDOF 8
ENDMDL
MODEL 8
REMARK VINA RESULT:      -6.4      4.760      6.748
REMARK  Name = 
REMARK  11 active torsions:
REMARK  status: ('A' for Active; 'I' for Inactive)
REMARK    1  A    between atoms: C_1  and  C_2
REMARK    2  A    between atoms: C_2  and  O_3
REMARK    3  A    between atoms: O_3  and  C_4
REMARK    4  A    between atoms: C_4  and  C_6
REMARK    5  A    between atoms: C_6  and  C_7
REMARK    6  A    between atoms: C_7  and  C_8
REMARK    7  A    between atoms: C_8  and  C_9
REMARK    8  A    between atoms: C_9  and  C_10
REMARK    9  A    between atoms: C_10  and  N_11
REMARK   10  A    between atoms: N_18  and  C_19
REMARK   11  A    between atoms: N_22  and  C_23
REMARK                            x       y       z     vdW  Elec       q    Type
REMARK                         _______ _______ _______ _____ _____    ______ ____
ROOT
ATOM      1  N   UNL     1       2.223   7.955  18.751  0.00  0.00    +0.000 N 
ATOM      2  C   UNL     1       2.404   8.683  17.605  0.00  0.00    +0.000 A 
ATOM      3  N   UNL     1       1.819   9.863  17.680  0.00  0.00    +0.000 NA
ATOM      4  C   UNL     1       1.259   9.885  18.921  0.00  0.00    +0.000 A 
ATOM      5  C   UNL     1       1.483   8.728  19.607  0.00  0.00    +0.000 A 
ATOM      6  C   UNL     1       0.996   8.492  20.923  0.00  0.00    +0.000 A 
ATOM      7  O   UNL     1       1.182   7.438  21.525  0.00  0.00    +0.000 OA
ATOM      8  N   UNL     1       0.281   9.577  21.437  0.00  0.00    +0.000 N 
ATOM      9  C   UNL     1      -0.269   9.465  22.774  0.00  0.00    +0.000 C 
ATOM     10  C   UNL     1       0.033  10.790  20.764  0.00  0.00    +0.000 A 
ATOM     11  O   UNL     1      -0.621  11.690  21.300  0.00  0.00    +0.000 OA
ATOM     12  N   UNL     1       0.541  10.920  19.472  0.00  0.00    +0.000 N 
ATOM     13  C   UNL     1       0.320  12.137  18.716  0.00  0.00    +0.000 C 
ENDROOT
BRANCH   1  14
ATOM     14  C   UNL     1       2.782   6.651  19.017  0.00  0.00    +0.000 C 
BRANCH  14  15
ATOM     15  C   UNL     1       2.371   5.614  17.973  0.00  0.00    +0.000 C 
BRANCH  15  16
ATOM     16  C   UNL     1       3.575   4.840  17.429  0.00  0.00    +0.000 C 
BRANCH  16  17
ATOM     17  C   UNL     1       4.378   4.182  18.552  0.00  0.00    +0.000 C 
BRANCH  17  18
ATOM     18  C   UNL     1       4.013   2.726  18.733  0.00  0.00    +0.000 C 
BRANCH  18  19
ATOM     19  C   UNL     1       4.210   2.312  20.165  0.00  0.00    +0.000 C 
ATOM     20  O   UNL     1       5.212   1.750  20.585  0.00  0.00    +0.000 OA
BRANCH  19  21
ATOM     21  O   UNL     1       3.092   2.592  20.887  0.00  0.00    +0.000 OA
BRANCH  21  23
ATOM     22  C   UNL     1       0.991   3.655  20.573  0.00  0.00    +0.000 C 
ATOM     23  C   UNL     1       1.866   2.487  20.155  0.00  0.00    +0.000 C 
ENDBRANCH  21  23
ENDBRANCH  19  21
ENDBRANCH  18  19
ENDBRANCH  17  18
ENDBRANCH  16  17
ENDBRANCH  15  16
ENDBRANCH  14  15
ENDBRANCH   1  14
TORSDOF 8
ENDMDL
MODEL 9
REMARK VINA RESULT:      -6.4      4.953      7.244
REMARK  Name = 
REMARK  11 active torsions:
REMARK  status: ('A' for Active; 'I' for Inactive)
REMARK    1  A    between atoms: C_1  and  C_2
REMARK    2  A    between atoms: C_2  and  O_3
REMARK    3  A    between atoms: O_3  and  C_4
REMARK    4  A    between atoms: C_4  and  C_6
REMARK    5  A    between atoms: C_6  and  C_7
REMARK    6  A    between atoms: C_7  and  C_8
REMARK    7  A    between atoms: C_8  and  C_9
REMARK    8  A    between atoms: C_9  and  C_10
REMARK    9  A    between atoms: C_10  and  N_11
REMARK   10  A    between atoms: N_18  and  C_19
REMARK   11  A    between atoms: N_22  and  C_23
REMARK                            x       y       z     vdW  Elec       q    Type
REMARK                         _______ _______ _______ _____ _____    ______ ____
ROOT
ATOM      1  N   UNL     1       1.703   8.572  19.298  0.00  0.00    +0.000 N 
ATOM      2  C   UNL     1       2.020   9.104  18.077  0.00  0.00    +0.000 A 
ATOM      3  N   UNL     1       1.532  10.322  17.935  0.00  0.00    +0.000 NA
ATOM      4  C   UNL     1       0.894  10.571  19.112  0.00  0.00    +0.000 A 
ATOM      5  C   UNL     1       0.974   9.516  19.973  0.00  0.00    +0.000 A 
ATOM      6  C   UNL     1       0.383   9.516  21.267  0.00  0.00    +0.000 A 
ATOM      7  O   UNL     1       0.440   8.553  22.028  0.00  0.00    +0.000 OA
ATOM      8  N   UNL     1      -0.272  10.714  21.562  0.00  0.00    +0.000 N 
ATOM      9  C   UNL     1      -0.917  10.844  22.854  0.00  0.00    +0.000 C 
ATOM     10  C   UNL     1      -0.372  11.828  20.703  0.00  0.00    +0.000 A 
ATOM     11  O   UNL     1      -0.984  12.843  21.051  0.00  0.00    +0.000 OA
ATOM     12  N   UNL     1       0.230  11.725  19.450  0.00  0.00    +0.000 N 
ATOM     13  C   UNL     1       0.162  12.828  18.512  0.00  0.00    +0.000 C 
ENDROOT
BRANCH   1  14
ATOM     14  C   UNL     1       2.133   7.285  19.792  0.00  0.00    +0.000 C 
BRANCH  14  15
ATOM     15  C   UNL     1       3.011   6.537  18.791  0.00  0.00    +0.000 C 
BRANCH  15  16
ATOM     16  C   UNL     1       2.254   5.399  18.102  0.00  0.00    +0.000 C 
BRANCH  16  17
ATOM     17  C   UNL     1       3.154   4.185  17.864  0.00  0.00    +0.000 C 
BRANCH  17  18
ATOM     18  C   UNL     1       2.366   2.969  17.432  0.00  0.00    +0.000 C 
BRANCH  18  19
ATOM     19  C   UNL     1       1.502   2.478  18.559  0.00  0.00    +0.000 C 
ATOM     20  O   UNL     1       0.289   2.340  18.483  0.00  0.00    +0.000 OA
BRANCH  19  21
ATOM     21  O   UNL     1       2.257   2.282  19.673  0.00  0.00    +0.000 OA
BRANCH  21  23
ATOM     22  C   UNL     1       2.136   3.890  21.417  0.00  0.00    +0.000 C 
ATOM     23  C   UNL     1       1.588   2.569  20.906  0.00  0.00    +0.000 C 
ENDBRANCH  21  23
ENDBRANCH  19  21
ENDBRANCH  18  19
ENDBRANCH  17  18
ENDBRANCH  16  17
ENDBRANCH  15  16
ENDBRANCH  14  15
ENDBRANCH   1  14
TORSDOF 8
ENDMDL
