MODEL 1
REMARK VINA RESULT:      -7.4      0.000      0.000
REMARK  Name = 
REMARK  3 active torsions:
REMARK  status: ('A' for Active; 'I' for Inactive)
REMARK    1  A    between atoms: C_2  and  C_16
REMARK    2  A    between atoms: N_3  and  C_4
REMARK    3  A    between atoms: C_7  and  C_8
REMARK                            x       y       z     vdW  Elec       q    Type
REMARK                         _______ _______ _______ _____ _____    ______ ____
ROOT
ATOM      1  C   UNL     1       1.626   7.809  20.047  0.00  0.00    +0.000 A 
ATOM      2  C   UNL     1       1.717   6.648  20.797  0.00  0.00    +0.000 A 
ATOM      3  C   UNL     1       2.490   5.582  20.357  0.00  0.00    +0.000 A 
ATOM      4  C   UNL     1       3.203   5.639  19.156  0.00  0.00    +0.000 A 
ATOM      5  C   UNL     1       3.099   6.810  18.390  0.00  0.00    +0.000 A 
ATOM      6  C   UNL     1       2.311   7.885  18.829  0.00  0.00    +0.000 A 
ENDROOT
BRANCH   4   7
ATOM      7  C   UNL     1       4.049   4.466  18.671  0.00  0.00    +0.000 C 
ATOM      8  C   UNL     1       3.700   4.062  17.230  0.00  0.00    +0.000 C 
ATOM      9  C   UNL     1       2.416   3.237  17.152  0.00  0.00    +0.000 C 
ATOM     10  C   UNL     1       2.400   2.074  18.146  0.00  0.00    +0.000 C 
ATOM     11  N   UNL     1       2.742   2.468  19.506  0.00  0.00    +0.000 NA
ATOM     12  C   UNL     1       4.002   3.215  19.584  0.00  0.00    +0.000 C 
ATOM     13  H   UNL     1       2.770   1.659  20.123  0.00  0.00    +0.000 HD
ENDBRANCH   4   7
BRANCH   1  16
ATOM     14  O   UNL     1       1.828   9.361  22.530  0.00  0.00    +0.000 OA
ATOM     15  C   UNL     1       0.999   9.591  21.656  0.00  0.00    +0.000 C 
ATOM     16  N   UNL     1       0.857   8.911  20.461  0.00  0.00    +0.000 N 
ATOM     17  H   UNL     1       0.213   9.286  19.775  0.00  0.00    +0.000 HD
BRANCH  15  18
ATOM     18  C   UNL     1       0.053  10.710  21.914  0.00  0.00    +0.000 A 
ATOM     19  C   UNL     1      -0.913  10.463  22.907  0.00  0.00    +0.000 A 
ATOM     20  C   UNL     1      -1.824  11.456  23.282  0.00  0.00    +0.000 A 
ATOM     21  C   UNL     1      -1.766  12.697  22.659  0.00  0.00    +0.000 A 
ATOM     22 CL   UNL     1      -2.861  13.937  23.130  0.00  0.00    +0.000 Cl
ATOM     23  C   UNL     1      -0.820  12.956  21.671  0.00  0.00    +0.000 A 
ATOM     24  C   UNL     1       0.093  11.964  21.295  0.00  0.00    +0.000 A 
ATOM     25 CL   UNL     1       1.249  12.411  20.086  0.00  0.00    +0.000 Cl
ENDBRANCH  15  18
ENDBRANCH   1  16
TORSDOF 3
ENDMDL
MODEL 2
REMARK VINA RESULT:      -7.3      2.340      3.167
REMARK  Name = 
REMARK  3 active torsions:
REMARK  status: ('A' for Active; 'I' for Inactive)
REMARK    1  A    between atoms: C_2  and  C_16
REMARK    2  A    between atoms: N_3  and  C_4
REMARK    3  A    between atoms: C_7  and  C_8
REMARK                            x       y       z     vdW  Elec       q    Type
REMARK                         _______ _______ _______ _____ _____    ______ ____
ROOT
ATOM      1  C   UNL     1       1.737   8.111  19.529  0.00  0.00    +0.000 A 
ATOM      2  C   UNL     1       2.235   8.506  18.298  0.00  0.00    +0.000 A 
ATOM      3  C   UNL     1       3.126   7.697  17.604  0.00  0.00    +0.000 A 
ATOM      4  C   UNL     1       3.548   6.466  18.113  0.00  0.00    +0.000 A 
ATOM      5  C   UNL     1       3.054   6.073  19.366  0.00  0.00    +0.000 A 
ATOM      6  C   UNL     1       2.160   6.892  20.072  0.00  0.00    +0.000 A 
ENDROOT
BRANCH   4   7
ATOM      7  C   UNL     1       4.529   5.580  17.352  0.00  0.00    +0.000 C 
ATOM      8  C   UNL     1       5.412   4.754  18.301  0.00  0.00    +0.000 C 
ATOM      9  C   UNL     1       6.546   5.581  18.907  0.00  0.00    +0.000 C 
ATOM     10  C   UNL     1       7.329   6.370  17.856  0.00  0.00    +0.000 C 
ATOM     11  N   UNL     1       6.480   7.140  16.957  0.00  0.00    +0.000 NA
ATOM     12  C   UNL     1       5.425   6.332  16.336  0.00  0.00    +0.000 C 
ATOM     13  H   UNL     1       7.035   7.608  16.244  0.00  0.00    +0.000 HD
ENDBRANCH   4   7
BRANCH   1  16
ATOM     14  O   UNL     1       1.352  11.020  19.446  0.00  0.00    +0.000 OA
ATOM     15  C   UNL     1       0.709  10.274  20.179  0.00  0.00    +0.000 C 
ATOM     16  N   UNL     1       0.830   8.900  20.258  0.00  0.00    +0.000 N 
ATOM     17  H   UNL     1       0.149   8.395  20.814  0.00  0.00    +0.000 HD
BRANCH  15  18
ATOM     18  C   UNL     1      -0.294  10.918  21.069  0.00  0.00    +0.000 A 
ATOM     19  C   UNL     1      -1.112  11.884  20.452  0.00  0.00    +0.000 A 
ATOM     20  C   UNL     1      -2.130  12.520  21.168  0.00  0.00    +0.000 A 
ATOM     21  C   UNL     1      -2.328  12.189  22.504  0.00  0.00    +0.000 A 
ATOM     22 CL   UNL     1      -3.595  12.942  23.388  0.00  0.00    +0.000 Cl
ATOM     23  C   UNL     1      -1.524  11.240  23.129  0.00  0.00    +0.000 A 
ATOM     24  C   UNL     1      -0.504  10.601  22.415  0.00  0.00    +0.000 A 
ATOM     25 CL   UNL     1       0.405   9.411  23.283  0.00  0.00    +0.000 Cl
ENDBRANCH  15  18
ENDBRANCH   1  16
TORSDOF 3
ENDMDL
MODEL 3
REMARK VINA RESULT:      -7.3      1.841      2.461
REMARK  Name = 
REMARK  3 active torsions:
REMARK  status: ('A' for Active; 'I' for Inactive)
REMARK    1  A    between atoms: C_2  and  C_16
REMARK    2  A    between atoms: N_3  and  C_4
REMARK    3  A    between atoms: C_7  and  C_8
REMARK                            x       y       z     vdW  Elec       q    Type
REMARK                         _______ _______ _______ _____ _____    ______ ____
ROOT
ATOM      1  C   UNL     1       1.756   8.372  19.501  0.00  0.00    +0.000 A 
ATOM      2  C   UNL     1       2.049   7.179  20.140  0.00  0.00    +0.000 A 
ATOM      3  C   UNL     1       2.871   6.237  19.536  0.00  0.00    +0.000 A 
ATOM      4  C   UNL     1       3.433   6.455  18.275  0.00  0.00    +0.000 A 
ATOM      5  C   UNL     1       3.125   7.658  17.622  0.00  0.00    +0.000 A 
ATOM      6  C   UNL     1       2.287   8.607  18.227  0.00  0.00    +0.000 A 
ENDROOT
BRANCH   4   7
ATOM      7  C   UNL     1       4.333   5.419  17.610  0.00  0.00    +0.000 C 
ATOM      8  C   UNL     1       5.323   4.794  18.606  0.00  0.00    +0.000 C 
ATOM      9  C   UNL     1       6.509   5.713  18.901  0.00  0.00    +0.000 C 
ATOM     10  C   UNL     1       7.164   6.259  17.631  0.00  0.00    +0.000 C 
ATOM     11  N   UNL     1       6.213   6.838  16.691  0.00  0.00    +0.000 NA
ATOM     12  C   UNL     1       5.105   5.934  16.369  0.00  0.00    +0.000 C 
ATOM     13  H   UNL     1       6.682   7.142  15.840  0.00  0.00    +0.000 HD
ENDBRANCH   4   7
BRANCH   1  16
ATOM     14  O   UNL     1       1.843   9.468  22.222  0.00  0.00    +0.000 OA
ATOM     15  C   UNL     1       1.020   9.815  21.381  0.00  0.00    +0.000 C 
ATOM     16  N   UNL     1       0.931   9.352  20.082  0.00  0.00    +0.000 N 
ATOM     17  H   UNL     1       0.284   9.816  19.456  0.00  0.00    +0.000 HD
BRANCH  15  18
ATOM     18  C   UNL     1       0.021  10.832  21.807  0.00  0.00    +0.000 A 
ATOM     19  C   UNL     1      -0.857  10.420  22.827  0.00  0.00    +0.000 A 
ATOM     20  C   UNL     1      -1.805  11.303  23.353  0.00  0.00    +0.000 A 
ATOM     21  C   UNL     1      -1.872  12.600  22.857  0.00  0.00    +0.000 A 
ATOM     22 CL   UNL     1      -3.013  13.704  23.515  0.00  0.00    +0.000 Cl
ATOM     23  C   UNL     1      -1.014  13.020  21.844  0.00  0.00    +0.000 A 
ATOM     24  C   UNL     1      -0.064  12.139  21.316  0.00  0.00    +0.000 A 
ATOM     25 CL   UNL     1       0.975  12.784  20.091  0.00  0.00    +0.000 Cl
ENDBRANCH  15  18
ENDBRANCH   1  16
TORSDOF 3
ENDMDL
MODEL 4
REMARK VINA RESULT:      -7.3      2.307      3.035
REMARK  Name = 
REMARK  3 active torsions:
REMARK  status: ('A' for Active; 'I' for Inactive)
REMARK    1  A    between atoms: C_2  and  C_16
REMARK    2  A    between atoms: N_3  and  C_4
REMARK    3  A    between atoms: C_7  and  C_8
REMARK                            x       y       z     vdW  Elec       q    Type
REMARK                         _______ _______ _______ _____ _____    ______ ____
ROOT
ATOM      1  C   UNL     1       1.788   8.093  19.375  0.00  0.00    +0.000 A 
ATOM      2  C   UNL     1       2.300   8.463  18.142  0.00  0.00    +0.000 A 
ATOM      3  C   UNL     1       3.230   7.660  17.494  0.00  0.00    +0.000 A 
ATOM      4  C   UNL     1       3.677   6.459  18.052  0.00  0.00    +0.000 A 
ATOM      5  C   UNL     1       3.168   6.092  19.307  0.00  0.00    +0.000 A 
ATOM      6  C   UNL     1       2.235   6.906  19.967  0.00  0.00    +0.000 A 
ENDROOT
BRANCH   4   7
ATOM      7  C   UNL     1       4.700   5.580  17.341  0.00  0.00    +0.000 C 
ATOM      8  C   UNL     1       5.563   4.784  18.334  0.00  0.00    +0.000 C 
ATOM      9  C   UNL     1       6.660   5.641  18.967  0.00  0.00    +0.000 C 
ATOM     10  C   UNL     1       7.466   6.428  17.932  0.00  0.00    +0.000 C 
ATOM     11  N   UNL     1       6.636   7.169  16.991  0.00  0.00    +0.000 NA
ATOM     12  C   UNL     1       5.619   6.332  16.346  0.00  0.00    +0.000 C 
ATOM     13  H   UNL     1       7.209   7.636  16.291  0.00  0.00    +0.000 HD
ENDBRANCH   4   7
BRANCH   1  16
ATOM     14  O   UNL     1       1.436  11.007  19.327  0.00  0.00    +0.000 OA
ATOM     15  C   UNL     1       0.740  10.254  20.000  0.00  0.00    +0.000 C 
ATOM     16  N   UNL     1       0.842   8.877  20.060  0.00  0.00    +0.000 N 
ATOM     17  H   UNL     1       0.121   8.368  20.558  0.00  0.00    +0.000 HD
BRANCH  15  18
ATOM     18  C   UNL     1      -0.314  10.891  20.836  0.00  0.00    +0.000 A 
ATOM     19  C   UNL     1      -0.303  10.527  22.196  0.00  0.00    +0.000 A 
ATOM     20  C   UNL     1      -1.207  11.101  23.095  0.00  0.00    +0.000 A 
ATOM     21  C   UNL     1      -2.122  12.038  22.632  0.00  0.00    +0.000 A 
ATOM     22 CL   UNL     1      -3.220  12.772  23.733  0.00  0.00    +0.000 Cl
ATOM     23  C   UNL     1      -2.149  12.404  21.289  0.00  0.00    +0.000 A 
ATOM     24  C   UNL     1      -1.245  11.833  20.385  0.00  0.00    +0.000 A 
ATOM     25 CL   UNL     1      -1.343  12.393  18.751  0.00  0.00    +0.000 Cl
ENDBRANCH  15  18
ENDBRANCH   1  16
TORSDOF 3
ENDMDL
MODEL 5
REMARK VINA RESULT:      -7.2      0.334      1.054
REMARK  Name = 
REMARK  3 active torsions:
REMARK  status: ('A' for Active; 'I' for Inactive)
REMARK    1  A    between atoms: C_2  and  C_16
REMARK    2  A    between atoms: N_3  and  C_4
REMARK    3  A    between atoms: C_7  and  C_8
REMARK                            x       y       z     vdW  Elec       q    Type
REMARK                         _______ _______ _______ _____ _____    ______ ____
ROOT
ATOM      1  C   UNL     1       1.708   7.865  19.810  0.00  0.00    +0.000 A 
ATOM      2  C   UNL     1       2.442   7.953  18.639  0.00  0.00    +0.000 A 
ATOM      3  C   UNL     1       3.183   6.869  18.187  0.00  0.00    +0.000 A 
ATOM      4  C   UNL     1       3.215   5.659  18.886  0.00  0.00    +0.000 A 
ATOM      5  C   UNL     1       2.482   5.576  20.080  0.00  0.00    +0.000 A 
ATOM      6  C   UNL     1       1.739   6.673  20.542  0.00  0.00    +0.000 A 
ENDROOT
BRANCH   4   7
ATOM      7  C   UNL     1       4.032   4.471  18.391  0.00  0.00    +0.000 C 
ATOM      8  C   UNL     1       3.355   3.761  17.208  0.00  0.00    +0.000 C 
ATOM      9  C   UNL     1       2.207   2.855  17.652  0.00  0.00    +0.000 C 
ATOM     10  C   UNL     1       2.603   1.919  18.797  0.00  0.00    +0.000 C 
ATOM     11  N   UNL     1       3.252   2.603  19.907  0.00  0.00    +0.000 NA
ATOM     12  C   UNL     1       4.386   3.430  19.483  0.00  0.00    +0.000 C 
ATOM     13  H   UNL     1       3.543   1.940  20.622  0.00  0.00    +0.000 HD
ENDBRANCH   4   7
BRANCH   1  16
ATOM     14  O   UNL     1       1.925   9.260  22.384  0.00  0.00    +0.000 OA
ATOM     15  C   UNL     1       1.091   9.544  21.530  0.00  0.00    +0.000 C 
ATOM     16  N   UNL     1       0.942   8.940  20.297  0.00  0.00    +0.000 N 
ATOM     17  H   UNL     1       0.294   9.357  19.639  0.00  0.00    +0.000 HD
BRANCH  15  18
ATOM     18  C   UNL     1       0.147  10.645  21.863  0.00  0.00    +0.000 A 
ATOM     19  C   UNL     1      -0.820  10.334  22.837  0.00  0.00    +0.000 A 
ATOM     20  C   UNL     1      -1.728  11.302  23.277  0.00  0.00    +0.000 A 
ATOM     21  C   UNL     1      -1.668  12.582  22.740  0.00  0.00    +0.000 A 
ATOM     22 CL   UNL     1      -2.760  13.789  23.292  0.00  0.00    +0.000 Cl
ATOM     23  C   UNL     1      -0.720  12.904  21.771  0.00  0.00    +0.000 A 
ATOM     24  C   UNL     1       0.191  11.938  21.330  0.00  0.00    +0.000 A 
ATOM     25 CL   UNL     1       1.348  12.462  20.155  0.00  0.00    +0.000 Cl
ENDBRANCH  15  18
ENDBRANCH   1  16
TORSDOF 3
ENDMDL
MODEL 6
REMARK VINA RESULT:      -7.2      2.349      3.023
REMARK  Name = 
REMARK  3 active torsions:
REMARK  status: ('A' for Active; 'I' for Inactive)
REMARK    1  A    between atoms: C_2  and  C_16
REMARK    2  A    between atoms: N_3  and  C_4
REMARK    3  A    between atoms: C_7  and  C_8
REMARK                            x       y       z     vdW  Elec       q    Type
REMARK                         _______ _______ _______ _____ _____    ______ ____
ROOT
ATOM      1  C   UNL     1       1.685   8.096  19.578  0.00  0.00    +0.000 A 
ATOM      2  C   UNL     1       2.177   6.907  20.091  0.00  0.00    +0.000 A 
ATOM      3  C   UNL     1       3.073   6.139  19.359  0.00  0.00    +0.000 A 
ATOM      4  C   UNL     1       3.513   6.533  18.093  0.00  0.00    +0.000 A 
ATOM      5  C   UNL     1       3.004   7.731  17.568  0.00  0.00    +0.000 A 
ATOM      6  C   UNL     1       2.091   8.503  18.303  0.00  0.00    +0.000 A 
ENDROOT
BRANCH   4   7
ATOM      7  C   UNL     1       4.495   5.688  17.288  0.00  0.00    +0.000 C 
ATOM      8  C   UNL     1       5.372   4.809  18.194  0.00  0.00    +0.000 C 
ATOM      9  C   UNL     1       6.505   5.597  18.849  0.00  0.00    +0.000 C 
ATOM     10  C   UNL     1       7.295   6.441  17.846  0.00  0.00    +0.000 C 
ATOM     11  N   UNL     1       6.451   7.262  16.988  0.00  0.00    +0.000 NA
ATOM     12  C   UNL     1       5.397   6.493  16.319  0.00  0.00    +0.000 C 
ATOM     13  H   UNL     1       7.011   7.768  16.304  0.00  0.00    +0.000 HD
ENDBRANCH   4   7
BRANCH   1  16
ATOM     14  O   UNL     1       1.398  11.017  19.538  0.00  0.00    +0.000 OA
ATOM     15  C   UNL     1       0.706  10.280  20.233  0.00  0.00    +0.000 C 
ATOM     16  N   UNL     1       0.779   8.902  20.291  0.00  0.00    +0.000 N 
ATOM     17  H   UNL     1       0.063   8.410  20.813  0.00  0.00    +0.000 HD
BRANCH  15  18
ATOM     18  C   UNL     1      -0.305  10.942  21.100  0.00  0.00    +0.000 A 
ATOM     19  C   UNL     1      -1.097  11.916  20.464  0.00  0.00    +0.000 A 
ATOM     20  C   UNL     1      -2.121  12.569  21.157  0.00  0.00    +0.000 A 
ATOM     21  C   UNL     1      -2.351  12.246  22.489  0.00  0.00    +0.000 A 
ATOM     22 CL   UNL     1      -3.625  13.020  23.344  0.00  0.00    +0.000 Cl
ATOM     23  C   UNL     1      -1.573  11.288  23.134  0.00  0.00    +0.000 A 
ATOM     24  C   UNL     1      -0.548  10.632  22.443  0.00  0.00    +0.000 A 
ATOM     25 CL   UNL     1       0.326   9.433  23.334  0.00  0.00    +0.000 Cl
ENDBRANCH  15  18
ENDBRANCH   1  16
TORSDOF 3
ENDMDL
MODEL 7
REMARK VINA RESULT:      -7.2      1.386      1.868
REMARK  Name = 
REMARK  3 active torsions:
REMARK  status: ('A' for Active; 'I' for Inactive)
REMARK    1  A    between atoms: C_2  and  C_16
REMARK    2  A    between atoms: N_3  and  C_4
REMARK    3  A    between atoms: C_7  and  C_8
REMARK                            x       y       z     vdW  Elec       q    Type
REMARK                         _______ _______ _______ _____ _____    ______ ____
ROOT
ATOM      1  C   UNL     1       1.910   7.818  19.668  0.00  0.00    +0.000 A 
ATOM      2  C   UNL     1       2.534   7.956  18.439  0.00  0.00    +0.000 A 
ATOM      3  C   UNL     1       3.061   6.849  17.787  0.00  0.00    +0.000 A 
ATOM      4  C   UNL     1       2.981   5.566  18.336  0.00  0.00    +0.000 A 
ATOM      5  C   UNL     1       2.361   5.429  19.587  0.00  0.00    +0.000 A 
ATOM      6  C   UNL     1       1.835   6.548  20.252  0.00  0.00    +0.000 A 
ENDROOT
BRANCH   4   7
ATOM      7  C   UNL     1       3.563   4.352  17.621  0.00  0.00    +0.000 C 
ATOM      8  C   UNL     1       2.637   3.129  17.718  0.00  0.00    +0.000 C 
ATOM      9  C   UNL     1       2.729   2.438  19.079  0.00  0.00    +0.000 C 
ATOM     10  C   UNL     1       4.172   2.162  19.506  0.00  0.00    +0.000 C 
ATOM     11  N   UNL     1       5.040   3.327  19.399  0.00  0.00    +0.000 NA
ATOM     12  C   UNL     1       4.991   3.957  18.075  0.00  0.00    +0.000 C 
ATOM     13  H   UNL     1       6.000   3.089  19.643  0.00  0.00    +0.000 HD
ENDBRANCH   4   7
BRANCH   1  16
ATOM     14  O   UNL     1      -0.031   9.802  18.714  0.00  0.00    +0.000 OA
ATOM     15  C   UNL     1       0.455   9.820  19.840  0.00  0.00    +0.000 C 
ATOM     16  N   UNL     1       1.360   8.914  20.357  0.00  0.00    +0.000 N 
ATOM     17  H   UNL     1       1.583   8.975  21.343  0.00  0.00    +0.000 HD
BRANCH  15  18
ATOM     18  C   UNL     1       0.027  10.933  20.731  0.00  0.00    +0.000 A 
ATOM     19  C   UNL     1      -0.648  10.539  21.902  0.00  0.00    +0.000 A 
ATOM     20  C   UNL     1      -1.051  11.486  22.847  0.00  0.00    +0.000 A 
ATOM     21  C   UNL     1      -0.779  12.830  22.619  0.00  0.00    +0.000 A 
ATOM     22 CL   UNL     1      -1.243  14.003  23.787  0.00  0.00    +0.000 Cl
ATOM     23  C   UNL     1      -0.117  13.236  21.463  0.00  0.00    +0.000 A 
ATOM     24  C   UNL     1       0.289  12.290  20.515  0.00  0.00    +0.000 A 
ATOM     25 CL   UNL     1       1.138  12.905  19.138  0.00  0.00    +0.000 Cl
ENDBRANCH  15  18
ENDBRANCH   1  16
TORSDOF 3
ENDMDL
MODEL 8
REMARK VINA RESULT:      -7.2      1.376      1.574
REMARK  Name = 
REMARK  3 active torsions:
REMARK  status: ('A' for Active; 'I' for Inactive)
REMARK    1  A    between atoms: C_2  and  C_16
REMARK    2  A    between atoms: N_3  and  C_4
REMARK    3  A    between atoms: C_7  and  C_8
REMARK                            x       y       z     vdW  Elec       q    Type
REMARK                         _______ _______ _______ _____ _____    ______ ____
ROOT
ATOM      1  C   UNL     1       1.888   7.749  19.772  0.00  0.00    +0.000 A 
ATOM      2  C   UNL     1       1.754   6.464  20.273  0.00  0.00    +0.000 A 
ATOM      3  C   UNL     1       2.285   5.380  19.588  0.00  0.00    +0.000 A 
ATOM      4  C   UNL     1       2.973   5.539  18.382  0.00  0.00    +0.000 A 
ATOM      5  C   UNL     1       3.096   6.839  17.867  0.00  0.00    +0.000 A 
ATOM      6  C   UNL     1       2.552   7.935  18.554  0.00  0.00    +0.000 A 
ENDROOT
BRANCH   4   7
ATOM      7  C   UNL     1       3.553   4.347  17.628  0.00  0.00    +0.000 C 
ATOM      8  C   UNL     1       2.649   3.109  17.727  0.00  0.00    +0.000 C 
ATOM      9  C   UNL     1       2.787   2.394  19.071  0.00  0.00    +0.000 C 
ATOM     10  C   UNL     1       4.245   2.133  19.455  0.00  0.00    +0.000 C 
ATOM     11  N   UNL     1       5.093   3.313  19.346  0.00  0.00    +0.000 NA
ATOM     12  C   UNL     1       4.998   3.966  18.037  0.00  0.00    +0.000 C 
ATOM     13  H   UNL     1       6.062   3.085  19.560  0.00  0.00    +0.000 HD
ENDBRANCH   4   7
BRANCH   1  16
ATOM     14  O   UNL     1       0.005   9.769  18.776  0.00  0.00    +0.000 OA
ATOM     15  C   UNL     1       0.489   9.794  19.904  0.00  0.00    +0.000 C 
ATOM     16  N   UNL     1       1.367   8.872  20.439  0.00  0.00    +0.000 N 
ATOM     17  H   UNL     1       1.589   8.944  21.425  0.00  0.00    +0.000 HD
BRANCH  15  18
ATOM     18  C   UNL     1       0.089  10.933  20.773  0.00  0.00    +0.000 A 
ATOM     19  C   UNL     1      -0.804  10.611  21.812  0.00  0.00    +0.000 A 
ATOM     20  C   UNL     1      -1.211  11.583  22.731  0.00  0.00    +0.000 A 
ATOM     21  C   UNL     1      -0.722  12.879  22.609  0.00  0.00    +0.000 A 
ATOM     22 CL   UNL     1      -1.190  14.076  23.750  0.00  0.00    +0.000 Cl
ATOM     23  C   UNL     1       0.159  13.214  21.584  0.00  0.00    +0.000 A 
ATOM     24  C   UNL     1       0.569  12.243  20.662  0.00  0.00    +0.000 A 
ATOM     25 CL   UNL     1       1.695  12.764  19.457  0.00  0.00    +0.000 Cl
ENDBRANCH  15  18
ENDBRANCH   1  16
TORSDOF 3
ENDMDL
MODEL 9
REMARK VINA RESULT:      -7.2      1.618      2.429
REMARK  Name = 
REMARK  3 active torsions:
REMARK  status: ('A' for Active; 'I' for Inactive)
REMARK    1  A    between atoms: C_2  and  C_16
REMARK    2  A    between atoms: N_3  and  C_4
REMARK    3  A    between atoms: C_7  and  C_8
REMARK                            x       y       z     vdW  Elec       q    Type
REMARK                         _______ _______ _______ _____ _____    ______ ____
ROOT
ATOM      1  C   UNL     1       1.623   8.361  19.623  0.00  0.00    +0.000 A 
ATOM      2  C   UNL     1       2.250   8.514  18.397  0.00  0.00    +0.000 A 
ATOM      3  C   UNL     1       3.000   7.478  17.853  0.00  0.00    +0.000 A 
ATOM      4  C   UNL     1       3.146   6.254  18.512  0.00  0.00    +0.000 A 
ATOM      5  C   UNL     1       2.522   6.105  19.760  0.00  0.00    +0.000 A 
ATOM      6  C   UNL     1       1.771   7.153  20.314  0.00  0.00    +0.000 A 
ENDROOT
BRANCH   4   7
ATOM      7  C   UNL     1       3.971   5.119  17.916  0.00  0.00    +0.000 C 
ATOM      8  C   UNL     1       4.884   4.461  18.963  0.00  0.00    +0.000 C 
ATOM      9  C   UNL     1       6.134   5.291  19.248  0.00  0.00    +0.000 C 
ATOM     10  C   UNL     1       6.861   5.724  17.973  0.00  0.00    +0.000 C 
ATOM     11  N   UNL     1       5.983   6.337  16.985  0.00  0.00    +0.000 NA
ATOM     12  C   UNL     1       4.810   5.513  16.674  0.00  0.00    +0.000 C 
ATOM     13  H   UNL     1       6.494   6.563  16.135  0.00  0.00    +0.000 HD
ENDBRANCH   4   7
BRANCH   1  16
ATOM     14  O   UNL     1       1.785   9.470  22.336  0.00  0.00    +0.000 OA
ATOM     15  C   UNL     1       0.975   9.852  21.498  0.00  0.00    +0.000 C 
ATOM     16  N   UNL     1       0.853   9.384  20.203  0.00  0.00    +0.000 N 
ATOM     17  H   UNL     1       0.226   9.876  19.578  0.00  0.00    +0.000 HD
BRANCH  15  18
ATOM     18  C   UNL     1       0.031  10.921  21.923  0.00  0.00    +0.000 A 
ATOM     19  C   UNL     1      -0.971  10.513  22.824  0.00  0.00    +0.000 A 
ATOM     20  C   UNL     1      -1.884  11.436  23.342  0.00  0.00    +0.000 A 
ATOM     21  C   UNL     1      -1.794  12.769  22.956  0.00  0.00    +0.000 A 
ATOM     22 CL   UNL     1      -2.892  13.919  23.608  0.00  0.00    +0.000 Cl
ATOM     23  C   UNL     1      -0.811  13.186  22.062  0.00  0.00    +0.000 A 
ATOM     24  C   UNL     1       0.105  12.265  21.543  0.00  0.00    +0.000 A 
ATOM     25 CL   UNL     1       1.306  12.904  20.473  0.00  0.00    +0.000 Cl
ENDBRANCH  15  18
ENDBRANCH   1  16
TORSDOF 3
ENDMDL
