MODEL 1
REMARK VINA RESULT:      -7.8      0.000      0.000
REMARK  Name = 
REMARK  8 active torsions:
REMARK  status: ('A' for Active; 'I' for Inactive)
REMARK    1  A    between atoms: C_1  and  S_2
REMARK    2  A    between atoms: S_2  and  C_3
REMARK    3  A    between atoms: C_6  and  C_7
REMARK    4  A    between atoms: C_8  and  S_9
REMARK    5  A    between atoms: S_9  and  N_12
REMARK    6  A    between atoms: N_12  and  C_13
REMARK    7  A    between atoms: C_19  and  S_20
REMARK    8  A    between atoms: S_20  and  N_21
REMARK                            x       y       z     vdW  Elec       q    Type
REMARK                         _______ _______ _______ _____ _____    ______ ____
ROOT
ATOM      1  N   UNL     1       4.762   3.377  17.314  0.00  0.00    +0.000 N 
ATOM      2  H   UNL     1       4.557   3.403  16.304  0.00  0.00    +0.000 HD
ENDROOT
BRANCH   1   3
ATOM      3  C   UNL     1       5.728   4.374  17.719  0.00  0.00    +0.000 A 
ATOM      4  C   UNL     1       6.039   4.425  19.086  0.00  0.00    +0.000 A 
ATOM      5  C   UNL     1       6.930   5.381  19.586  0.00  0.00    +0.000 A 
ATOM      6  C   UNL     1       7.536   6.285  18.721  0.00  0.00    +0.000 A 
ATOM      7  C   UNL     1       7.233   6.245  17.365  0.00  0.00    +0.000 A 
ATOM      8  F   UNL     1       7.831   7.145  16.573  0.00  0.00    +0.000 F 
ATOM      9  C   UNL     1       6.313   5.322  16.862  0.00  0.00    +0.000 A 
BRANCH   9  10
ATOM     10  S   UNL     1       5.920   5.429  15.159  0.00  0.00    +0.000 S 
ATOM     11  O   UNL     1       5.256   4.233  14.708  0.00  0.00    +0.000 OA
ATOM     12  O   UNL     1       5.346   6.734  14.908  0.00  0.00    +0.000 OA
BRANCH  10  13
ATOM     13  N   UNL     1       7.446   5.427  14.464  0.00  0.00    +0.000 NA
ATOM     14  H   UNL     1       7.397   5.578  13.456  0.00  0.00    +0.000 HD
ATOM     15  H   UNL     1       8.099   6.028  14.965  0.00  0.00    +0.000 HD
ENDBRANCH  10  13
ENDBRANCH   9  10
ENDBRANCH   1   3
BRANCH   1  16
ATOM     16  S   UNL     1       3.225   3.437  18.085  0.00  0.00    +0.000 S 
ATOM     17  O   UNL     1       3.488   3.175  19.482  0.00  0.00    +0.000 OA
ATOM     18  O   UNL     1       2.310   2.599  17.345  0.00  0.00    +0.000 OA
BRANCH  16  20
ATOM     19  C   UNL     1       2.636   5.842  19.071  0.00  0.00    +0.000 C 
ATOM     20  C   UNL     1       2.724   5.096  17.958  0.00  0.00    +0.000 C 
BRANCH  19  24
ATOM     21  C   UNL     1       1.380   9.945  19.021  0.00  0.00    +0.000 A 
ATOM     22  C   UNL     1       1.987   9.360  17.909  0.00  0.00    +0.000 A 
ATOM     23  C   UNL     1       2.398   8.024  17.948  0.00  0.00    +0.000 A 
ATOM     24  C   UNL     1       2.233   7.255  19.107  0.00  0.00    +0.000 A 
ATOM     25  C   UNL     1       1.645   7.855  20.227  0.00  0.00    +0.000 A 
ATOM     26  C   UNL     1       1.230   9.193  20.189  0.00  0.00    +0.000 A 
BRANCH  21  28
ATOM     27  C   UNL     1       0.208  11.781  20.681  0.00  0.00    +0.000 C 
ATOM     28  S   UNL     1       0.780  11.622  18.966  0.00  0.00    +0.000 S 
ENDBRANCH  21  28
ENDBRANCH  19  24
ENDBRANCH  16  20
ENDBRANCH   1  16
TORSDOF 7
ENDMDL
MODEL 2
REMARK VINA RESULT:      -7.7      4.306      6.234
REMARK  Name = 
REMARK  8 active torsions:
REMARK  status: ('A' for Active; 'I' for Inactive)
REMARK    1  A    between atoms: C_1  and  S_2
REMARK    2  A    between atoms: S_2  and  C_3
REMARK    3  A    between atoms: C_6  and  C_7
REMARK    4  A    between atoms: C_8  and  S_9
REMARK    5  A    between atoms: S_9  and  N_12
REMARK    6  A    between atoms: N_12  and  C_13
REMARK    7  A    between atoms: C_19  and  S_20
REMARK    8  A    between atoms: S_20  and  N_21
REMARK                            x       y       z     vdW  Elec       q    Type
REMARK                         _______ _______ _______ _____ _____    ______ ____
ROOT
ATOM      1  N   UNL     1       5.228   6.442  16.496  0.00  0.00    +0.000 N 
ATOM      2  H   UNL     1       5.250   5.672  15.811  0.00  0.00    +0.000 HD
ENDROOT
BRANCH   1   3
ATOM      3  C   UNL     1       4.117   6.346  17.416  0.00  0.00    +0.000 A 
ATOM      4  C   UNL     1       3.579   7.557  17.876  0.00  0.00    +0.000 A 
ATOM      5  C   UNL     1       2.530   7.574  18.801  0.00  0.00    +0.000 A 
ATOM      6  C   UNL     1       1.992   6.377  19.262  0.00  0.00    +0.000 A 
ATOM      7  C   UNL     1       2.518   5.172  18.815  0.00  0.00    +0.000 A 
ATOM      8  F   UNL     1       1.977   4.046  19.298  0.00  0.00    +0.000 F 
ATOM      9  C   UNL     1       3.594   5.144  17.924  0.00  0.00    +0.000 A 
BRANCH   9  10
ATOM     10  S   UNL     1       4.253   3.575  17.510  0.00  0.00    +0.000 S 
ATOM     11  O   UNL     1       3.247   2.550  17.617  0.00  0.00    +0.000 OA
ATOM     12  O   UNL     1       5.039   3.720  16.303  0.00  0.00    +0.000 OA
BRANCH  10  13
ATOM     13  N   UNL     1       5.334   3.328  18.767  0.00  0.00    +0.000 NA
ATOM     14  H   UNL     1       6.072   4.033  18.769  0.00  0.00    +0.000 HD
ATOM     15  H   UNL     1       4.863   3.187  19.660  0.00  0.00    +0.000 HD
ENDBRANCH  10  13
ENDBRANCH   9  10
ENDBRANCH   1   3
BRANCH   1  16
ATOM     16  S   UNL     1       6.802   6.469  17.191  0.00  0.00    +0.000 S 
ATOM     17  O   UNL     1       7.680   5.946  16.168  0.00  0.00    +0.000 OA
ATOM     18  O   UNL     1       6.739   5.840  18.489  0.00  0.00    +0.000 OA
BRANCH  16  20
ATOM     19  C   UNL     1       8.208   8.512  18.165  0.00  0.00    +0.000 C 
ATOM     20  C   UNL     1       7.179   8.155  17.380  0.00  0.00    +0.000 C 
BRANCH  19  24
ATOM     21  C   UNL     1       9.632  12.494  18.898  0.00  0.00    +0.000 A 
ATOM     22  C   UNL     1       9.932  11.446  19.770  0.00  0.00    +0.000 A 
ATOM     23  C   UNL     1       9.451  10.156  19.519  0.00  0.00    +0.000 A 
ATOM     24  C   UNL     1       8.640   9.897  18.407  0.00  0.00    +0.000 A 
ATOM     25  C   UNL     1       8.323  10.957  17.550  0.00  0.00    +0.000 A 
ATOM     26  C   UNL     1       8.807  12.249  17.798  0.00  0.00    +0.000 A 
BRANCH  21  28
ATOM     27  C   UNL     1       8.860  15.109  18.651  0.00  0.00    +0.000 C 
ATOM     28  S   UNL     1      10.298  14.125  19.159  0.00  0.00    +0.000 S 
ENDBRANCH  21  28
ENDBRANCH  19  24
ENDBRANCH  16  20
ENDBRANCH   1  16
TORSDOF 7
ENDMDL
MODEL 3
REMARK VINA RESULT:      -7.6      0.438      1.057
REMARK  Name = 
REMARK  8 active torsions:
REMARK  status: ('A' for Active; 'I' for Inactive)
REMARK    1  A    between atoms: C_1  and  S_2
REMARK    2  A    between atoms: S_2  and  C_3
REMARK    3  A    between atoms: C_6  and  C_7
REMARK    4  A    between atoms: C_8  and  S_9
REMARK    5  A    between atoms: S_9  and  N_12
REMARK    6  A    between atoms: N_12  and  C_13
REMARK    7  A    between atoms: C_19  and  S_20
REMARK    8  A    between atoms: S_20  and  N_21
REMARK                            x       y       z     vdW  Elec       q    Type
REMARK                         _______ _______ _______ _____ _____    ______ ____
ROOT
ATOM      1  N   UNL     1       5.118   3.507  17.703  0.00  0.00    +0.000 N 
ATOM      2  H   UNL     1       4.954   3.346  16.698  0.00  0.00    +0.000 HD
ENDROOT
BRANCH   1   3
ATOM      3  C   UNL     1       6.064   4.571  17.957  0.00  0.00    +0.000 A 
ATOM      4  C   UNL     1       6.530   4.693  19.274  0.00  0.00    +0.000 A 
ATOM      5  C   UNL     1       7.416   5.715  19.632  0.00  0.00    +0.000 A 
ATOM      6  C   UNL     1       7.860   6.617  18.671  0.00  0.00    +0.000 A 
ATOM      7  C   UNL     1       7.402   6.507  17.364  0.00  0.00    +0.000 A 
ATOM      8  F   UNL     1       7.847   7.407  16.477  0.00  0.00    +0.000 F 
ATOM      9  C   UNL     1       6.486   5.516  17.005  0.00  0.00    +0.000 A 
BRANCH   9  10
ATOM     10  S   UNL     1       5.888   5.534  15.359  0.00  0.00    +0.000 S 
ATOM     11  O   UNL     1       5.174   4.320  15.058  0.00  0.00    +0.000 OA
ATOM     12  O   UNL     1       5.287   6.827  15.111  0.00  0.00    +0.000 OA
BRANCH  10  13
ATOM     13  N   UNL     1       7.317   5.486  14.486  0.00  0.00    +0.000 NA
ATOM     14  H   UNL     1       7.634   4.527  14.339  0.00  0.00    +0.000 HD
ATOM     15  H   UNL     1       7.278   6.065  13.647  0.00  0.00    +0.000 HD
ENDBRANCH  10  13
ENDBRANCH   9  10
ENDBRANCH   1   3
BRANCH   1  16
ATOM     16  S   UNL     1       3.551   3.691  18.389  0.00  0.00    +0.000 S 
ATOM     17  O   UNL     1       3.734   3.516  19.812  0.00  0.00    +0.000 OA
ATOM     18  O   UNL     1       2.633   2.844  17.663  0.00  0.00    +0.000 OA
BRANCH  16  20
ATOM     19  C   UNL     1       2.484   6.032  19.084  0.00  0.00    +0.000 C 
ATOM     20  C   UNL     1       3.137   5.358  18.124  0.00  0.00    +0.000 C 
BRANCH  19  24
ATOM     21  C   UNL     1       1.392  10.181  18.974  0.00  0.00    +0.000 A 
ATOM     22  C   UNL     1       1.212   9.415  20.127  0.00  0.00    +0.000 A 
ATOM     23  C   UNL     1       1.565   8.062  20.141  0.00  0.00    +0.000 A 
ATOM     24  C   UNL     1       2.081   7.443  18.995  0.00  0.00    +0.000 A 
ATOM     25  C   UNL     1       2.237   8.211  17.835  0.00  0.00    +0.000 A 
ATOM     26  C   UNL     1       1.887   9.568  17.821  0.00  0.00    +0.000 A 
BRANCH  21  28
ATOM     27  C   UNL     1       1.181  12.266  20.736  0.00  0.00    +0.000 C 
ATOM     28  S   UNL     1       1.020  11.923  18.961  0.00  0.00    +0.000 S 
ENDBRANCH  21  28
ENDBRANCH  19  24
ENDBRANCH  16  20
ENDBRANCH   1  16
TORSDOF 7
ENDMDL
MODEL 4
REMARK VINA RESULT:      -7.4      4.026      6.292
REMARK  Name = 
REMARK  8 active torsions:
REMARK  status: ('A' for Active; 'I' for Inactive)
REMARK    1  A    between atoms: C_1  and  S_2
REMARK    2  A    between atoms: S_2  and  C_3
REMARK    3  A    between atoms: C_6  and  C_7
REMARK    4  A    between atoms: C_8  and  S_9
REMARK    5  A    between atoms: S_9  and  N_12
REMARK    6  A    between atoms: N_12  and  C_13
REMARK    7  A    between atoms: C_19  and  S_20
REMARK    8  A    between atoms: S_20  and  N_21
REMARK                            x       y       z     vdW  Elec       q    Type
REMARK                         _______ _______ _______ _____ _____    ______ ____
ROOT
ATOM      1  N   UNL     1       5.640   5.190  16.827  0.00  0.00    +0.000 N 
ATOM      2  H   UNL     1       5.604   4.176  16.644  0.00  0.00    +0.000 HD
ENDROOT
BRANCH   1   3
ATOM      3  C   UNL     1       4.437   5.694  17.450  0.00  0.00    +0.000 A 
ATOM      4  C   UNL     1       4.240   7.082  17.398  0.00  0.00    +0.000 A 
ATOM      5  C   UNL     1       3.129   7.675  18.007  0.00  0.00    +0.000 A 
ATOM      6  C   UNL     1       2.191   6.882  18.661  0.00  0.00    +0.000 A 
ATOM      7  C   UNL     1       2.378   5.507  18.720  0.00  0.00    +0.000 A 
ATOM      8  F   UNL     1       1.455   4.787  19.373  0.00  0.00    +0.000 F 
ATOM      9  C   UNL     1       3.505   4.910  18.152  0.00  0.00    +0.000 A 
BRANCH   9  10
ATOM     10  S   UNL     1       3.701   3.185  18.380  0.00  0.00    +0.000 S 
ATOM     11  O   UNL     1       2.555   2.620  19.044  0.00  0.00    +0.000 OA
ATOM     12  O   UNL     1       4.193   2.618  17.141  0.00  0.00    +0.000 OA
BRANCH  10  13
ATOM     13  N   UNL     1       4.969   3.136  19.474  0.00  0.00    +0.000 NA
ATOM     14  H   UNL     1       4.641   2.927  20.418  0.00  0.00    +0.000 HD
ATOM     15  H   UNL     1       5.743   2.560  19.144  0.00  0.00    +0.000 HD
ENDBRANCH  10  13
ENDBRANCH   9  10
ENDBRANCH   1   3
BRANCH   1  16
ATOM     16  S   UNL     1       7.113   5.439  17.681  0.00  0.00    +0.000 S 
ATOM     17  O   UNL     1       8.113   4.704  16.941  0.00  0.00    +0.000 OA
ATOM     18  O   UNL     1       6.883   5.154  19.078  0.00  0.00    +0.000 OA
BRANCH  16  20
ATOM     19  C   UNL     1       8.117   7.781  18.459  0.00  0.00    +0.000 C 
ATOM     20  C   UNL     1       7.465   7.129  17.483  0.00  0.00    +0.000 C 
BRANCH  19  24
ATOM     21  C   UNL     1       9.360  11.888  18.344  0.00  0.00    +0.000 A 
ATOM     22  C   UNL     1       9.905  10.992  19.264  0.00  0.00    +0.000 A 
ATOM     23  C   UNL     1       9.481   9.659  19.293  0.00  0.00    +0.000 A 
ATOM     24  C   UNL     1       8.485   9.204  18.419  0.00  0.00    +0.000 A 
ATOM     25  C   UNL     1       7.924  10.114  17.515  0.00  0.00    +0.000 A 
ATOM     26  C   UNL     1       8.351  11.449  17.483  0.00  0.00    +0.000 A 
BRANCH  21  28
ATOM     27  C   UNL     1      11.667  13.248  17.774  0.00  0.00    +0.000 C 
ATOM     28  S   UNL     1       9.942  13.568  18.241  0.00  0.00    +0.000 S 
ENDBRANCH  21  28
ENDBRANCH  19  24
ENDBRANCH  16  20
ENDBRANCH   1  16
TORSDOF 7
ENDMDL
MODEL 5
REMARK VINA RESULT:      -7.3      1.060      1.179
REMARK  Name = 
REMARK  8 active torsions:
REMARK  status: ('A' for Active; 'I' for Inactive)
REMARK    1  A    between atoms: C_1  and  S_2
REMARK    2  A    between atoms: S_2  and  C_3
REMARK    3  A    between atoms: C_6  and  C_7
REMARK    4  A    between atoms: C_8  and  S_9
REMARK    5  A    between atoms: S_9  and  N_12
REMARK    6  A    between atoms: N_12  and  C_13
REMARK    7  A    between atoms: C_19  and  S_20
REMARK    8  A    between atoms: S_20  and  N_21
REMARK                            x       y       z     vdW  Elec       q    Type
REMARK                         _______ _______ _______ _____ _____    ______ ____
ROOT
ATOM      1  N   UNL     1       5.331   3.470  17.792  0.00  0.00    +0.000 N 
ATOM      2  H   UNL     1       4.824   3.536  16.897  0.00  0.00    +0.000 HD
ENDROOT
BRANCH   1   3
ATOM      3  C   UNL     1       6.233   4.578  18.013  0.00  0.00    +0.000 A 
ATOM      4  C   UNL     1       6.713   4.743  19.321  0.00  0.00    +0.000 A 
ATOM      5  C   UNL     1       7.558   5.808  19.648  0.00  0.00    +0.000 A 
ATOM      6  C   UNL     1       7.948   6.712  18.666  0.00  0.00    +0.000 A 
ATOM      7  C   UNL     1       7.476   6.560  17.368  0.00  0.00    +0.000 A 
ATOM      8  F   UNL     1       7.868   7.463  16.459  0.00  0.00    +0.000 F 
ATOM      9  C   UNL     1       6.599   5.524  17.039  0.00  0.00    +0.000 A 
BRANCH   9  10
ATOM     10  S   UNL     1       5.977   5.487  15.403  0.00  0.00    +0.000 S 
ATOM     11  O   UNL     1       7.047   5.567  14.443  0.00  0.00    +0.000 OA
ATOM     12  O   UNL     1       4.984   4.436  15.320  0.00  0.00    +0.000 OA
BRANCH  10  13
ATOM     13  N   UNL     1       5.149   6.943  15.330  0.00  0.00    +0.000 NA
ATOM     14  H   UNL     1       5.727   7.718  15.658  0.00  0.00    +0.000 HD
ATOM     15  H   UNL     1       4.700   7.087  14.426  0.00  0.00    +0.000 HD
ENDBRANCH  10  13
ENDBRANCH   9  10
ENDBRANCH   1   3
BRANCH   1  16
ATOM     16  S   UNL     1       4.112   3.221  18.980  0.00  0.00    +0.000 S 
ATOM     17  O   UNL     1       4.800   2.662  20.122  0.00  0.00    +0.000 OA
ATOM     18  O   UNL     1       3.016   2.506  18.367  0.00  0.00    +0.000 OA
BRANCH  16  20
ATOM     19  C   UNL     1       2.990   5.591  18.506  0.00  0.00    +0.000 C 
ATOM     20  C   UNL     1       3.587   4.816  19.426  0.00  0.00    +0.000 C 
BRANCH  19  24
ATOM     21  C   UNL     1       1.440   9.553  19.068  0.00  0.00    +0.000 A 
ATOM     22  C   UNL     1       1.954   9.145  17.837  0.00  0.00    +0.000 A 
ATOM     23  C   UNL     1       2.464   7.852  17.675  0.00  0.00    +0.000 A 
ATOM     24  C   UNL     1       2.492   6.953  18.748  0.00  0.00    +0.000 A 
ATOM     25  C   UNL     1       1.996   7.376  19.987  0.00  0.00    +0.000 A 
ATOM     26  C   UNL     1       1.482   8.670  20.150  0.00  0.00    +0.000 A 
BRANCH  21  28
ATOM     27  C   UNL     1      -0.702  10.720  20.312  0.00  0.00    +0.000 C 
ATOM     28  S   UNL     1       0.717  11.168  19.272  0.00  0.00    +0.000 S 
ENDBRANCH  21  28
ENDBRANCH  19  24
ENDBRANCH  16  20
ENDBRANCH   1  16
TORSDOF 7
ENDMDL
MODEL 6
REMARK VINA RESULT:      -7.2      0.833      1.354
REMARK  Name = 
REMARK  8 active torsions:
REMARK  status: ('A' for Active; 'I' for Inactive)
REMARK    1  A    between atoms: C_1  and  S_2
REMARK    2  A    between atoms: S_2  and  C_3
REMARK    3  A    between atoms: C_6  and  C_7
REMARK    4  A    between atoms: C_8  and  S_9
REMARK    5  A    between atoms: S_9  and  N_12
REMARK    6  A    between atoms: N_12  and  C_13
REMARK    7  A    between atoms: C_19  and  S_20
REMARK    8  A    between atoms: S_20  and  N_21
REMARK                            x       y       z     vdW  Elec       q    Type
REMARK                         _______ _______ _______ _____ _____    ______ ____
ROOT
ATOM      1  N   UNL     1       5.044   3.514  17.410  0.00  0.00    +0.000 N 
ATOM      2  H   UNL     1       4.780   3.586  16.416  0.00  0.00    +0.000 HD
ENDROOT
BRANCH   1   3
ATOM      3  C   UNL     1       5.997   4.521  17.816  0.00  0.00    +0.000 A 
ATOM      4  C   UNL     1       6.338   4.549  19.177  0.00  0.00    +0.000 A 
ATOM      5  C   UNL     1       7.219   5.512  19.679  0.00  0.00    +0.000 A 
ATOM      6  C   UNL     1       7.787   6.448  18.821  0.00  0.00    +0.000 A 
ATOM      7  C   UNL     1       7.455   6.431  17.472  0.00  0.00    +0.000 A 
ATOM      8  F   UNL     1       8.016   7.361  16.688  0.00  0.00    +0.000 F 
ATOM      9  C   UNL     1       6.544   5.500  16.968  0.00  0.00    +0.000 A 
BRANCH   9  10
ATOM     10  S   UNL     1       6.110   5.636  15.277  0.00  0.00    +0.000 S 
ATOM     11  O   UNL     1       5.149   6.690  15.075  0.00  0.00    +0.000 OA
ATOM     12  O   UNL     1       7.326   5.582  14.493  0.00  0.00    +0.000 OA
BRANCH  10  13
ATOM     13  N   UNL     1       5.303   4.189  15.024  0.00  0.00    +0.000 NA
ATOM     14  H   UNL     1       4.543   4.063  15.693  0.00  0.00    +0.000 HD
ATOM     15  H   UNL     1       5.050   4.053  14.046  0.00  0.00    +0.000 HD
ENDBRANCH  10  13
ENDBRANCH   9  10
ENDBRANCH   1   3
BRANCH   1  16
ATOM     16  S   UNL     1       3.552   3.475  18.267  0.00  0.00    +0.000 S 
ATOM     17  O   UNL     1       3.916   3.367  19.662  0.00  0.00    +0.000 OA
ATOM     18  O   UNL     1       2.700   2.481  17.657  0.00  0.00    +0.000 OA
BRANCH  16  20
ATOM     19  C   UNL     1       2.816   5.907  19.073  0.00  0.00    +0.000 C 
ATOM     20  C   UNL     1       2.862   5.053  18.037  0.00  0.00    +0.000 C 
BRANCH  19  24
ATOM     21  C   UNL     1       1.297   9.921  19.057  0.00  0.00    +0.000 A 
ATOM     22  C   UNL     1       1.199   9.114  20.191  0.00  0.00    +0.000 A 
ATOM     23  C   UNL     1       1.692   7.805  20.175  0.00  0.00    +0.000 A 
ATOM     24  C   UNL     1       2.268   7.270  19.015  0.00  0.00    +0.000 A 
ATOM     25  C   UNL     1       2.342   8.076  17.873  0.00  0.00    +0.000 A 
ATOM     26  C   UNL     1       1.851   9.389  17.890  0.00  0.00    +0.000 A 
BRANCH  21  28
ATOM     27  C   UNL     1      -0.994  11.344  19.528  0.00  0.00    +0.000 C 
ATOM     28  S   UNL     1       0.746  11.614  19.083  0.00  0.00    +0.000 S 
ENDBRANCH  21  28
ENDBRANCH  19  24
ENDBRANCH  16  20
ENDBRANCH   1  16
TORSDOF 7
ENDMDL
MODEL 7
REMARK VINA RESULT:      -7.2      2.875      4.683
REMARK  Name = 
REMARK  8 active torsions:
REMARK  status: ('A' for Active; 'I' for Inactive)
REMARK    1  A    between atoms: C_1  and  S_2
REMARK    2  A    between atoms: S_2  and  C_3
REMARK    3  A    between atoms: C_6  and  C_7
REMARK    4  A    between atoms: C_8  and  S_9
REMARK    5  A    between atoms: S_9  and  N_12
REMARK    6  A    between atoms: N_12  and  C_13
REMARK    7  A    between atoms: C_19  and  S_20
REMARK    8  A    between atoms: S_20  and  N_21
REMARK                            x       y       z     vdW  Elec       q    Type
REMARK                         _______ _______ _______ _____ _____    ______ ____
ROOT
ATOM      1  N   UNL     1       4.621   3.259  17.318  0.00  0.00    +0.000 N 
ATOM      2  H   UNL     1       5.345   2.679  17.767  0.00  0.00    +0.000 HD
ENDROOT
BRANCH   1   3
ATOM      3  C   UNL     1       3.338   3.171  17.977  0.00  0.00    +0.000 A 
ATOM      4  C   UNL     1       2.234   3.665  17.266  0.00  0.00    +0.000 A 
ATOM      5  C   UNL     1       0.954   3.664  17.832  0.00  0.00    +0.000 A 
ATOM      6  C   UNL     1       0.761   3.149  19.109  0.00  0.00    +0.000 A 
ATOM      7  C   UNL     1       1.848   2.659  19.823  0.00  0.00    +0.000 A 
ATOM      8  F   UNL     1       1.614   2.186  21.054  0.00  0.00    +0.000 F 
ATOM      9  C   UNL     1       3.136   2.694  19.284  0.00  0.00    +0.000 A 
BRANCH   9  10
ATOM     10  S   UNL     1       4.449   2.154  20.308  0.00  0.00    +0.000 S 
ATOM     11  O   UNL     1       5.594   3.018  20.174  0.00  0.00    +0.000 OA
ATOM     12  O   UNL     1       3.906   1.841  21.613  0.00  0.00    +0.000 OA
BRANCH  10  13
ATOM     13  N   UNL     1       4.855   0.697  19.587  0.00  0.00    +0.000 NA
ATOM     14  H   UNL     1       5.656   0.263  20.047  0.00  0.00    +0.000 HD
ATOM     15  H   UNL     1       4.046   0.090  19.458  0.00  0.00    +0.000 HD
ENDBRANCH  10  13
ENDBRANCH   9  10
ENDBRANCH   1   3
BRANCH   1  16
ATOM     16  S   UNL     1       5.317   4.828  17.195  0.00  0.00    +0.000 S 
ATOM     17  O   UNL     1       5.065   5.253  15.837  0.00  0.00    +0.000 OA
ATOM     18  O   UNL     1       6.669   4.769  17.702  0.00  0.00    +0.000 OA
BRANCH  16  20
ATOM     19  C   UNL     1       3.549   6.760  17.690  0.00  0.00    +0.000 C 
ATOM     20  C   UNL     1       4.350   5.830  18.235  0.00  0.00    +0.000 C 
BRANCH  19  24
ATOM     21  C   UNL     1       0.893   9.416  19.766  0.00  0.00    +0.000 A 
ATOM     22  C   UNL     1       1.342   9.703  18.477  0.00  0.00    +0.000 A 
ATOM     23  C   UNL     1       2.215   8.829  17.819  0.00  0.00    +0.000 A 
ATOM     24  C   UNL     1       2.675   7.666  18.449  0.00  0.00    +0.000 A 
ATOM     25  C   UNL     1       2.241   7.396  19.752  0.00  0.00    +0.000 A 
ATOM     26  C   UNL     1       1.363   8.269  20.411  0.00  0.00    +0.000 A 
BRANCH  21  28
ATOM     27  C   UNL     1       0.091  10.032  22.311  0.00  0.00    +0.000 C 
ATOM     28  S   UNL     1      -0.278  10.476  20.590  0.00  0.00    +0.000 S 
ENDBRANCH  21  28
ENDBRANCH  19  24
ENDBRANCH  16  20
ENDBRANCH   1  16
TORSDOF 7
ENDMDL
MODEL 8
REMARK VINA RESULT:      -7.2      3.990      6.171
REMARK  Name = 
REMARK  8 active torsions:
REMARK  status: ('A' for Active; 'I' for Inactive)
REMARK    1  A    between atoms: C_1  and  S_2
REMARK    2  A    between atoms: S_2  and  C_3
REMARK    3  A    between atoms: C_6  and  C_7
REMARK    4  A    between atoms: C_8  and  S_9
REMARK    5  A    between atoms: S_9  and  N_12
REMARK    6  A    between atoms: N_12  and  C_13
REMARK    7  A    between atoms: C_19  and  S_20
REMARK    8  A    between atoms: S_20  and  N_21
REMARK                            x       y       z     vdW  Elec       q    Type
REMARK                         _______ _______ _______ _____ _____    ______ ____
ROOT
ATOM      1  N   UNL     1       5.386   5.387  16.818  0.00  0.00    +0.000 N 
ATOM      2  H   UNL     1       5.355   4.438  16.417  0.00  0.00    +0.000 HD
ENDROOT
BRANCH   1   3
ATOM      3  C   UNL     1       4.243   5.686  17.650  0.00  0.00    +0.000 A 
ATOM      4  C   UNL     1       3.916   7.042  17.803  0.00  0.00    +0.000 A 
ATOM      5  C   UNL     1       2.854   7.439  18.621  0.00  0.00    +0.000 A 
ATOM      6  C   UNL     1       2.091   6.482  19.282  0.00  0.00    +0.000 A 
ATOM      7  C   UNL     1       2.407   5.136  19.140  0.00  0.00    +0.000 A 
ATOM      8  F   UNL     1       1.653   4.252  19.807  0.00  0.00    +0.000 F 
ATOM      9  C   UNL     1       3.492   4.732  18.359  0.00  0.00    +0.000 A 
BRANCH   9  10
ATOM     10  S   UNL     1       3.872   3.022  18.336  0.00  0.00    +0.000 S 
ATOM     11  O   UNL     1       2.752   2.241  18.793  0.00  0.00    +0.000 OA
ATOM     12  O   UNL     1       4.522   2.720  17.078  0.00  0.00    +0.000 OA
BRANCH  10  13
ATOM     13  N   UNL     1       5.048   2.927  19.527  0.00  0.00    +0.000 NA
ATOM     14  H   UNL     1       4.653   2.622  20.418  0.00  0.00    +0.000 HD
ATOM     15  H   UNL     1       5.872   2.414  19.216  0.00  0.00    +0.000 HD
ENDBRANCH  10  13
ENDBRANCH   9  10
ENDBRANCH   1   3
BRANCH   1  16
ATOM     16  S   UNL     1       6.933   5.509  17.562  0.00  0.00    +0.000 S 
ATOM     17  O   UNL     1       7.827   4.760  16.709  0.00  0.00    +0.000 OA
ATOM     18  O   UNL     1       6.796   5.161  18.958  0.00  0.00    +0.000 OA
BRANCH  16  20
ATOM     19  C   UNL     1       8.060   7.768  18.413  0.00  0.00    +0.000 C 
ATOM     20  C   UNL     1       7.369   7.185  17.421  0.00  0.00    +0.000 C 
BRANCH  19  24
ATOM     21  C   UNL     1       9.172  11.914  18.422  0.00  0.00    +0.000 A 
ATOM     22  C   UNL     1       8.276  11.406  17.481  0.00  0.00    +0.000 A 
ATOM     23  C   UNL     1       7.932  10.050  17.488  0.00  0.00    +0.000 A 
ATOM     24  C   UNL     1       8.499   9.171  18.420  0.00  0.00    +0.000 A 
ATOM     25  C   UNL     1       9.415   9.682  19.347  0.00  0.00    +0.000 A 
ATOM     26  C   UNL     1       9.758  11.041  19.343  0.00  0.00    +0.000 A 
BRANCH  21  28
ATOM     27  C   UNL     1      11.349  13.536  18.773  0.00  0.00    +0.000 C 
ATOM     28  S   UNL     1       9.562  13.651  18.478  0.00  0.00    +0.000 S 
ENDBRANCH  21  28
ENDBRANCH  19  24
ENDBRANCH  16  20
ENDBRANCH   1  16
TORSDOF 7
ENDMDL
MODEL 9
REMARK VINA RESULT:      -7.2      1.089      1.540
REMARK  Name = 
REMARK  8 active torsions:
REMARK  status: ('A' for Active; 'I' for Inactive)
REMARK    1  A    between atoms: C_1  and  S_2
REMARK    2  A    between atoms: S_2  and  C_3
REMARK    3  A    between atoms: C_6  and  C_7
REMARK    4  A    between atoms: C_8  and  S_9
REMARK    5  A    between atoms: S_9  and  N_12
REMARK    6  A    between atoms: N_12  and  C_13
REMARK    7  A    between atoms: C_19  and  S_20
REMARK    8  A    between atoms: S_20  and  N_21
REMARK                            x       y       z     vdW  Elec       q    Type
REMARK                         _______ _______ _______ _____ _____    ______ ____
ROOT
ATOM      1  N   UNL     1       5.191   3.418  17.735  0.00  0.00    +0.000 N 
ATOM      2  H   UNL     1       4.600   3.585  16.907  0.00  0.00    +0.000 HD
ENDROOT
BRANCH   1   3
ATOM      3  C   UNL     1       6.124   4.493  17.988  0.00  0.00    +0.000 A 
ATOM      4  C   UNL     1       6.569   4.638  19.311  0.00  0.00    +0.000 A 
ATOM      5  C   UNL     1       7.440   5.673  19.668  0.00  0.00    +0.000 A 
ATOM      6  C   UNL     1       7.892   6.564  18.701  0.00  0.00    +0.000 A 
ATOM      7  C   UNL     1       7.456   6.432  17.388  0.00  0.00    +0.000 A 
ATOM      8  F   UNL     1       7.907   7.323  16.496  0.00  0.00    +0.000 F 
ATOM      9  C   UNL     1       6.553   5.428  17.030  0.00  0.00    +0.000 A 
BRANCH   9  10
ATOM     10  S   UNL     1       5.981   5.417  15.375  0.00  0.00    +0.000 S 
ATOM     11  O   UNL     1       7.078   5.546  14.450  0.00  0.00    +0.000 OA
ATOM     12  O   UNL     1       5.018   4.345  15.236  0.00  0.00    +0.000 OA
BRANCH  10  13
ATOM     13  N   UNL     1       5.121   6.854  15.311  0.00  0.00    +0.000 NA
ATOM     14  H   UNL     1       5.415   7.498  16.046  0.00  0.00    +0.000 HD
ATOM     15  H   UNL     1       5.095   7.248  14.371  0.00  0.00    +0.000 HD
ENDBRANCH  10  13
ENDBRANCH   9  10
ENDBRANCH   1   3
BRANCH   1  16
ATOM     16  S   UNL     1       4.090   3.041  19.003  0.00  0.00    +0.000 S 
ATOM     17  O   UNL     1       4.915   2.603  20.107  0.00  0.00    +0.000 OA
ATOM     18  O   UNL     1       3.063   2.174  18.472  0.00  0.00    +0.000 OA
BRANCH  16  20
ATOM     19  C   UNL     1       3.047   5.440  18.498  0.00  0.00    +0.000 C 
ATOM     20  C   UNL     1       3.388   4.564  19.456  0.00  0.00    +0.000 C 
BRANCH  19  24
ATOM     21  C   UNL     1       1.376   9.301  19.347  0.00  0.00    +0.000 A 
ATOM     22  C   UNL     1       1.489   8.326  20.340  0.00  0.00    +0.000 A 
ATOM     23  C   UNL     1       2.028   7.070  20.042  0.00  0.00    +0.000 A 
ATOM     24  C   UNL     1       2.440   6.757  18.740  0.00  0.00    +0.000 A 
ATOM     25  C   UNL     1       2.302   7.730  17.744  0.00  0.00    +0.000 A 
ATOM     26  C   UNL     1       1.765   8.991  18.042  0.00  0.00    +0.000 A 
BRANCH  21  28
ATOM     27  C   UNL     1      -0.086  10.565  21.286  0.00  0.00    +0.000 C 
ATOM     28  S   UNL     1       0.764  10.931  19.724  0.00  0.00    +0.000 S 
ENDBRANCH  21  28
ENDBRANCH  19  24
ENDBRANCH  16  20
ENDBRANCH   1  16
TORSDOF 7
ENDMDL
