MODEL 1
REMARK VINA RESULT:      -8.3      0.000      0.000
REMARK  Name = 
REMARK  11 active torsions:
REMARK  status: ('A' for Active; 'I' for Inactive)
REMARK    1  A    between atoms: C_1  and  C_2
REMARK    2  A    between atoms: C_2  and  C_3
REMARK    3  A    between atoms: C_3  and  C_4
REMARK    4  A    between atoms: C_4  and  C_5
REMARK    5  A    between atoms: C_5  and  C_6
REMARK    6  A    between atoms: C_9  and  O_10
REMARK    7  A    between atoms: O_10  and  C_11
REMARK    8  A    between atoms: C_11  and  C_12
REMARK    9  A    between atoms: C_16  and  N_17
REMARK   10  A    between atoms: C_24  and  C_25
REMARK   11  A    between atoms: C_24  and  C_26
REMARK                            x       y       z     vdW  Elec       q    Type
REMARK                         _______ _______ _______ _____ _____    ______ ____
ROOT
ATOM      1  C   UNL     1       7.009   6.109  17.885  0.00  0.00    +0.000 A 
ATOM      2  C   UNL     1       7.022   5.741  16.541  0.00  0.00    +0.000 A 
ATOM      3  C   UNL     1       6.059   4.863  16.072  0.00  0.00    +0.000 A 
ATOM      4  C   UNL     1       5.065   4.386  16.935  0.00  0.00    +0.000 A 
ATOM      5  C   UNL     1       5.062   4.659  18.312  0.00  0.00    +0.000 A 
ATOM      6  C   UNL     1       6.095   5.500  18.762  0.00  0.00    +0.000 A 
ENDROOT
BRANCH   5   7
ATOM      7  N   UNL     1       4.030   4.207  19.179  0.00  0.00    +0.000 N 
ATOM      8  C   UNL     1       3.990   2.956  19.767  0.00  0.00    +0.000 C 
ATOM      9  N   UNL     1       5.050   2.114  19.631  0.00  0.00    +0.000 N 
ATOM     10  N   UNL     1       3.021   2.488  20.487  0.00  0.00    +0.000 NA
ATOM     11  C   UNL     1       1.980   3.302  20.748  0.00  0.00    +0.000 C 
ATOM     12  N   UNL     1       1.118   2.884  21.709  0.00  0.00    +0.000 N 
ATOM     13  N   UNL     1       1.741   4.410  20.153  0.00  0.00    +0.000 NA
ATOM     14  C   UNL     1       2.696   4.870  19.138  0.00  0.00    +0.000 C 
ATOM     15  C   UNL     1       2.019   4.609  17.776  0.00  0.00    +0.000 C 
ATOM     16  C   UNL     1       2.733   6.389  19.385  0.00  0.00    +0.000 C 
ATOM     17  H   UNL     1       5.956   2.562  19.683  0.00  0.00    +0.000 HD
ATOM     18  H   UNL     1       4.973   1.321  20.255  0.00  0.00    +0.000 HD
ATOM     19  H   UNL     1       1.119   1.879  21.812  0.00  0.00    +0.000 HD
ATOM     20  H   UNL     1       0.206   3.309  21.623  0.00  0.00    +0.000 HD
ENDBRANCH   5   7
BRANCH   1  21
ATOM     21  C   UNL     1       7.944   7.166  18.403  0.00  0.00    +0.000 C 
BRANCH  21  22
ATOM     22  O   UNL     1       7.801   8.342  17.589  0.00  0.00    +0.000 OA
BRANCH  22  26
ATOM     23  C   UNL     1       9.401  11.865  19.145  0.00  0.00    +0.000 A 
ATOM     24  C   UNL     1       9.597  10.659  19.828  0.00  0.00    +0.000 A 
ATOM     25  C   UNL     1       9.113   9.465  19.306  0.00  0.00    +0.000 A 
ATOM     26  C   UNL     1       8.381   9.460  18.121  0.00  0.00    +0.000 A 
ATOM     27  C   UNL     1       8.202  10.652  17.417  0.00  0.00    +0.000 A 
ATOM     28  C   UNL     1       8.704  11.851  17.927  0.00  0.00    +0.000 A 
BRANCH  23  29
ATOM     29  C   UNL     1       9.953  13.143  19.727  0.00  0.00    +0.000 C 
BRANCH  29  30
ATOM     30  C   UNL     1      10.177  13.072  21.243  0.00  0.00    +0.000 C 
BRANCH  30  31
ATOM     31  C   UNL     1       9.445  14.181  22.003  0.00  0.00    +0.000 C 
BRANCH  31  33
ATOM     32  C   UNL     1       8.371  12.111  22.960  0.00  0.00    +0.000 C 
ATOM     33  C   UNL     1       8.617  13.599  23.149  0.00  0.00    +0.000 C 
ENDBRANCH  31  33
ENDBRANCH  30  31
ENDBRANCH  29  30
ENDBRANCH  23  29
ENDBRANCH  22  26
ENDBRANCH  21  22
ENDBRANCH   1  21
TORSDOF 8
ENDMDL
MODEL 2
REMARK VINA RESULT:      -8.2      1.283      2.360
REMARK  Name = 
REMARK  11 active torsions:
REMARK  status: ('A' for Active; 'I' for Inactive)
REMARK    1  A    between atoms: C_1  and  C_2
REMARK    2  A    between atoms: C_2  and  C_3
REMARK    3  A    between atoms: C_3  and  C_4
REMARK    4  A    between atoms: C_4  and  C_5
REMARK    5  A    between atoms: C_5  and  C_6
REMARK    6  A    between atoms: C_9  and  O_10
REMARK    7  A    between atoms: O_10  and  C_11
REMARK    8  A    between atoms: C_11  and  C_12
REMARK    9  A    between atoms: C_16  and  N_17
REMARK   10  A    between atoms: C_24  and  C_25
REMARK   11  A    between atoms: C_24  and  C_26
REMARK                            x       y       z     vdW  Elec       q    Type
REMARK                         _______ _______ _______ _____ _____    ______ ____
ROOT
ATOM      1  C   UNL     1       6.933   6.098  17.747  0.00  0.00    +0.000 A 
ATOM      2  C   UNL     1       6.860   5.691  16.417  0.00  0.00    +0.000 A 
ATOM      3  C   UNL     1       5.883   4.784  16.040  0.00  0.00    +0.000 A 
ATOM      4  C   UNL     1       4.960   4.317  16.984  0.00  0.00    +0.000 A 
ATOM      5  C   UNL     1       5.047   4.630  18.349  0.00  0.00    +0.000 A 
ATOM      6  C   UNL     1       6.092   5.501  18.703  0.00  0.00    +0.000 A 
ENDROOT
BRANCH   5   7
ATOM      7  N   UNL     1       4.085   4.188  19.298  0.00  0.00    +0.000 N 
ATOM      8  C   UNL     1       4.106   2.954  19.921  0.00  0.00    +0.000 C 
ATOM      9  N   UNL     1       5.168   2.125  19.735  0.00  0.00    +0.000 N 
ATOM     10  N   UNL     1       3.198   2.492  20.719  0.00  0.00    +0.000 NA
ATOM     11  C   UNL     1       2.164   3.298  21.030  0.00  0.00    +0.000 C 
ATOM     12  N   UNL     1       1.378   2.894  22.059  0.00  0.00    +0.000 N 
ATOM     13  N   UNL     1       1.866   4.384  20.422  0.00  0.00    +0.000 NA
ATOM     14  C   UNL     1       2.740   4.829  19.331  0.00  0.00    +0.000 C 
ATOM     15  C   UNL     1       1.975   4.519  18.028  0.00  0.00    +0.000 C 
ATOM     16  C   UNL     1       2.768   6.355  19.533  0.00  0.00    +0.000 C 
ATOM     17  H   UNL     1       6.068   2.587  19.712  0.00  0.00    +0.000 HD
ATOM     18  H   UNL     1       5.149   1.348  20.385  0.00  0.00    +0.000 HD
ATOM     19  H   UNL     1       1.402   1.892  22.190  0.00  0.00    +0.000 HD
ATOM     20  H   UNL     1       0.455   3.303  22.026  0.00  0.00    +0.000 HD
ENDBRANCH   5   7
BRANCH   1  21
ATOM     21  C   UNL     1       7.882   7.185  18.169  0.00  0.00    +0.000 C 
BRANCH  21  22
ATOM     22  O   UNL     1       7.559   8.382  17.442  0.00  0.00    +0.000 OA
BRANCH  22  26
ATOM     23  C   UNL     1       9.585  11.692  18.969  0.00  0.00    +0.000 A 
ATOM     24  C   UNL     1       8.758  11.846  17.850  0.00  0.00    +0.000 A 
ATOM     25  C   UNL     1       8.037  10.768  17.350  0.00  0.00    +0.000 A 
ATOM     26  C   UNL     1       8.167   9.507  17.927  0.00  0.00    +0.000 A 
ATOM     27  C   UNL     1       8.967   9.346  19.059  0.00  0.00    +0.000 A 
ATOM     28  C   UNL     1       9.677  10.431  19.577  0.00  0.00    +0.000 A 
BRANCH  23  29
ATOM     29  C   UNL     1      10.341  12.884  19.500  0.00  0.00    +0.000 C 
BRANCH  29  30
ATOM     30  C   UNL     1      10.286  14.102  18.568  0.00  0.00    +0.000 C 
BRANCH  30  31
ATOM     31  C   UNL     1      11.631  14.823  18.454  0.00  0.00    +0.000 C 
BRANCH  31  33
ATOM     32  C   UNL     1      10.753  16.818  17.187  0.00  0.00    +0.000 C 
ATOM     33  C   UNL     1      11.706  15.634  17.160  0.00  0.00    +0.000 C 
ENDBRANCH  31  33
ENDBRANCH  30  31
ENDBRANCH  29  30
ENDBRANCH  23  29
ENDBRANCH  22  26
ENDBRANCH  21  22
ENDBRANCH   1  21
TORSDOF 8
ENDMDL
MODEL 3
REMARK VINA RESULT:      -8.1      5.756      8.540
REMARK  Name = 
REMARK  11 active torsions:
REMARK  status: ('A' for Active; 'I' for Inactive)
REMARK    1  A    between atoms: C_1  and  C_2
REMARK    2  A    between atoms: C_2  and  C_3
REMARK    3  A    between atoms: C_3  and  C_4
REMARK    4  A    between atoms: C_4  and  C_5
REMARK    5  A    between atoms: C_5  and  C_6
REMARK    6  A    between atoms: C_9  and  O_10
REMARK    7  A    between atoms: O_10  and  C_11
REMARK    8  A    between atoms: C_11  and  C_12
REMARK    9  A    between atoms: C_16  and  N_17
REMARK   10  A    between atoms: C_24  and  C_25
REMARK   11  A    between atoms: C_24  and  C_26
REMARK                            x       y       z     vdW  Elec       q    Type
REMARK                         _______ _______ _______ _____ _____    ______ ____
ROOT
ATOM      1  C   UNL     1       1.402   8.391  20.290  0.00  0.00    +0.000 A 
ATOM      2  C   UNL     1       1.401   9.052  19.064  0.00  0.00    +0.000 A 
ATOM      3  C   UNL     1       2.021   8.461  17.976  0.00  0.00    +0.000 A 
ATOM      4  C   UNL     1       2.606   7.195  18.106  0.00  0.00    +0.000 A 
ATOM      5  C   UNL     1       2.708   6.530  19.338  0.00  0.00    +0.000 A 
ATOM      6  C   UNL     1       2.125   7.194  20.432  0.00  0.00    +0.000 A 
ENDROOT
BRANCH   5   7
ATOM      7  N   UNL     1       3.266   5.228  19.460  0.00  0.00    +0.000 N 
ATOM      8  C   UNL     1       4.598   4.922  19.253  0.00  0.00    +0.000 C 
ATOM      9  N   UNL     1       5.493   5.923  19.035  0.00  0.00    +0.000 N 
ATOM     10  N   UNL     1       5.114   3.735  19.270  0.00  0.00    +0.000 NA
ATOM     11  C   UNL     1       4.307   2.701  19.578  0.00  0.00    +0.000 C 
ATOM     12  N   UNL     1       4.920   1.521  19.846  0.00  0.00    +0.000 N 
ATOM     13  N   UNL     1       3.029   2.749  19.616  0.00  0.00    +0.000 NA
ATOM     14  C   UNL     1       2.376   4.037  19.357  0.00  0.00    +0.000 C 
ATOM     15  C   UNL     1       1.795   3.934  17.932  0.00  0.00    +0.000 C 
ATOM     16  C   UNL     1       1.211   4.025  20.364  0.00  0.00    +0.000 C 
ATOM     17  H   UNL     1       5.346   6.752  19.597  0.00  0.00    +0.000 HD
ATOM     18  H   UNL     1       6.446   5.585  19.086  0.00  0.00    +0.000 HD
ATOM     19  H   UNL     1       5.823   1.449  19.398  0.00  0.00    +0.000 HD
ATOM     20  H   UNL     1       4.309   0.729  19.715  0.00  0.00    +0.000 HD
ENDBRANCH   5   7
BRANCH   1  21
ATOM     21  C   UNL     1       0.620   8.928  21.456  0.00  0.00    +0.000 C 
BRANCH  21  22
ATOM     22  O   UNL     1       0.949  10.318  21.625  0.00  0.00    +0.000 OA
BRANCH  22  26
ATOM     23  C   UNL     1      -2.340  12.771  22.377  0.00  0.00    +0.000 A 
ATOM     24  C   UNL     1      -1.526  13.029  21.267  0.00  0.00    +0.000 A 
ATOM     25  C   UNL     1      -0.452  12.200  20.970  0.00  0.00    +0.000 A 
ATOM     26  C   UNL     1      -0.140  11.127  21.802  0.00  0.00    +0.000 A 
ATOM     27  C   UNL     1      -0.959  10.843  22.895  0.00  0.00    +0.000 A 
ATOM     28  C   UNL     1      -2.051  11.661  23.186  0.00  0.00    +0.000 A 
BRANCH  23  29
ATOM     29  C   UNL     1      -3.510  13.678  22.664  0.00  0.00    +0.000 C 
BRANCH  29  30
ATOM     30  C   UNL     1      -4.465  13.832  21.473  0.00  0.00    +0.000 C 
BRANCH  30  31
ATOM     31  C   UNL     1      -5.263  12.559  21.184  0.00  0.00    +0.000 C 
BRANCH  31  33
ATOM     32  C   UNL     1      -4.220  11.965  18.968  0.00  0.00    +0.000 C 
ATOM     33  C   UNL     1      -5.492  12.390  19.682  0.00  0.00    +0.000 C 
ENDBRANCH  31  33
ENDBRANCH  30  31
ENDBRANCH  29  30
ENDBRANCH  23  29
ENDBRANCH  22  26
ENDBRANCH  21  22
ENDBRANCH   1  21
TORSDOF 8
ENDMDL
MODEL 4
REMARK VINA RESULT:      -8.1      1.168      1.993
REMARK  Name = 
REMARK  11 active torsions:
REMARK  status: ('A' for Active; 'I' for Inactive)
REMARK    1  A    between atoms: C_1  and  C_2
REMARK    2  A    between atoms: C_2  and  C_3
REMARK    3  A    between atoms: C_3  and  C_4
REMARK    4  A    between atoms: C_4  and  C_5
REMARK    5  A    between atoms: C_5  and  C_6
REMARK    6  A    between atoms: C_9  and  O_10
REMARK    7  A    between atoms: O_10  and  C_11
REMARK    8  A    between atoms: C_11  and  C_12
REMARK    9  A    between atoms: C_16  and  N_17
REMARK   10  A    between atoms: C_24  and  C_25
REMARK   11  A    between atoms: C_24  and  C_26
REMARK                            x       y       z     vdW  Elec       q    Type
REMARK                         _______ _______ _______ _____ _____    ______ ____
ROOT
ATOM      1  C   UNL     1       6.926   6.130  17.690  0.00  0.00    +0.000 A 
ATOM      2  C   UNL     1       6.769   5.821  16.341  0.00  0.00    +0.000 A 
ATOM      3  C   UNL     1       5.726   4.997  15.953  0.00  0.00    +0.000 A 
ATOM      4  C   UNL     1       4.820   4.517  16.907  0.00  0.00    +0.000 A 
ATOM      5  C   UNL     1       4.987   4.729  18.285  0.00  0.00    +0.000 A 
ATOM      6  C   UNL     1       6.096   5.514  18.644  0.00  0.00    +0.000 A 
ENDROOT
BRANCH   5   7
ATOM      7  N   UNL     1       4.045   4.275  19.248  0.00  0.00    +0.000 N 
ATOM      8  C   UNL     1       4.085   3.037  19.863  0.00  0.00    +0.000 C 
ATOM      9  N   UNL     1       5.149   2.215  19.652  0.00  0.00    +0.000 N 
ATOM     10  N   UNL     1       3.194   2.565  20.674  0.00  0.00    +0.000 NA
ATOM     11  C   UNL     1       2.161   3.362  21.008  0.00  0.00    +0.000 C 
ATOM     12  N   UNL     1       1.396   2.947  22.049  0.00  0.00    +0.000 N 
ATOM     13  N   UNL     1       1.846   4.450  20.413  0.00  0.00    +0.000 NA
ATOM     14  C   UNL     1       2.697   4.908  19.309  0.00  0.00    +0.000 C 
ATOM     15  C   UNL     1       1.911   4.601  18.018  0.00  0.00    +0.000 C 
ATOM     16  C   UNL     1       2.720   6.433  19.521  0.00  0.00    +0.000 C 
ATOM     17  H   UNL     1       6.045   2.684  19.615  0.00  0.00    +0.000 HD
ATOM     18  H   UNL     1       5.146   1.435  20.297  0.00  0.00    +0.000 HD
ATOM     19  H   UNL     1       1.429   1.945  22.173  0.00  0.00    +0.000 HD
ATOM     20  H   UNL     1       0.471   3.350  22.035  0.00  0.00    +0.000 HD
ENDBRANCH   5   7
BRANCH   1  21
ATOM     21  C   UNL     1       7.954   7.131  18.137  0.00  0.00    +0.000 C 
BRANCH  21  22
ATOM     22  O   UNL     1       7.679   8.387  17.494  0.00  0.00    +0.000 OA
BRANCH  22  26
ATOM     23  C   UNL     1       9.477  11.761  19.161  0.00  0.00    +0.000 A 
ATOM     24  C   UNL     1       9.637  10.517  19.783  0.00  0.00    +0.000 A 
ATOM     25  C   UNL     1       9.086   9.371  19.223  0.00  0.00    +0.000 A 
ATOM     26  C   UNL     1       8.323   9.453  18.060  0.00  0.00    +0.000 A 
ATOM     27  C   UNL     1       8.180  10.682  17.416  0.00  0.00    +0.000 A 
ATOM     28  C   UNL     1       8.749  11.833  17.964  0.00  0.00    +0.000 A 
BRANCH  23  29
ATOM     29  C   UNL     1      10.102  12.985  19.783  0.00  0.00    +0.000 C 
BRANCH  29  30
ATOM     30  C   UNL     1      10.714  13.944  18.752  0.00  0.00    +0.000 C 
BRANCH  30  31
ATOM     31  C   UNL     1      10.798  15.385  19.259  0.00  0.00    +0.000 C 
BRANCH  31  33
ATOM     32  C   UNL     1      11.033  15.711  16.771  0.00  0.00    +0.000 C 
ATOM     33  C   UNL     1      10.708  16.376  18.099  0.00  0.00    +0.000 C 
ENDBRANCH  31  33
ENDBRANCH  30  31
ENDBRANCH  29  30
ENDBRANCH  23  29
ENDBRANCH  22  26
ENDBRANCH  21  22
ENDBRANCH   1  21
TORSDOF 8
ENDMDL
MODEL 5
REMARK VINA RESULT:      -8.1      6.209      8.367
REMARK  Name = 
REMARK  11 active torsions:
REMARK  status: ('A' for Active; 'I' for Inactive)
REMARK    1  A    between atoms: C_1  and  C_2
REMARK    2  A    between atoms: C_2  and  C_3
REMARK    3  A    between atoms: C_3  and  C_4
REMARK    4  A    between atoms: C_4  and  C_5
REMARK    5  A    between atoms: C_5  and  C_6
REMARK    6  A    between atoms: C_9  and  O_10
REMARK    7  A    between atoms: O_10  and  C_11
REMARK    8  A    between atoms: C_11  and  C_12
REMARK    9  A    between atoms: C_16  and  N_17
REMARK   10  A    between atoms: C_24  and  C_25
REMARK   11  A    between atoms: C_24  and  C_26
REMARK                            x       y       z     vdW  Elec       q    Type
REMARK                         _______ _______ _______ _____ _____    ______ ____
ROOT
ATOM      1  C   UNL     1       1.409   8.378  20.175  0.00  0.00    +0.000 A 
ATOM      2  C   UNL     1       1.476   9.044  18.954  0.00  0.00    +0.000 A 
ATOM      3  C   UNL     1       2.158   8.458  17.900  0.00  0.00    +0.000 A 
ATOM      4  C   UNL     1       2.735   7.192  18.057  0.00  0.00    +0.000 A 
ATOM      5  C   UNL     1       2.768   6.522  19.290  0.00  0.00    +0.000 A 
ATOM      6  C   UNL     1       2.124   7.180  20.352  0.00  0.00    +0.000 A 
ENDROOT
BRANCH   5   7
ATOM      7  N   UNL     1       3.320   5.219  19.438  0.00  0.00    +0.000 N 
ATOM      8  C   UNL     1       4.654   4.906  19.255  0.00  0.00    +0.000 C 
ATOM      9  N   UNL     1       5.555   5.901  19.037  0.00  0.00    +0.000 N 
ATOM     10  N   UNL     1       5.165   3.718  19.296  0.00  0.00    +0.000 NA
ATOM     11  C   UNL     1       4.350   2.691  19.606  0.00  0.00    +0.000 C 
ATOM     12  N   UNL     1       4.955   1.513  19.898  0.00  0.00    +0.000 N 
ATOM     13  N   UNL     1       3.071   2.744  19.624  0.00  0.00    +0.000 NA
ATOM     14  C   UNL     1       2.427   4.031  19.338  0.00  0.00    +0.000 C 
ATOM     15  C   UNL     1       1.867   3.910  17.906  0.00  0.00    +0.000 C 
ATOM     16  C   UNL     1       1.248   4.036  20.328  0.00  0.00    +0.000 C 
ATOM     17  H   UNL     1       5.403   6.738  19.585  0.00  0.00    +0.000 HD
ATOM     18  H   UNL     1       6.506   5.560  19.107  0.00  0.00    +0.000 HD
ATOM     19  H   UNL     1       5.864   1.431  19.465  0.00  0.00    +0.000 HD
ATOM     20  H   UNL     1       4.342   0.720  19.770  0.00  0.00    +0.000 HD
ENDBRANCH   5   7
BRANCH   1  21
ATOM     21  C   UNL     1       0.562   8.909  21.297  0.00  0.00    +0.000 C 
BRANCH  21  22
ATOM     22  O   UNL     1       0.735  10.335  21.365  0.00  0.00    +0.000 OA
BRANCH  22  26
ATOM     23  C   UNL     1      -2.739  12.506  22.152  0.00  0.00    +0.000 A 
ATOM     24  C   UNL     1      -2.238  12.457  20.846  0.00  0.00    +0.000 A 
ATOM     25  C   UNL     1      -1.108  11.703  20.549  0.00  0.00    +0.000 A 
ATOM     26  C   UNL     1      -0.429  11.026  21.560  0.00  0.00    +0.000 A 
ATOM     27  C   UNL     1      -0.934  11.045  22.861  0.00  0.00    +0.000 A 
ATOM     28  C   UNL     1      -2.080  11.783  23.159  0.00  0.00    +0.000 A 
BRANCH  23  29
ATOM     29  C   UNL     1      -3.977  13.317  22.440  0.00  0.00    +0.000 C 
BRANCH  29  30
ATOM     30  C   UNL     1      -4.059  13.804  23.893  0.00  0.00    +0.000 C 
BRANCH  30  31
ATOM     31  C   UNL     1      -4.440  15.281  24.003  0.00  0.00    +0.000 C 
BRANCH  31  33
ATOM     32  C   UNL     1      -2.393  15.123  25.465  0.00  0.00    +0.000 C 
ATOM     33  C   UNL     1      -3.560  15.995  25.030  0.00  0.00    +0.000 C 
ENDBRANCH  31  33
ENDBRANCH  30  31
ENDBRANCH  29  30
ENDBRANCH  23  29
ENDBRANCH  22  26
ENDBRANCH  21  22
ENDBRANCH   1  21
TORSDOF 8
ENDMDL
MODEL 6
REMARK VINA RESULT:      -8.0      5.976      8.783
REMARK  Name = 
REMARK  11 active torsions:
REMARK  status: ('A' for Active; 'I' for Inactive)
REMARK    1  A    between atoms: C_1  and  C_2
REMARK    2  A    between atoms: C_2  and  C_3
REMARK    3  A    between atoms: C_3  and  C_4
REMARK    4  A    between atoms: C_4  and  C_5
REMARK    5  A    between atoms: C_5  and  C_6
REMARK    6  A    between atoms: C_9  and  O_10
REMARK    7  A    between atoms: O_10  and  C_11
REMARK    8  A    between atoms: C_11  and  C_12
REMARK    9  A    between atoms: C_16  and  N_17
REMARK   10  A    between atoms: C_24  and  C_25
REMARK   11  A    between atoms: C_24  and  C_26
REMARK                            x       y       z     vdW  Elec       q    Type
REMARK                         _______ _______ _______ _____ _____    ______ ____
ROOT
ATOM      1  C   UNL     1       1.400   8.405  20.289  0.00  0.00    +0.000 A 
ATOM      2  C   UNL     1       1.386   9.061  19.060  0.00  0.00    +0.000 A 
ATOM      3  C   UNL     1       1.995   8.464  17.968  0.00  0.00    +0.000 A 
ATOM      4  C   UNL     1       2.581   7.199  18.098  0.00  0.00    +0.000 A 
ATOM      5  C   UNL     1       2.697   6.540  19.332  0.00  0.00    +0.000 A 
ATOM      6  C   UNL     1       2.125   7.209  20.428  0.00  0.00    +0.000 A 
ENDROOT
BRANCH   5   7
ATOM      7  N   UNL     1       3.257   5.239  19.454  0.00  0.00    +0.000 N 
ATOM      8  C   UNL     1       4.589   4.934  19.246  0.00  0.00    +0.000 C 
ATOM      9  N   UNL     1       5.482   5.937  19.028  0.00  0.00    +0.000 N 
ATOM     10  N   UNL     1       5.106   3.748  19.264  0.00  0.00    +0.000 NA
ATOM     11  C   UNL     1       4.301   2.713  19.572  0.00  0.00    +0.000 C 
ATOM     12  N   UNL     1       4.916   1.534  19.840  0.00  0.00    +0.000 N 
ATOM     13  N   UNL     1       3.023   2.759  19.610  0.00  0.00    +0.000 NA
ATOM     14  C   UNL     1       2.368   4.047  19.351  0.00  0.00    +0.000 C 
ATOM     15  C   UNL     1       1.787   3.943  17.926  0.00  0.00    +0.000 C 
ATOM     16  C   UNL     1       1.204   4.033  20.359  0.00  0.00    +0.000 C 
ATOM     17  H   UNL     1       5.334   6.766  19.590  0.00  0.00    +0.000 HD
ATOM     18  H   UNL     1       6.436   5.600  19.079  0.00  0.00    +0.000 HD
ATOM     19  H   UNL     1       5.819   1.463  19.392  0.00  0.00    +0.000 HD
ATOM     20  H   UNL     1       4.305   0.741  19.710  0.00  0.00    +0.000 HD
ENDBRANCH   5   7
BRANCH   1  21
ATOM     21  C   UNL     1       0.631   8.947  21.461  0.00  0.00    +0.000 C 
BRANCH  21  22
ATOM     22  O   UNL     1       0.909  10.353  21.579  0.00  0.00    +0.000 OA
BRANCH  22  26
ATOM     23  C   UNL     1      -2.484  12.678  22.270  0.00  0.00    +0.000 A 
ATOM     24  C   UNL     1      -2.138  11.676  23.184  0.00  0.00    +0.000 A 
ATOM     25  C   UNL     1      -0.987  10.919  23.000  0.00  0.00    +0.000 A 
ATOM     26  C   UNL     1      -0.190  11.113  21.875  0.00  0.00    +0.000 A 
ATOM     27  C   UNL     1      -0.509  12.126  20.971  0.00  0.00    +0.000 A 
ATOM     28  C   UNL     1      -1.653  12.904  21.162  0.00  0.00    +0.000 A 
BRANCH  23  29
ATOM     29  C   UNL     1      -3.729  13.497  22.506  0.00  0.00    +0.000 C 
BRANCH  29  30
ATOM     30  C   UNL     1      -4.610  13.635  21.256  0.00  0.00    +0.000 C 
BRANCH  30  31
ATOM     31  C   UNL     1      -5.310  12.328  20.877  0.00  0.00    +0.000 C 
BRANCH  31  33
ATOM     32  C   UNL     1      -7.564  11.233  20.615  0.00  0.00    +0.000 C 
ATOM     33  C   UNL     1      -6.810  12.550  20.689  0.00  0.00    +0.000 C 
ENDBRANCH  31  33
ENDBRANCH  30  31
ENDBRANCH  29  30
ENDBRANCH  23  29
ENDBRANCH  22  26
ENDBRANCH  21  22
ENDBRANCH   1  21
TORSDOF 8
ENDMDL
MODEL 7
REMARK VINA RESULT:      -8.0      1.165      1.635
REMARK  Name = 
REMARK  11 active torsions:
REMARK  status: ('A' for Active; 'I' for Inactive)
REMARK    1  A    between atoms: C_1  and  C_2
REMARK    2  A    between atoms: C_2  and  C_3
REMARK    3  A    between atoms: C_3  and  C_4
REMARK    4  A    between atoms: C_4  and  C_5
REMARK    5  A    between atoms: C_5  and  C_6
REMARK    6  A    between atoms: C_9  and  O_10
REMARK    7  A    between atoms: O_10  and  C_11
REMARK    8  A    between atoms: C_11  and  C_12
REMARK    9  A    between atoms: C_16  and  N_17
REMARK   10  A    between atoms: C_24  and  C_25
REMARK   11  A    between atoms: C_24  and  C_26
REMARK                            x       y       z     vdW  Elec       q    Type
REMARK                         _______ _______ _______ _____ _____    ______ ____
ROOT
ATOM      1  C   UNL     1       6.850   6.204  17.846  0.00  0.00    +0.000 A 
ATOM      2  C   UNL     1       6.654   5.993  16.484  0.00  0.00    +0.000 A 
ATOM      3  C   UNL     1       5.594   5.204  16.068  0.00  0.00    +0.000 A 
ATOM      4  C   UNL     1       4.714   4.660  17.011  0.00  0.00    +0.000 A 
ATOM      5  C   UNL     1       4.921   4.773  18.395  0.00  0.00    +0.000 A 
ATOM      6  C   UNL     1       6.045   5.525  18.777  0.00  0.00    +0.000 A 
ENDROOT
BRANCH   5   7
ATOM      7  N   UNL     1       4.004   4.254  19.350  0.00  0.00    +0.000 N 
ATOM      8  C   UNL     1       4.107   3.009  19.943  0.00  0.00    +0.000 C 
ATOM      9  N   UNL     1       5.210   2.246  19.718  0.00  0.00    +0.000 N 
ATOM     10  N   UNL     1       3.241   2.478  20.745  0.00  0.00    +0.000 NA
ATOM     11  C   UNL     1       2.169   3.216  21.093  0.00  0.00    +0.000 C 
ATOM     12  N   UNL     1       1.427   2.745  22.127  0.00  0.00    +0.000 N 
ATOM     13  N   UNL     1       1.799   4.297  20.518  0.00  0.00    +0.000 NA
ATOM     14  C   UNL     1       2.626   4.817  19.422  0.00  0.00    +0.000 C 
ATOM     15  C   UNL     1       1.855   4.494  18.125  0.00  0.00    +0.000 C 
ATOM     16  C   UNL     1       2.571   6.337  19.660  0.00  0.00    +0.000 C 
ATOM     17  H   UNL     1       6.082   2.760  19.689  0.00  0.00    +0.000 HD
ATOM     18  H   UNL     1       5.247   1.455  20.349  0.00  0.00    +0.000 HD
ATOM     19  H   UNL     1       1.511   1.744  22.233  0.00  0.00    +0.000 HD
ATOM     20  H   UNL     1       0.483   3.101  22.119  0.00  0.00    +0.000 HD
ENDBRANCH   5   7
BRANCH   1  21
ATOM     21  C   UNL     1       7.897   7.167  18.334  0.00  0.00    +0.000 C 
BRANCH  21  22
ATOM     22  O   UNL     1       7.887   8.324  17.482  0.00  0.00    +0.000 OA
BRANCH  22  26
ATOM     23  C   UNL     1       9.295  11.862  19.184  0.00  0.00    +0.000 A 
ATOM     24  C   UNL     1       9.467  10.652  19.867  0.00  0.00    +0.000 A 
ATOM     25  C   UNL     1       9.047   9.455  19.301  0.00  0.00    +0.000 A 
ATOM     26  C   UNL     1       8.403   9.448  18.066  0.00  0.00    +0.000 A 
ATOM     27  C   UNL     1       8.251  10.643  17.362  0.00  0.00    +0.000 A 
ATOM     28  C   UNL     1       8.689  11.846  17.918  0.00  0.00    +0.000 A 
BRANCH  23  29
ATOM     29  C   UNL     1       9.777  13.144  19.816  0.00  0.00    +0.000 C 
BRANCH  29  30
ATOM     30  C   UNL     1       8.637  14.099  20.196  0.00  0.00    +0.000 C 
BRANCH  30  31
ATOM     31  C   UNL     1       8.671  15.408  19.406  0.00  0.00    +0.000 C 
BRANCH  31  33
ATOM     32  C   UNL     1       6.865  14.898  17.724  0.00  0.00    +0.000 C 
ATOM     33  C   UNL     1       7.277  15.772  18.897  0.00  0.00    +0.000 C 
ENDBRANCH  31  33
ENDBRANCH  30  31
ENDBRANCH  29  30
ENDBRANCH  23  29
ENDBRANCH  22  26
ENDBRANCH  21  22
ENDBRANCH   1  21
TORSDOF 8
ENDMDL
MODEL 8
REMARK VINA RESULT:      -7.9      6.216      8.723
REMARK  Name = 
REMARK  11 active torsions:
REMARK  status: ('A' for Active; 'I' for Inactive)
REMARK    1  A    between atoms: C_1  and  C_2
REMARK    2  A    between atoms: C_2  and  C_3
REMARK    3  A    between atoms: C_3  and  C_4
REMARK    4  A    between atoms: C_4  and  C_5
REMARK    5  A    between atoms: C_5  and  C_6
REMARK    6  A    between atoms: C_9  and  O_10
REMARK    7  A    between atoms: O_10  and  C_11
REMARK    8  A    between atoms: C_11  and  C_12
REMARK    9  A    between atoms: C_16  and  N_17
REMARK   10  A    between atoms: C_24  and  C_25
REMARK   11  A    between atoms: C_24  and  C_26
REMARK                            x       y       z     vdW  Elec       q    Type
REMARK                         _______ _______ _______ _____ _____    ______ ____
ROOT
ATOM      1  C   UNL     1       1.443   8.296  20.385  0.00  0.00    +0.000 A 
ATOM      2  C   UNL     1       1.432   8.975  19.169  0.00  0.00    +0.000 A 
ATOM      3  C   UNL     1       2.038   8.396  18.066  0.00  0.00    +0.000 A 
ATOM      4  C   UNL     1       2.617   7.126  18.171  0.00  0.00    +0.000 A 
ATOM      5  C   UNL     1       2.729   6.442  19.392  0.00  0.00    +0.000 A 
ATOM      6  C   UNL     1       2.162   7.093  20.501  0.00  0.00    +0.000 A 
ENDROOT
BRANCH   5   7
ATOM      7  N   UNL     1       3.282   5.136  19.489  0.00  0.00    +0.000 N 
ATOM      8  C   UNL     1       4.617   4.831  19.299  0.00  0.00    +0.000 C 
ATOM      9  N   UNL     1       5.518   5.836  19.126  0.00  0.00    +0.000 N 
ATOM     10  N   UNL     1       5.129   3.643  19.293  0.00  0.00    +0.000 NA
ATOM     11  C   UNL     1       4.314   2.604  19.557  0.00  0.00    +0.000 C 
ATOM     12  N   UNL     1       4.919   1.415  19.804  0.00  0.00    +0.000 N 
ATOM     13  N   UNL     1       3.035   2.654  19.572  0.00  0.00    +0.000 NA
ATOM     14  C   UNL     1       2.391   3.951  19.336  0.00  0.00    +0.000 C 
ATOM     15  C   UNL     1       1.837   3.889  17.897  0.00  0.00    +0.000 C 
ATOM     16  C   UNL     1       1.207   3.915  20.320  0.00  0.00    +0.000 C 
ATOM     17  H   UNL     1       5.362   6.650  19.707  0.00  0.00    +0.000 HD
ATOM     18  H   UNL     1       6.469   5.493  19.185  0.00  0.00    +0.000 HD
ATOM     19  H   UNL     1       5.830   1.352  19.372  0.00  0.00    +0.000 HD
ATOM     20  H   UNL     1       4.308   0.628  19.640  0.00  0.00    +0.000 HD
ENDBRANCH   5   7
BRANCH   1  21
ATOM     21  C   UNL     1       0.677   8.820  21.567  0.00  0.00    +0.000 C 
BRANCH  21  22
ATOM     22  O   UNL     1       1.044  10.193  21.777  0.00  0.00    +0.000 OA
BRANCH  22  26
ATOM     23  C   UNL     1      -2.195  12.771  22.292  0.00  0.00    +0.000 A 
ATOM     24  C   UNL     1      -1.296  12.995  21.243  0.00  0.00    +0.000 A 
ATOM     25  C   UNL     1      -0.235  12.125  21.023  0.00  0.00    +0.000 A 
ATOM     26  C   UNL     1      -0.023  11.044  21.876  0.00  0.00    +0.000 A 
ATOM     27  C   UNL     1      -0.928  10.794  22.908  0.00  0.00    +0.000 A 
ATOM     28  C   UNL     1      -2.007  11.653  23.120  0.00  0.00    +0.000 A 
BRANCH  23  29
ATOM     29  C   UNL     1      -3.348  13.722  22.495  0.00  0.00    +0.000 C 
BRANCH  29  30
ATOM     30  C   UNL     1      -4.425  13.176  23.442  0.00  0.00    +0.000 C 
BRANCH  30  31
ATOM     31  C   UNL     1      -5.706  12.768  22.711  0.00  0.00    +0.000 C 
BRANCH  31  33
ATOM     32  C   UNL     1      -7.104  14.436  23.983  0.00  0.00    +0.000 C 
ATOM     33  C   UNL     1      -6.930  12.974  23.603  0.00  0.00    +0.000 C 
ENDBRANCH  31  33
ENDBRANCH  30  31
ENDBRANCH  29  30
ENDBRANCH  23  29
ENDBRANCH  22  26
ENDBRANCH  21  22
ENDBRANCH   1  21
TORSDOF 8
ENDMDL
MODEL 9
REMARK VINA RESULT:      -7.9      5.954      8.144
REMARK  Name = 
REMARK  11 active torsions:
REMARK  status: ('A' for Active; 'I' for Inactive)
REMARK    1  A    between atoms: C_1  and  C_2
REMARK    2  A    between atoms: C_2  and  C_3
REMARK    3  A    between atoms: C_3  and  C_4
REMARK    4  A    between atoms: C_4  and  C_5
REMARK    5  A    between atoms: C_5  and  C_6
REMARK    6  A    between atoms: C_9  and  O_10
REMARK    7  A    between atoms: O_10  and  C_11
REMARK    8  A    between atoms: C_11  and  C_12
REMARK    9  A    between atoms: C_16  and  N_17
REMARK   10  A    between atoms: C_24  and  C_25
REMARK   11  A    between atoms: C_24  and  C_26
REMARK                            x       y       z     vdW  Elec       q    Type
REMARK                         _______ _______ _______ _____ _____    ______ ____
ROOT
ATOM      1  C   UNL     1       1.461   8.450  19.917  0.00  0.00    +0.000 A 
ATOM      2  C   UNL     1       1.563   9.055  18.666  0.00  0.00    +0.000 A 
ATOM      3  C   UNL     1       2.269   8.415  17.661  0.00  0.00    +0.000 A 
ATOM      4  C   UNL     1       2.836   7.157  17.896  0.00  0.00    +0.000 A 
ATOM      5  C   UNL     1       2.834   6.548  19.161  0.00  0.00    +0.000 A 
ATOM      6  C   UNL     1       2.166   7.261  20.172  0.00  0.00    +0.000 A 
ENDROOT
BRANCH   5   7
ATOM      7  N   UNL     1       3.375   5.253  19.387  0.00  0.00    +0.000 N 
ATOM      8  C   UNL     1       4.704   4.916  19.213  0.00  0.00    +0.000 C 
ATOM      9  N   UNL     1       5.613   5.886  18.923  0.00  0.00    +0.000 N 
ATOM     10  N   UNL     1       5.206   3.728  19.325  0.00  0.00    +0.000 NA
ATOM     11  C   UNL     1       4.384   2.731  19.708  0.00  0.00    +0.000 C 
ATOM     12  N   UNL     1       4.981   1.568  20.070  0.00  0.00    +0.000 N 
ATOM     13  N   UNL     1       3.107   2.796  19.734  0.00  0.00    +0.000 NA
ATOM     14  C   UNL     1       2.471   4.069  19.372  0.00  0.00    +0.000 C 
ATOM     15  C   UNL     1       1.897   3.862  17.955  0.00  0.00    +0.000 C 
ATOM     16  C   UNL     1       1.301   4.149  20.369  0.00  0.00    +0.000 C 
ATOM     17  H   UNL     1       5.473   6.758  19.418  0.00  0.00    +0.000 HD
ATOM     18  H   UNL     1       6.561   5.541  19.006  0.00  0.00    +0.000 HD
ATOM     19  H   UNL     1       5.886   1.450  19.635  0.00  0.00    +0.000 HD
ATOM     20  H   UNL     1       4.361   0.775  19.998  0.00  0.00    +0.000 HD
ENDBRANCH   5   7
BRANCH   1  21
ATOM     21  C   UNL     1       0.588   9.040  20.990  0.00  0.00    +0.000 C 
BRANCH  21  22
ATOM     22  O   UNL     1      -0.137  10.148  20.431  0.00  0.00    +0.000 OA
BRANCH  22  26
ATOM     23  C   UNL     1      -1.313  13.154  23.072  0.00  0.00    +0.000 A 
ATOM     24  C   UNL     1      -1.531  11.814  23.412  0.00  0.00    +0.000 A 
ATOM     25  C   UNL     1      -1.107  10.793  22.570  0.00  0.00    +0.000 A 
ATOM     26  C   UNL     1      -0.504  11.091  21.350  0.00  0.00    +0.000 A 
ATOM     27  C   UNL     1      -0.257  12.422  21.012  0.00  0.00    +0.000 A 
ATOM     28  C   UNL     1      -0.662  13.451  21.864  0.00  0.00    +0.000 A 
BRANCH  23  29
ATOM     29  C   UNL     1      -1.768  14.240  24.015  0.00  0.00    +0.000 C 
BRANCH  29  30
ATOM     30  C   UNL     1      -3.295  14.337  24.138  0.00  0.00    +0.000 C 
BRANCH  30  31
ATOM     31  C   UNL     1      -3.985  14.562  22.791  0.00  0.00    +0.000 C 
BRANCH  31  33
ATOM     32  C   UNL     1      -4.547  12.631  21.272  0.00  0.00    +0.000 C 
ATOM     33  C   UNL     1      -4.972  13.434  22.491  0.00  0.00    +0.000 C 
ENDBRANCH  31  33
ENDBRANCH  30  31
ENDBRANCH  29  30
ENDBRANCH  23  29
ENDBRANCH  22  26
ENDBRANCH  21  22
ENDBRANCH   1  21
TORSDOF 8
ENDMDL
