MODEL 1
REMARK VINA RESULT:      -7.5      0.000      0.000
REMARK  Name = 
REMARK  12 active torsions:
REMARK  status: ('A' for Active; 'I' for Inactive)
REMARK    1  A    between atoms: C_1  and  C_2
REMARK    2  A    between atoms: C_2  and  N_3
REMARK    3  A    between atoms: C_2  and  C_15
REMARK    4  A    between atoms: N_3  and  C_4
REMARK    5  A    between atoms: C_4  and  C_5
REMARK    6  A    between atoms: C_5  and  O_6
REMARK    7  A    between atoms: C_5  and  C_7
REMARK    8  A    between atoms: C_7  and  O_8
REMARK    9  A    between atoms: O_8  and  C_9
REMARK   10  A    between atoms: C_15  and  C_16
REMARK   11  A    between atoms: C_15  and  S_17
REMARK   12  A    between atoms: S_17  and  C_18
REMARK                            x       y       z     vdW  Elec       q    Type
REMARK                         _______ _______ _______ _____ _____    ______ ____
ROOT
ATOM      1  N   UNL     1       5.071   3.496  17.951  0.00  0.00    +0.000 NA
ATOM      2  H   UNL     1       4.814   3.932  17.062  0.00  0.00    +0.000 HD
ENDROOT
BRANCH   1   4
ATOM      3  C   UNL     1       3.226   1.872  18.348  0.00  0.00    +0.000 C 
ATOM      4  C   UNL     1       3.829   3.238  18.718  0.00  0.00    +0.000 C 
BRANCH   4   5
ATOM      5  C   UNL     1       2.824   4.408  18.561  0.00  0.00    +0.000 C 
ATOM      6  C   UNL     1       1.447   3.905  18.117  0.00  0.00    +0.000 C 
BRANCH   5   7
ATOM      7  S   UNL     1       2.666   5.401  20.127  0.00  0.00    +0.000 S 
BRANCH   7   8
ATOM      8  C   UNL     1       2.191   7.017  19.500  0.00  0.00    +0.000 A 
ATOM      9  C   UNL     1       1.540   7.945  20.319  0.00  0.00    +0.000 A 
ATOM     10  C   UNL     1       1.219   9.218  19.842  0.00  0.00    +0.000 A 
ATOM     11  C   UNL     1       1.563   9.588  18.542  0.00  0.00    +0.000 A 
ATOM     12  C   UNL     1       2.213   8.673  17.719  0.00  0.00    +0.000 A 
ATOM     13  C   UNL     1       2.520   7.393  18.188  0.00  0.00    +0.000 A 
ENDBRANCH   7   8
ENDBRANCH   5   7
ENDBRANCH   4   5
ENDBRANCH   1   4
BRANCH   1  14
ATOM     14  C   UNL     1       6.020   4.386  18.638  0.00  0.00    +0.000 C 
BRANCH  14  15
ATOM     15  C   UNL     1       7.080   5.056  17.735  0.00  0.00    +0.000 C 
BRANCH  15  16
ATOM     16  O   UNL     1       8.085   4.140  17.278  0.00  0.00    +0.000 OA
ATOM     17  H   UNL     1       8.476   3.696  18.046  0.00  0.00    +0.000 HD
ENDBRANCH  15  16
BRANCH  15  18
ATOM     18  C   UNL     1       6.402   5.635  16.501  0.00  0.00    +0.000 C 
BRANCH  18  19
ATOM     19  O   UNL     1       7.375   5.648  15.460  0.00  0.00    +0.000 OA
BRANCH  19  20
ATOM     20  C   UNL     1       7.021   4.995  14.320  0.00  0.00    +0.000 A 
ATOM     21  C   UNL     1       5.862   4.229  14.434  0.00  0.00    +0.000 A 
ATOM     22  C   UNL     1       5.412   3.488  13.340  0.00  0.00    +0.000 A 
ATOM     23  C   UNL     1       6.105   3.541  12.137  0.00  0.00    +0.000 A 
ATOM     24  C   UNL     1       7.243   4.336  12.011  0.00  0.00    +0.000 A 
ATOM     25  C   UNL     1       7.702   5.069  13.105  0.00  0.00    +0.000 A 
ENDBRANCH  19  20
ENDBRANCH  18  19
ENDBRANCH  15  18
ENDBRANCH  14  15
ENDBRANCH   1  14
TORSDOF 10
ENDMDL
MODEL 2
REMARK VINA RESULT:      -6.8      1.282      2.077
REMARK  Name = 
REMARK  12 active torsions:
REMARK  status: ('A' for Active; 'I' for Inactive)
REMARK    1  A    between atoms: C_1  and  C_2
REMARK    2  A    between atoms: C_2  and  N_3
REMARK    3  A    between atoms: C_2  and  C_15
REMARK    4  A    between atoms: N_3  and  C_4
REMARK    5  A    between atoms: C_4  and  C_5
REMARK    6  A    between atoms: C_5  and  O_6
REMARK    7  A    between atoms: C_5  and  C_7
REMARK    8  A    between atoms: C_7  and  O_8
REMARK    9  A    between atoms: O_8  and  C_9
REMARK   10  A    between atoms: C_15  and  C_16
REMARK   11  A    between atoms: C_15  and  S_17
REMARK   12  A    between atoms: S_17  and  C_18
REMARK                            x       y       z     vdW  Elec       q    Type
REMARK                         _______ _______ _______ _____ _____    ______ ____
ROOT
ATOM      1  N   UNL     1       5.778   3.714  19.222  0.00  0.00    +0.000 NA
ATOM      2  H   UNL     1       6.128   3.188  18.418  0.00  0.00    +0.000 HD
ENDROOT
BRANCH   1   4
ATOM      3  C   UNL     1       4.128   2.496  20.634  0.00  0.00    +0.000 C 
ATOM      4  C   UNL     1       4.342   3.388  19.400  0.00  0.00    +0.000 C 
BRANCH   4   5
ATOM      5  C   UNL     1       3.742   2.786  18.103  0.00  0.00    +0.000 C 
ATOM      6  C   UNL     1       3.588   1.267  18.213  0.00  0.00    +0.000 C 
BRANCH   5   7
ATOM      7  S   UNL     1       2.109   3.565  17.669  0.00  0.00    +0.000 S 
BRANCH   7   8
ATOM      8  C   UNL     1       2.162   5.096  18.609  0.00  0.00    +0.000 A 
ATOM      9  C   UNL     1       2.494   6.307  17.994  0.00  0.00    +0.000 A 
ATOM     10  C   UNL     1       2.483   7.503  18.718  0.00  0.00    +0.000 A 
ATOM     11  C   UNL     1       2.120   7.504  20.064  0.00  0.00    +0.000 A 
ATOM     12  C   UNL     1       1.786   6.305  20.686  0.00  0.00    +0.000 A 
ATOM     13  C   UNL     1       1.812   5.105  19.968  0.00  0.00    +0.000 A 
ENDBRANCH   7   8
ENDBRANCH   5   7
ENDBRANCH   4   5
ENDBRANCH   1   4
BRANCH   1  14
ATOM     14  C   UNL     1       6.038   5.141  18.982  0.00  0.00    +0.000 C 
BRANCH  14  15
ATOM     15  C   UNL     1       5.987   5.590  17.504  0.00  0.00    +0.000 C 
BRANCH  15  16
ATOM     16  O   UNL     1       6.174   7.003  17.342  0.00  0.00    +0.000 OA
ATOM     17  H   UNL     1       6.348   7.397  18.211  0.00  0.00    +0.000 HD
ENDBRANCH  15  16
BRANCH  15  18
ATOM     18  C   UNL     1       7.095   4.895  16.725  0.00  0.00    +0.000 C 
BRANCH  18  19
ATOM     19  O   UNL     1       7.289   5.640  15.525  0.00  0.00    +0.000 OA
BRANCH  19  20
ATOM     20  C   UNL     1       6.981   4.984  14.374  0.00  0.00    +0.000 A 
ATOM     21  C   UNL     1       5.806   4.238  14.435  0.00  0.00    +0.000 A 
ATOM     22  C   UNL     1       5.398   3.496  13.324  0.00  0.00    +0.000 A 
ATOM     23  C   UNL     1       6.151   3.529  12.157  0.00  0.00    +0.000 A 
ATOM     24  C   UNL     1       7.306   4.305  12.083  0.00  0.00    +0.000 A 
ATOM     25  C   UNL     1       7.722   5.039  13.193  0.00  0.00    +0.000 A 
ENDBRANCH  19  20
ENDBRANCH  18  19
ENDBRANCH  15  18
ENDBRANCH  14  15
ENDBRANCH   1  14
TORSDOF 10
ENDMDL
MODEL 3
REMARK VINA RESULT:      -6.8      0.938      1.438
REMARK  Name = 
REMARK  12 active torsions:
REMARK  status: ('A' for Active; 'I' for Inactive)
REMARK    1  A    between atoms: C_1  and  C_2
REMARK    2  A    between atoms: C_2  and  N_3
REMARK    3  A    between atoms: C_2  and  C_15
REMARK    4  A    between atoms: N_3  and  C_4
REMARK    5  A    between atoms: C_4  and  C_5
REMARK    6  A    between atoms: C_5  and  O_6
REMARK    7  A    between atoms: C_5  and  C_7
REMARK    8  A    between atoms: C_7  and  O_8
REMARK    9  A    between atoms: O_8  and  C_9
REMARK   10  A    between atoms: C_15  and  C_16
REMARK   11  A    between atoms: C_15  and  S_17
REMARK   12  A    between atoms: S_17  and  C_18
REMARK                            x       y       z     vdW  Elec       q    Type
REMARK                         _______ _______ _______ _____ _____    ______ ____
ROOT
ATOM      1  N   UNL     1       4.616   3.723  19.362  0.00  0.00    +0.000 NA
ATOM      2  H   UNL     1       5.265   3.231  19.980  0.00  0.00    +0.000 HD
ENDROOT
BRANCH   1   4
ATOM      3  C   UNL     1       3.451   2.037  17.947  0.00  0.00    +0.000 C 
ATOM      4  C   UNL     1       3.393   2.896  19.221  0.00  0.00    +0.000 C 
BRANCH   4   5
ATOM      5  C   UNL     1       2.116   3.771  19.306  0.00  0.00    +0.000 C 
ATOM      6  C   UNL     1       0.857   2.909  19.443  0.00  0.00    +0.000 C 
BRANCH   5   7
ATOM      7  S   UNL     1       2.206   4.995  20.705  0.00  0.00    +0.000 S 
BRANCH   7   8
ATOM      8  C   UNL     1       2.104   6.565  19.836  0.00  0.00    +0.000 A 
ATOM      9  C   UNL     1       2.451   6.665  18.485  0.00  0.00    +0.000 A 
ATOM     10  C   UNL     1       2.321   7.877  17.801  0.00  0.00    +0.000 A 
ATOM     11  C   UNL     1       1.820   9.001  18.456  0.00  0.00    +0.000 A 
ATOM     12  C   UNL     1       1.469   8.913  19.800  0.00  0.00    +0.000 A 
ATOM     13  C   UNL     1       1.615   7.706  20.491  0.00  0.00    +0.000 A 
ENDBRANCH   7   8
ENDBRANCH   5   7
ENDBRANCH   4   5
ENDBRANCH   1   4
BRANCH   1  14
ATOM     14  C   UNL     1       5.305   3.986  18.090  0.00  0.00    +0.000 C 
BRANCH  14  15
ATOM     15  C   UNL     1       6.324   5.146  18.111  0.00  0.00    +0.000 C 
BRANCH  15  16
ATOM     16  O   UNL     1       7.499   4.845  18.877  0.00  0.00    +0.000 OA
ATOM     17  H   UNL     1       7.475   5.359  19.700  0.00  0.00    +0.000 HD
ENDBRANCH  15  16
BRANCH  15  18
ATOM     18  C   UNL     1       6.779   5.447  16.689  0.00  0.00    +0.000 C 
BRANCH  18  19
ATOM     19  O   UNL     1       5.902   4.741  15.814  0.00  0.00    +0.000 OA
BRANCH  19  20
ATOM     20  C   UNL     1       6.345   4.594  14.536  0.00  0.00    +0.000 A 
ATOM     21  C   UNL     1       5.595   3.706  13.767  0.00  0.00    +0.000 A 
ATOM     22  C   UNL     1       5.967   3.449  12.445  0.00  0.00    +0.000 A 
ATOM     23  C   UNL     1       7.066   4.101  11.898  0.00  0.00    +0.000 A 
ATOM     24  C   UNL     1       7.793   5.017  12.656  0.00  0.00    +0.000 A 
ATOM     25  C   UNL     1       7.431   5.268  13.978  0.00  0.00    +0.000 A 
ENDBRANCH  19  20
ENDBRANCH  18  19
ENDBRANCH  15  18
ENDBRANCH  14  15
ENDBRANCH   1  14
TORSDOF 10
ENDMDL
MODEL 4
REMARK VINA RESULT:      -6.8      4.543      6.511
REMARK  Name = 
REMARK  12 active torsions:
REMARK  status: ('A' for Active; 'I' for Inactive)
REMARK    1  A    between atoms: C_1  and  C_2
REMARK    2  A    between atoms: C_2  and  N_3
REMARK    3  A    between atoms: C_2  and  C_15
REMARK    4  A    between atoms: N_3  and  C_4
REMARK    5  A    between atoms: C_4  and  C_5
REMARK    6  A    between atoms: C_5  and  O_6
REMARK    7  A    between atoms: C_5  and  C_7
REMARK    8  A    between atoms: C_7  and  O_8
REMARK    9  A    between atoms: O_8  and  C_9
REMARK   10  A    between atoms: C_15  and  C_16
REMARK   11  A    between atoms: C_15  and  S_17
REMARK   12  A    between atoms: S_17  and  C_18
REMARK                            x       y       z     vdW  Elec       q    Type
REMARK                         _______ _______ _______ _____ _____    ______ ____
ROOT
ATOM      1  N   UNL     1       7.377   5.674  16.892  0.00  0.00    +0.000 NA
ATOM      2  H   UNL     1       8.174   5.467  16.286  0.00  0.00    +0.000 HD
ENDROOT
BRANCH   1   4
ATOM      3  C   UNL     1       5.507   5.633  15.249  0.00  0.00    +0.000 C 
ATOM      4  C   UNL     1       6.210   4.901  16.405  0.00  0.00    +0.000 C 
BRANCH   4   5
ATOM      5  C   UNL     1       5.252   4.544  17.570  0.00  0.00    +0.000 C 
ATOM      6  C   UNL     1       5.992   4.511  18.910  0.00  0.00    +0.000 C 
BRANCH   5   7
ATOM      7  S   UNL     1       3.809   5.715  17.665  0.00  0.00    +0.000 S 
BRANCH   7   8
ATOM      8  C   UNL     1       2.570   4.716  18.500  0.00  0.00    +0.000 A 
ATOM      9  C   UNL     1       2.034   3.576  17.893  0.00  0.00    +0.000 A 
ATOM     10  C   UNL     1       1.109   2.775  18.568  0.00  0.00    +0.000 A 
ATOM     11  C   UNL     1       0.723   3.093  19.869  0.00  0.00    +0.000 A 
ATOM     12  C   UNL     1       1.252   4.224  20.484  0.00  0.00    +0.000 A 
ATOM     13  C   UNL     1       2.164   5.037  19.805  0.00  0.00    +0.000 A 
ENDBRANCH   7   8
ENDBRANCH   5   7
ENDBRANCH   4   5
ENDBRANCH   1   4
BRANCH   1  14
ATOM     14  C   UNL     1       7.168   7.130  16.891  0.00  0.00    +0.000 C 
BRANCH  14  15
ATOM     15  C   UNL     1       7.616   7.869  18.172  0.00  0.00    +0.000 C 
BRANCH  15  16
ATOM     16  O   UNL     1       8.488   7.083  18.996  0.00  0.00    +0.000 OA
ATOM     17  H   UNL     1       9.404   7.234  18.715  0.00  0.00    +0.000 HD
ENDBRANCH  15  16
BRANCH  15  18
ATOM     18  C   UNL     1       8.375   9.133  17.789  0.00  0.00    +0.000 C 
BRANCH  18  19
ATOM     19  O   UNL     1       8.858   9.710  19.000  0.00  0.00    +0.000 OA
BRANCH  19  20
ATOM     20  C   UNL     1       9.533  10.884  18.859  0.00  0.00    +0.000 A 
ATOM     21  C   UNL     1       8.998  11.741  17.898  0.00  0.00    +0.000 A 
ATOM     22  C   UNL     1       9.619  12.965  17.640  0.00  0.00    +0.000 A 
ATOM     23  C   UNL     1      10.748  13.332  18.363  0.00  0.00    +0.000 A 
ATOM     24  C   UNL     1      11.261  12.492  19.349  0.00  0.00    +0.000 A 
ATOM     25  C   UNL     1      10.650  11.264  19.602  0.00  0.00    +0.000 A 
ENDBRANCH  19  20
ENDBRANCH  18  19
ENDBRANCH  15  18
ENDBRANCH  14  15
ENDBRANCH   1  14
TORSDOF 10
ENDMDL
MODEL 5
REMARK VINA RESULT:      -6.7      4.529      6.511
REMARK  Name = 
REMARK  12 active torsions:
REMARK  status: ('A' for Active; 'I' for Inactive)
REMARK    1  A    between atoms: C_1  and  C_2
REMARK    2  A    between atoms: C_2  and  N_3
REMARK    3  A    between atoms: C_2  and  C_15
REMARK    4  A    between atoms: N_3  and  C_4
REMARK    5  A    between atoms: C_4  and  C_5
REMARK    6  A    between atoms: C_5  and  O_6
REMARK    7  A    between atoms: C_5  and  C_7
REMARK    8  A    between atoms: C_7  and  O_8
REMARK    9  A    between atoms: O_8  and  C_9
REMARK   10  A    between atoms: C_15  and  C_16
REMARK   11  A    between atoms: C_15  and  S_17
REMARK   12  A    between atoms: S_17  and  C_18
REMARK                            x       y       z     vdW  Elec       q    Type
REMARK                         _______ _______ _______ _____ _____    ______ ____
ROOT
ATOM      1  N   UNL     1       6.120   6.555  16.268  0.00  0.00    +0.000 NA
ATOM      2  H   UNL     1       5.449   7.083  16.832  0.00  0.00    +0.000 HD
ENDROOT
BRANCH   1   4
ATOM      3  C   UNL     1       5.685   4.416  15.070  0.00  0.00    +0.000 C 
ATOM      4  C   UNL     1       5.832   5.111  16.435  0.00  0.00    +0.000 C 
BRANCH   4   5
ATOM      5  C   UNL     1       4.609   4.890  17.363  0.00  0.00    +0.000 C 
ATOM      6  C   UNL     1       3.654   3.841  16.786  0.00  0.00    +0.000 C 
BRANCH   5   7
ATOM      7  S   UNL     1       5.125   4.407  19.084  0.00  0.00    +0.000 S 
BRANCH   7   8
ATOM      8  C   UNL     1       3.547   4.017  19.853  0.00  0.00    +0.000 A 
ATOM      9  C   UNL     1       2.570   5.001  20.030  0.00  0.00    +0.000 A 
ATOM     10  C   UNL     1       1.326   4.681  20.581  0.00  0.00    +0.000 A 
ATOM     11  C   UNL     1       1.035   3.367  20.943  0.00  0.00    +0.000 A 
ATOM     12  C   UNL     1       2.000   2.379  20.768  0.00  0.00    +0.000 A 
ATOM     13  C   UNL     1       3.252   2.699  20.233  0.00  0.00    +0.000 A 
ENDBRANCH   7   8
ENDBRANCH   5   7
ENDBRANCH   4   5
ENDBRANCH   1   4
BRANCH   1  14
ATOM     14  C   UNL     1       7.475   6.943  16.689  0.00  0.00    +0.000 C 
BRANCH  14  15
ATOM     15  C   UNL     1       7.576   7.618  18.075  0.00  0.00    +0.000 C 
BRANCH  15  16
ATOM     16  O   UNL     1       8.353   6.860  19.011  0.00  0.00    +0.000 OA
ATOM     17  H   UNL     1       9.289   7.092  18.903  0.00  0.00    +0.000 HD
ENDBRANCH  15  16
BRANCH  15  18
ATOM     18  C   UNL     1       8.247   8.978  17.929  0.00  0.00    +0.000 C 
BRANCH  18  19
ATOM     19  O   UNL     1       8.983   9.209  19.128  0.00  0.00    +0.000 OA
BRANCH  19  20
ATOM     20  C   UNL     1       9.423  10.484  19.306  0.00  0.00    +0.000 A 
ATOM     21  C   UNL     1       9.685  11.172  18.123  0.00  0.00    +0.000 A 
ATOM     22  C   UNL     1      10.170  12.481  18.176  0.00  0.00    +0.000 A 
ATOM     23  C   UNL     1      10.361  13.097  19.406  0.00  0.00    +0.000 A 
ATOM     24  C   UNL     1      10.064  12.422  20.589  0.00  0.00    +0.000 A 
ATOM     25  C   UNL     1       9.590  11.112  20.540  0.00  0.00    +0.000 A 
ENDBRANCH  19  20
ENDBRANCH  18  19
ENDBRANCH  15  18
ENDBRANCH  14  15
ENDBRANCH   1  14
TORSDOF 10
ENDMDL
MODEL 6
REMARK VINA RESULT:      -6.7      1.251      2.227
REMARK  Name = 
REMARK  12 active torsions:
REMARK  status: ('A' for Active; 'I' for Inactive)
REMARK    1  A    between atoms: C_1  and  C_2
REMARK    2  A    between atoms: C_2  and  N_3
REMARK    3  A    between atoms: C_2  and  C_15
REMARK    4  A    between atoms: N_3  and  C_4
REMARK    5  A    between atoms: C_4  and  C_5
REMARK    6  A    between atoms: C_5  and  O_6
REMARK    7  A    between atoms: C_5  and  C_7
REMARK    8  A    between atoms: C_7  and  O_8
REMARK    9  A    between atoms: O_8  and  C_9
REMARK   10  A    between atoms: C_15  and  C_16
REMARK   11  A    between atoms: C_15  and  S_17
REMARK   12  A    between atoms: S_17  and  C_18
REMARK                            x       y       z     vdW  Elec       q    Type
REMARK                         _______ _______ _______ _____ _____    ______ ____
ROOT
ATOM      1  N   UNL     1       5.653   3.660  18.627  0.00  0.00    +0.000 NA
ATOM      2  H   UNL     1       5.745   3.231  17.704  0.00  0.00    +0.000 HD
ENDROOT
BRANCH   1   4
ATOM      3  C   UNL     1       4.523   2.354  20.421  0.00  0.00    +0.000 C 
ATOM      4  C   UNL     1       4.342   3.264  19.194  0.00  0.00    +0.000 C 
BRANCH   4   5
ATOM      5  C   UNL     1       3.429   2.642  18.106  0.00  0.00    +0.000 C 
ATOM      6  C   UNL     1       3.486   1.112  18.139  0.00  0.00    +0.000 C 
BRANCH   5   7
ATOM      7  S   UNL     1       1.668   3.220  18.266  0.00  0.00    +0.000 S 
BRANCH   7   8
ATOM      8  C   UNL     1       1.877   4.887  18.907  0.00  0.00    +0.000 A 
ATOM      9  C   UNL     1       2.297   5.930  18.076  0.00  0.00    +0.000 A 
ATOM     10  C   UNL     1       2.408   7.234  18.567  0.00  0.00    +0.000 A 
ATOM     11  C   UNL     1       2.081   7.514  19.893  0.00  0.00    +0.000 A 
ATOM     12  C   UNL     1       1.659   6.484  20.727  0.00  0.00    +0.000 A 
ATOM     13  C   UNL     1       1.563   5.175  20.243  0.00  0.00    +0.000 A 
ENDBRANCH   7   8
ENDBRANCH   5   7
ENDBRANCH   4   5
ENDBRANCH   1   4
BRANCH   1  14
ATOM     14  C   UNL     1       5.820   5.113  18.474  0.00  0.00    +0.000 C 
BRANCH  14  15
ATOM     15  C   UNL     1       7.244   5.586  18.105  0.00  0.00    +0.000 C 
BRANCH  15  16
ATOM     16  O   UNL     1       8.264   4.666  18.519  0.00  0.00    +0.000 OA
ATOM     17  H   UNL     1       9.131   5.077  18.380  0.00  0.00    +0.000 HD
ENDBRANCH  15  16
BRANCH  15  18
ATOM     18  C   UNL     1       7.354   5.730  16.593  0.00  0.00    +0.000 C 
BRANCH  18  19
ATOM     19  O   UNL     1       6.331   4.917  16.022  0.00  0.00    +0.000 OA
BRANCH  19  20
ATOM     20  C   UNL     1       6.485   4.625  14.703  0.00  0.00    +0.000 A 
ATOM     21  C   UNL     1       7.512   5.328  14.075  0.00  0.00    +0.000 A 
ATOM     22  C   UNL     1       7.751   5.136  12.712  0.00  0.00    +0.000 A 
ATOM     23  C   UNL     1       6.982   4.225  11.998  0.00  0.00    +0.000 A 
ATOM     24  C   UNL     1       5.979   3.495  12.634  0.00  0.00    +0.000 A 
ATOM     25  C   UNL     1       5.731   3.692  13.991  0.00  0.00    +0.000 A 
ENDBRANCH  19  20
ENDBRANCH  18  19
ENDBRANCH  15  18
ENDBRANCH  14  15
ENDBRANCH   1  14
TORSDOF 10
ENDMDL
MODEL 7
REMARK VINA RESULT:      -6.6      1.121      1.388
REMARK  Name = 
REMARK  12 active torsions:
REMARK  status: ('A' for Active; 'I' for Inactive)
REMARK    1  A    between atoms: C_1  and  C_2
REMARK    2  A    between atoms: C_2  and  N_3
REMARK    3  A    between atoms: C_2  and  C_15
REMARK    4  A    between atoms: N_3  and  C_4
REMARK    5  A    between atoms: C_4  and  C_5
REMARK    6  A    between atoms: C_5  and  O_6
REMARK    7  A    between atoms: C_5  and  C_7
REMARK    8  A    between atoms: C_7  and  O_8
REMARK    9  A    between atoms: O_8  and  C_9
REMARK   10  A    between atoms: C_15  and  C_16
REMARK   11  A    between atoms: C_15  and  S_17
REMARK   12  A    between atoms: S_17  and  C_18
REMARK                            x       y       z     vdW  Elec       q    Type
REMARK                         _______ _______ _______ _____ _____    ______ ____
ROOT
ATOM      1  N   UNL     1       3.539   3.220  18.824  0.00  0.00    +0.000 NA
ATOM      2  H   UNL     1       3.744   2.272  19.147  0.00  0.00    +0.000 HD
ENDROOT
BRANCH   1   4
ATOM      3  C   UNL     1       1.659   3.999  17.389  0.00  0.00    +0.000 C 
ATOM      4  C   UNL     1       2.067   3.370  18.732  0.00  0.00    +0.000 C 
BRANCH   4   5
ATOM      5  C   UNL     1       1.508   4.139  19.957  0.00  0.00    +0.000 C 
ATOM      6  C   UNL     1       1.074   3.178  21.068  0.00  0.00    +0.000 C 
BRANCH   5   7
ATOM      7  S   UNL     1       2.734   5.371  20.621  0.00  0.00    +0.000 S 
BRANCH   7   8
ATOM      8  C   UNL     1       2.232   6.885  19.791  0.00  0.00    +0.000 A 
ATOM      9  C   UNL     1       1.493   7.863  20.464  0.00  0.00    +0.000 A 
ATOM     10  C   UNL     1       1.150   9.060  19.829  0.00  0.00    +0.000 A 
ATOM     11  C   UNL     1       1.559   9.303  18.519  0.00  0.00    +0.000 A 
ATOM     12  C   UNL     1       2.297   8.337  17.842  0.00  0.00    +0.000 A 
ATOM     13  C   UNL     1       2.627   7.131  18.468  0.00  0.00    +0.000 A 
ENDBRANCH   7   8
ENDBRANCH   5   7
ENDBRANCH   4   5
ENDBRANCH   1   4
BRANCH   1  14
ATOM     14  C   UNL     1       4.239   3.429  17.548  0.00  0.00    +0.000 C 
BRANCH  14  15
ATOM     15  C   UNL     1       5.269   4.580  17.532  0.00  0.00    +0.000 C 
BRANCH  15  16
ATOM     16  O   UNL     1       6.625   4.119  17.608  0.00  0.00    +0.000 OA
ATOM     17  H   UNL     1       6.647   3.175  17.384  0.00  0.00    +0.000 HD
ENDBRANCH  15  16
BRANCH  15  18
ATOM     18  C   UNL     1       5.131   5.365  16.234  0.00  0.00    +0.000 C 
BRANCH  18  19
ATOM     19  O   UNL     1       6.445   5.528  15.706  0.00  0.00    +0.000 OA
BRANCH  19  20
ATOM     20  C   UNL     1       6.636   5.034  14.452  0.00  0.00    +0.000 A 
ATOM     21  C   UNL     1       5.677   4.107  14.049  0.00  0.00    +0.000 A 
ATOM     22  C   UNL     1       5.780   3.506  12.792  0.00  0.00    +0.000 A 
ATOM     23  C   UNL     1       6.822   3.857  11.942  0.00  0.00    +0.000 A 
ATOM     24  C   UNL     1       7.760   4.811  12.331  0.00  0.00    +0.000 A 
ATOM     25  C   UNL     1       7.666   5.406  13.589  0.00  0.00    +0.000 A 
ENDBRANCH  19  20
ENDBRANCH  18  19
ENDBRANCH  15  18
ENDBRANCH  14  15
ENDBRANCH   1  14
TORSDOF 10
ENDMDL
MODEL 8
REMARK VINA RESULT:      -6.4      0.986      1.803
REMARK  Name = 
REMARK  12 active torsions:
REMARK  status: ('A' for Active; 'I' for Inactive)
REMARK    1  A    between atoms: C_1  and  C_2
REMARK    2  A    between atoms: C_2  and  N_3
REMARK    3  A    between atoms: C_2  and  C_15
REMARK    4  A    between atoms: N_3  and  C_4
REMARK    5  A    between atoms: C_4  and  C_5
REMARK    6  A    between atoms: C_5  and  O_6
REMARK    7  A    between atoms: C_5  and  C_7
REMARK    8  A    between atoms: C_7  and  O_8
REMARK    9  A    between atoms: O_8  and  C_9
REMARK   10  A    between atoms: C_15  and  C_16
REMARK   11  A    between atoms: C_15  and  S_17
REMARK   12  A    between atoms: S_17  and  C_18
REMARK                            x       y       z     vdW  Elec       q    Type
REMARK                         _______ _______ _______ _____ _____    ______ ____
ROOT
ATOM      1  N   UNL     1       5.256   3.660  18.260  0.00  0.00    +0.000 NA
ATOM      2  H   UNL     1       5.869   2.916  18.600  0.00  0.00    +0.000 HD
ENDROOT
BRANCH   1   4
ATOM      3  C   UNL     1       3.364   2.085  17.880  0.00  0.00    +0.000 C 
ATOM      4  C   UNL     1       3.863   3.325  18.643  0.00  0.00    +0.000 C 
BRANCH   4   5
ATOM      5  C   UNL     1       2.930   4.552  18.483  0.00  0.00    +0.000 C 
ATOM      6  C   UNL     1       1.562   4.144  17.927  0.00  0.00    +0.000 C 
BRANCH   5   7
ATOM      7  S   UNL     1       2.720   5.477  20.084  0.00  0.00    +0.000 S 
BRANCH   7   8
ATOM      8  C   UNL     1       2.256   7.117  19.512  0.00  0.00    +0.000 A 
ATOM      9  C   UNL     1       2.538   7.530  18.206  0.00  0.00    +0.000 A 
ATOM     10  C   UNL     1       2.129   8.787  17.751  0.00  0.00    +0.000 A 
ATOM     11  C   UNL     1       1.415   9.640  18.591  0.00  0.00    +0.000 A 
ATOM     12  C   UNL     1       1.127   9.237  19.892  0.00  0.00    +0.000 A 
ATOM     13  C   UNL     1       1.550   7.987  20.356  0.00  0.00    +0.000 A 
ENDBRANCH   7   8
ENDBRANCH   5   7
ENDBRANCH   4   5
ENDBRANCH   1   4
BRANCH   1  14
ATOM     14  C   UNL     1       5.458   3.791  16.810  0.00  0.00    +0.000 C 
BRANCH  14  15
ATOM     15  C   UNL     1       6.406   4.929  16.368  0.00  0.00    +0.000 C 
BRANCH  15  16
ATOM     16  O   UNL     1       7.779   4.520  16.306  0.00  0.00    +0.000 OA
ATOM     17  H   UNL     1       8.270   4.965  17.015  0.00  0.00    +0.000 HD
ENDBRANCH  15  16
BRANCH  15  18
ATOM     18  C   UNL     1       6.013   5.405  14.976  0.00  0.00    +0.000 C 
BRANCH  18  19
ATOM     19  O   UNL     1       6.918   4.796  14.058  0.00  0.00    +0.000 OA
BRANCH  19  20
ATOM     20  C   UNL     1       6.347   3.994  13.119  0.00  0.00    +0.000 A 
ATOM     21  C   UNL     1       7.254   3.218  12.400  0.00  0.00    +0.000 A 
ATOM     22  C   UNL     1       6.792   2.374  11.387  0.00  0.00    +0.000 A 
ATOM     23  C   UNL     1       5.430   2.293  11.123  0.00  0.00    +0.000 A 
ATOM     24  C   UNL     1       4.520   3.042  11.867  0.00  0.00    +0.000 A 
ATOM     25  C   UNL     1       4.979   3.893  12.872  0.00  0.00    +0.000 A 
ENDBRANCH  19  20
ENDBRANCH  18  19
ENDBRANCH  15  18
ENDBRANCH  14  15
ENDBRANCH   1  14
TORSDOF 10
ENDMDL
MODEL 9
REMARK VINA RESULT:      -6.4      1.266      3.896
REMARK  Name = 
REMARK  12 active torsions:
REMARK  status: ('A' for Active; 'I' for Inactive)
REMARK    1  A    between atoms: C_1  and  C_2
REMARK    2  A    between atoms: C_2  and  N_3
REMARK    3  A    between atoms: C_2  and  C_15
REMARK    4  A    between atoms: N_3  and  C_4
REMARK    5  A    between atoms: C_4  and  C_5
REMARK    6  A    between atoms: C_5  and  O_6
REMARK    7  A    between atoms: C_5  and  C_7
REMARK    8  A    between atoms: C_7  and  O_8
REMARK    9  A    between atoms: O_8  and  C_9
REMARK   10  A    between atoms: C_15  and  C_16
REMARK   11  A    between atoms: C_15  and  S_17
REMARK   12  A    between atoms: S_17  and  C_18
REMARK                            x       y       z     vdW  Elec       q    Type
REMARK                         _______ _______ _______ _____ _____    ______ ____
ROOT
ATOM      1  N   UNL     1       4.328   6.413  18.846  0.00  0.00    +0.000 NA
ATOM      2  H   UNL     1       4.617   6.091  19.773  0.00  0.00    +0.000 HD
ENDROOT
BRANCH   1   4
ATOM      3  C   UNL     1       2.394   7.812  18.137  0.00  0.00    +0.000 C 
ATOM      4  C   UNL     1       2.849   6.517  18.831  0.00  0.00    +0.000 C 
BRANCH   4   5
ATOM      5  C   UNL     1       2.265   6.354  20.258  0.00  0.00    +0.000 C 
ATOM      6  C   UNL     1       1.485   7.601  20.686  0.00  0.00    +0.000 C 
BRANCH   5   7
ATOM      7  S   UNL     1       1.184   4.846  20.396  0.00  0.00    +0.000 S 
BRANCH   7   8
ATOM      8  C   UNL     1       2.171   3.599  19.558  0.00  0.00    +0.000 A 
ATOM      9  C   UNL     1       3.292   3.034  20.175  0.00  0.00    +0.000 A 
ATOM     10  C   UNL     1       4.025   2.028  19.539  0.00  0.00    +0.000 A 
ATOM     11  C   UNL     1       3.634   1.560  18.286  0.00  0.00    +0.000 A 
ATOM     12  C   UNL     1       2.519   2.114  17.664  0.00  0.00    +0.000 A 
ATOM     13  C   UNL     1       1.793   3.132  18.290  0.00  0.00    +0.000 A 
ENDBRANCH   7   8
ENDBRANCH   5   7
ENDBRANCH   4   5
ENDBRANCH   1   4
BRANCH   1  14
ATOM     14  C   UNL     1       4.869   5.478  17.848  0.00  0.00    +0.000 C 
BRANCH  14  15
ATOM     15  C   UNL     1       6.396   5.249  17.906  0.00  0.00    +0.000 C 
BRANCH  15  16
ATOM     16  O   UNL     1       6.751   3.861  17.971  0.00  0.00    +0.000 OA
ATOM     17  H   UNL     1       6.454   3.501  18.821  0.00  0.00    +0.000 HD
ENDBRANCH  15  16
BRANCH  15  18
ATOM     18  C   UNL     1       7.042   5.823  16.652  0.00  0.00    +0.000 C 
BRANCH  18  19
ATOM     19  O   UNL     1       6.025   5.892  15.655  0.00  0.00    +0.000 OA
BRANCH  19  20
ATOM     20  C   UNL     1       6.254   5.154  14.535  0.00  0.00    +0.000 A 
ATOM     21  C   UNL     1       7.406   5.511  13.837  0.00  0.00    +0.000 A 
ATOM     22  C   UNL     1       7.733   4.845  12.654  0.00  0.00    +0.000 A 
ATOM     23  C   UNL     1       6.924   3.812  12.197  0.00  0.00    +0.000 A 
ATOM     24  C   UNL     1       5.792   3.430  12.914  0.00  0.00    +0.000 A 
ATOM     25  C   UNL     1       5.457   4.099  14.090  0.00  0.00    +0.000 A 
ENDBRANCH  19  20
ENDBRANCH  18  19
ENDBRANCH  15  18
ENDBRANCH  14  15
ENDBRANCH   1  14
TORSDOF 10
ENDMDL
