MODEL 1
REMARK VINA RESULT:      -7.9      0.000      0.000
REMARK  Name = 
REMARK  7 active torsions:
REMARK  status: ('A' for Active; 'I' for Inactive)
REMARK    1  A    between atoms: C_1  and  O_2
REMARK    2  A    between atoms: O_2  and  C_3
REMARK    3  A    between atoms: C_7  and  N_8
REMARK    4  A    between atoms: N_8  and  S_9
REMARK    5  A    between atoms: S_9  and  C_12
REMARK    6  A    between atoms: C_15  and  C_16
REMARK    7  A    between atoms: C_19  and  C_20
REMARK                            x       y       z     vdW  Elec       q    Type
REMARK                         _______ _______ _______ _____ _____    ______ ____
ROOT
ATOM      1  S   UNL     1       3.674   3.202  18.719  0.00  0.00    +0.000 S 
ATOM      2  O   UNL     1       3.580   2.880  17.314  0.00  0.00    +0.000 OA
ATOM      3  O   UNL     1       3.093   2.349  19.731  0.00  0.00    +0.000 OA
ENDROOT
BRANCH   1   4
ATOM      4  C   UNL     1       3.011   4.841  18.939  0.00  0.00    +0.000 A 
ATOM      5  C   UNL     1       3.003   5.743  17.870  0.00  0.00    +0.000 A 
ATOM      6  C   UNL     1       2.535   7.048  18.071  0.00  0.00    +0.000 A 
ATOM      7  C   UNL     1       2.054   7.443  19.329  0.00  0.00    +0.000 A 
ATOM      8  C   UNL     1       2.066   6.520  20.386  0.00  0.00    +0.000 A 
ATOM      9  C   UNL     1       2.520   5.216  20.189  0.00  0.00    +0.000 A 
BRANCH   7  10
ATOM     10  C   UNL     1       1.527   8.778  19.526  0.00  0.00    +0.000 A 
ATOM     11  C   UNL     1       1.460   9.755  18.558  0.00  0.00    +0.000 A 
ATOM     12  O   UNL     1       0.934  10.873  19.116  0.00  0.00    +0.000 OA
ATOM     13  C   UNL     1       0.710  10.519  20.417  0.00  0.00    +0.000 A 
ATOM     14  C   UNL     1       0.141  11.571  21.283  0.00  0.00    +0.000 C 
ATOM     15  N   UNL     1       1.052   9.280  20.716  0.00  0.00    +0.000 NA
ENDBRANCH   7  10
ENDBRANCH   1   4
BRANCH   1  16
ATOM     16  N   UNL     1       5.306   3.421  19.047  0.00  0.00    +0.000 N 
ATOM     17  H   UNL     1       5.782   2.673  19.546  0.00  0.00    +0.000 HD
BRANCH  16  22
ATOM     18  C   UNL     1       7.012   5.373  16.384  0.00  0.00    +0.000 A 
ATOM     19  C   UNL     1       7.495   6.450  17.134  0.00  0.00    +0.000 A 
ATOM     20  C   UNL     1       7.263   6.513  18.511  0.00  0.00    +0.000 A 
ATOM     21  C   UNL     1       6.535   5.505  19.140  0.00  0.00    +0.000 A 
ATOM     22  C   UNL     1       6.051   4.435  18.393  0.00  0.00    +0.000 A 
ATOM     23  C   UNL     1       6.304   4.356  17.024  0.00  0.00    +0.000 A 
BRANCH  18  25
ATOM     24  C   UNL     1       6.587   4.505  14.216  0.00  0.00    +0.000 C 
ATOM     25  O   UNL     1       7.292   5.425  15.044  0.00  0.00    +0.000 OA
ENDBRANCH  18  25
ENDBRANCH  16  22
ENDBRANCH   1  16
TORSDOF 5
ENDMDL
MODEL 2
REMARK VINA RESULT:      -7.8      0.379      1.048
REMARK  Name = 
REMARK  7 active torsions:
REMARK  status: ('A' for Active; 'I' for Inactive)
REMARK    1  A    between atoms: C_1  and  O_2
REMARK    2  A    between atoms: O_2  and  C_3
REMARK    3  A    between atoms: C_7  and  N_8
REMARK    4  A    between atoms: N_8  and  S_9
REMARK    5  A    between atoms: S_9  and  C_12
REMARK    6  A    between atoms: C_15  and  C_16
REMARK    7  A    between atoms: C_19  and  C_20
REMARK                            x       y       z     vdW  Elec       q    Type
REMARK                         _______ _______ _______ _____ _____    ______ ____
ROOT
ATOM      1  S   UNL     1       3.724   3.205  18.908  0.00  0.00    +0.000 S 
ATOM      2  O   UNL     1       3.491   2.722  17.566  0.00  0.00    +0.000 OA
ATOM      3  O   UNL     1       3.210   2.506  20.064  0.00  0.00    +0.000 OA
ENDROOT
BRANCH   1   4
ATOM      4  C   UNL     1       3.136   4.886  18.981  0.00  0.00    +0.000 A 
ATOM      5  C   UNL     1       2.826   5.468  20.214  0.00  0.00    +0.000 A 
ATOM      6  C   UNL     1       2.308   6.768  20.253  0.00  0.00    +0.000 A 
ATOM      7  C   UNL     1       2.123   7.494  19.067  0.00  0.00    +0.000 A 
ATOM      8  C   UNL     1       2.447   6.894  17.840  0.00  0.00    +0.000 A 
ATOM      9  C   UNL     1       2.974   5.603  17.795  0.00  0.00    +0.000 A 
BRANCH   7  10
ATOM     10  C   UNL     1       1.631   8.856  19.110  0.00  0.00    +0.000 A 
ATOM     11  C   UNL     1       1.797   9.790  18.110  0.00  0.00    +0.000 A 
ATOM     12  O   UNL     1       1.228  10.953  18.515  0.00  0.00    +0.000 OA
ATOM     13  C   UNL     1       0.745  10.668  19.761  0.00  0.00    +0.000 A 
ATOM     14  C   UNL     1       0.072  11.780  20.462  0.00  0.00    +0.000 C 
ATOM     15  N   UNL     1       0.964   9.432  20.167  0.00  0.00    +0.000 NA
ENDBRANCH   7  10
ENDBRANCH   1   4
BRANCH   1  16
ATOM     16  N   UNL     1       5.385   3.393  19.063  0.00  0.00    +0.000 N 
ATOM     17  H   UNL     1       5.901   2.618  19.475  0.00  0.00    +0.000 HD
BRANCH  16  22
ATOM     18  C   UNL     1       6.852   5.422  16.318  0.00  0.00    +0.000 A 
ATOM     19  C   UNL     1       7.398   6.479  17.053  0.00  0.00    +0.000 A 
ATOM     20  C   UNL     1       7.287   6.503  18.446  0.00  0.00    +0.000 A 
ATOM     21  C   UNL     1       6.617   5.476  19.108  0.00  0.00    +0.000 A 
ATOM     22  C   UNL     1       6.070   4.426  18.376  0.00  0.00    +0.000 A 
ATOM     23  C   UNL     1       6.202   4.386  16.989  0.00  0.00    +0.000 A 
BRANCH  18  25
ATOM     24  C   UNL     1       6.531   4.413  14.193  0.00  0.00    +0.000 C 
ATOM     25  O   UNL     1       7.014   5.512  14.960  0.00  0.00    +0.000 OA
ENDBRANCH  18  25
ENDBRANCH  16  22
ENDBRANCH   1  16
TORSDOF 5
ENDMDL
MODEL 3
REMARK VINA RESULT:      -7.6      1.276      2.314
REMARK  Name = 
REMARK  7 active torsions:
REMARK  status: ('A' for Active; 'I' for Inactive)
REMARK    1  A    between atoms: C_1  and  O_2
REMARK    2  A    between atoms: O_2  and  C_3
REMARK    3  A    between atoms: C_7  and  N_8
REMARK    4  A    between atoms: N_8  and  S_9
REMARK    5  A    between atoms: S_9  and  C_12
REMARK    6  A    between atoms: C_15  and  C_16
REMARK    7  A    between atoms: C_19  and  C_20
REMARK                            x       y       z     vdW  Elec       q    Type
REMARK                         _______ _______ _______ _____ _____    ______ ____
ROOT
ATOM      1  S   UNL     1       2.939   3.304  18.230  0.00  0.00    +0.000 S 
ATOM      2  O   UNL     1       2.554   3.368  16.838  0.00  0.00    +0.000 OA
ATOM      3  O   UNL     1       2.461   2.253  19.100  0.00  0.00    +0.000 OA
ENDROOT
BRANCH   1   4
ATOM      4  C   UNL     1       2.512   4.866  18.975  0.00  0.00    +0.000 A 
ATOM      5  C   UNL     1       1.961   4.903  20.260  0.00  0.00    +0.000 A 
ATOM      6  C   UNL     1       1.574   6.131  20.810  0.00  0.00    +0.000 A 
ATOM      7  C   UNL     1       1.760   7.321  20.090  0.00  0.00    +0.000 A 
ATOM      8  C   UNL     1       2.321   7.262  18.804  0.00  0.00    +0.000 A 
ATOM      9  C   UNL     1       2.719   6.043  18.255  0.00  0.00    +0.000 A 
BRANCH   7  10
ATOM     10  C   UNL     1       1.403   8.597  20.676  0.00  0.00    +0.000 A 
ATOM     11  C   UNL     1       1.360   8.864  22.028  0.00  0.00    +0.000 A 
ATOM     12  O   UNL     1       0.963  10.149  22.196  0.00  0.00    +0.000 OA
ATOM     13  C   UNL     1       0.773  10.606  20.922  0.00  0.00    +0.000 A 
ATOM     14  C   UNL     1       0.315  12.004  20.798  0.00  0.00    +0.000 C 
ATOM     15  N   UNL     1       1.017   9.717  19.977  0.00  0.00    +0.000 NA
ENDBRANCH   7  10
ENDBRANCH   1   4
BRANCH   1  16
ATOM     16  N   UNL     1       4.617   3.332  18.260  0.00  0.00    +0.000 N 
ATOM     17  H   UNL     1       5.078   2.698  18.909  0.00  0.00    +0.000 HD
BRANCH  16  22
ATOM     18  C   UNL     1       6.831   5.719  16.469  0.00  0.00    +0.000 A 
ATOM     19  C   UNL     1       6.813   5.161  15.187  0.00  0.00    +0.000 A 
ATOM     20  C   UNL     1       6.062   4.013  14.925  0.00  0.00    +0.000 A 
ATOM     21  C   UNL     1       5.335   3.409  15.949  0.00  0.00    +0.000 A 
ATOM     22  C   UNL     1       5.355   3.962  17.227  0.00  0.00    +0.000 A 
ATOM     23  C   UNL     1       6.083   5.123  17.484  0.00  0.00    +0.000 A 
BRANCH  18  25
ATOM     24  C   UNL     1       7.772   7.333  17.933  0.00  0.00    +0.000 C 
ATOM     25  O   UNL     1       7.610   6.837  16.607  0.00  0.00    +0.000 OA
ENDBRANCH  18  25
ENDBRANCH  16  22
ENDBRANCH   1  16
TORSDOF 5
ENDMDL
MODEL 4
REMARK VINA RESULT:      -7.6      1.269      2.065
REMARK  Name = 
REMARK  7 active torsions:
REMARK  status: ('A' for Active; 'I' for Inactive)
REMARK    1  A    between atoms: C_1  and  O_2
REMARK    2  A    between atoms: O_2  and  C_3
REMARK    3  A    between atoms: C_7  and  N_8
REMARK    4  A    between atoms: N_8  and  S_9
REMARK    5  A    between atoms: S_9  and  C_12
REMARK    6  A    between atoms: C_15  and  C_16
REMARK    7  A    between atoms: C_19  and  C_20
REMARK                            x       y       z     vdW  Elec       q    Type
REMARK                         _______ _______ _______ _____ _____    ______ ____
ROOT
ATOM      1  S   UNL     1       3.075   3.362  18.294  0.00  0.00    +0.000 S 
ATOM      2  O   UNL     1       2.709   3.356  16.897  0.00  0.00    +0.000 OA
ATOM      3  O   UNL     1       2.641   2.317  19.194  0.00  0.00    +0.000 OA
ENDROOT
BRANCH   1   4
ATOM      4  C   UNL     1       2.553   4.923  18.978  0.00  0.00    +0.000 A 
ATOM      5  C   UNL     1       2.708   6.100  18.237  0.00  0.00    +0.000 A 
ATOM      6  C   UNL     1       2.351   7.327  18.809  0.00  0.00    +0.000 A 
ATOM      7  C   UNL     1       1.818   7.377  20.105  0.00  0.00    +0.000 A 
ATOM      8  C   UNL     1       1.664   6.184  20.828  0.00  0.00    +0.000 A 
ATOM      9  C   UNL     1       2.007   4.957  20.261  0.00  0.00    +0.000 A 
BRANCH   7  10
ATOM     10  C   UNL     1       1.404   8.641  20.679  0.00  0.00    +0.000 A 
ATOM     11  C   UNL     1       1.325   8.911  22.028  0.00  0.00    +0.000 A 
ATOM     12  O   UNL     1       0.878  10.181  22.184  0.00  0.00    +0.000 OA
ATOM     13  C   UNL     1       0.696  10.627  20.904  0.00  0.00    +0.000 A 
ATOM     14  C   UNL     1       0.189  12.007  20.767  0.00  0.00    +0.000 C 
ATOM     15  N   UNL     1       0.990   9.744  19.968  0.00  0.00    +0.000 NA
ENDBRANCH   7  10
ENDBRANCH   1   4
BRANCH   1  16
ATOM     16  N   UNL     1       4.748   3.482  18.346  0.00  0.00    +0.000 N 
ATOM     17  H   UNL     1       5.229   2.927  19.050  0.00  0.00    +0.000 HD
BRANCH  16  22
ATOM     18  C   UNL     1       6.967   5.767  16.433  0.00  0.00    +0.000 A 
ATOM     19  C   UNL     1       6.899   5.178  15.166  0.00  0.00    +0.000 A 
ATOM     20  C   UNL     1       6.112   4.043  14.955  0.00  0.00    +0.000 A 
ATOM     21  C   UNL     1       5.401   3.483  16.015  0.00  0.00    +0.000 A 
ATOM     22  C   UNL     1       5.471   4.067  17.277  0.00  0.00    +0.000 A 
ATOM     23  C   UNL     1       6.234   5.215  17.484  0.00  0.00    +0.000 A 
BRANCH  18  25
ATOM     24  C   UNL     1       7.461   7.804  17.547  0.00  0.00    +0.000 C 
ATOM     25  O   UNL     1       7.777   6.868  16.520  0.00  0.00    +0.000 OA
ENDBRANCH  18  25
ENDBRANCH  16  22
ENDBRANCH   1  16
TORSDOF 5
ENDMDL
MODEL 5
REMARK VINA RESULT:      -7.5      1.577      2.305
REMARK  Name = 
REMARK  7 active torsions:
REMARK  status: ('A' for Active; 'I' for Inactive)
REMARK    1  A    between atoms: C_1  and  O_2
REMARK    2  A    between atoms: O_2  and  C_3
REMARK    3  A    between atoms: C_7  and  N_8
REMARK    4  A    between atoms: N_8  and  S_9
REMARK    5  A    between atoms: S_9  and  C_12
REMARK    6  A    between atoms: C_15  and  C_16
REMARK    7  A    between atoms: C_19  and  C_20
REMARK                            x       y       z     vdW  Elec       q    Type
REMARK                         _______ _______ _______ _____ _____    ______ ____
ROOT
ATOM      1  S   UNL     1       3.437   3.833  17.887  0.00  0.00    +0.000 S 
ATOM      2  O   UNL     1       2.396   3.406  16.979  0.00  0.00    +0.000 OA
ATOM      3  O   UNL     1       3.992   2.938  18.876  0.00  0.00    +0.000 OA
ENDROOT
BRANCH   1   4
ATOM      4  C   UNL     1       2.845   5.285  18.735  0.00  0.00    +0.000 A 
ATOM      5  C   UNL     1       2.367   5.185  20.046  0.00  0.00    +0.000 A 
ATOM      6  C   UNL     1       1.849   6.321  20.679  0.00  0.00    +0.000 A 
ATOM      7  C   UNL     1       1.830   7.557  20.016  0.00  0.00    +0.000 A 
ATOM      8  C   UNL     1       2.321   7.636  18.704  0.00  0.00    +0.000 A 
ATOM      9  C   UNL     1       2.849   6.511  18.071  0.00  0.00    +0.000 A 
BRANCH   7  10
ATOM     10  C   UNL     1       1.338   8.743  20.688  0.00  0.00    +0.000 A 
ATOM     11  C   UNL     1       1.371   8.954  22.049  0.00  0.00    +0.000 A 
ATOM     12  O   UNL     1       0.801  10.157  22.307  0.00  0.00    +0.000 OA
ATOM     13  C   UNL     1       0.436  10.622  21.075  0.00  0.00    +0.000 A 
ATOM     14  C   UNL     1      -0.236  11.936  21.053  0.00  0.00    +0.000 C 
ATOM     15  N   UNL     1       0.729   9.813  20.073  0.00  0.00    +0.000 NA
ENDBRANCH   7  10
ENDBRANCH   1   4
BRANCH   1  16
ATOM     16  N   UNL     1       4.675   4.447  16.934  0.00  0.00    +0.000 N 
ATOM     17  H   UNL     1       4.514   4.478  15.930  0.00  0.00    +0.000 HD
BRANCH  16  22
ATOM     18  C   UNL     1       7.249   7.066  17.503  0.00  0.00    +0.000 A 
ATOM     19  C   UNL     1       7.838   6.586  18.678  0.00  0.00    +0.000 A 
ATOM     20  C   UNL     1       7.388   5.399  19.260  0.00  0.00    +0.000 A 
ATOM     21  C   UNL     1       6.336   4.693  18.678  0.00  0.00    +0.000 A 
ATOM     22  C   UNL     1       5.748   5.172  17.510  0.00  0.00    +0.000 A 
ATOM     23  C   UNL     1       6.213   6.343  16.913  0.00  0.00    +0.000 A 
BRANCH  18  25
ATOM     24  C   UNL     1       8.231   9.167  18.011  0.00  0.00    +0.000 C 
ATOM     25  O   UNL     1       7.767   8.243  17.031  0.00  0.00    +0.000 OA
ENDBRANCH  18  25
ENDBRANCH  16  22
ENDBRANCH   1  16
TORSDOF 5
ENDMDL
MODEL 6
REMARK VINA RESULT:      -7.5      1.596      2.128
REMARK  Name = 
REMARK  7 active torsions:
REMARK  status: ('A' for Active; 'I' for Inactive)
REMARK    1  A    between atoms: C_1  and  O_2
REMARK    2  A    between atoms: O_2  and  C_3
REMARK    3  A    between atoms: C_7  and  N_8
REMARK    4  A    between atoms: N_8  and  S_9
REMARK    5  A    between atoms: S_9  and  C_12
REMARK    6  A    between atoms: C_15  and  C_16
REMARK    7  A    between atoms: C_19  and  C_20
REMARK                            x       y       z     vdW  Elec       q    Type
REMARK                         _______ _______ _______ _____ _____    ______ ____
ROOT
ATOM      1  S   UNL     1       3.149   3.938  17.901  0.00  0.00    +0.000 S 
ATOM      2  O   UNL     1       2.101   3.513  17.002  0.00  0.00    +0.000 OA
ATOM      3  O   UNL     1       3.711   3.041  18.886  0.00  0.00    +0.000 OA
ENDROOT
BRANCH   1   4
ATOM      4  C   UNL     1       2.566   5.391  18.754  0.00  0.00    +0.000 A 
ATOM      5  C   UNL     1       2.566   6.631  18.108  0.00  0.00    +0.000 A 
ATOM      6  C   UNL     1       2.163   7.774  18.808  0.00  0.00    +0.000 A 
ATOM      7  C   UNL     1       1.739   7.676  20.142  0.00  0.00    +0.000 A 
ATOM      8  C   UNL     1       1.740   6.421  20.769  0.00  0.00    +0.000 A 
ATOM      9  C   UNL     1       2.130   5.276  20.074  0.00  0.00    +0.000 A 
BRANCH   7  10
ATOM     10  C   UNL     1       1.277   8.851  20.853  0.00  0.00    +0.000 A 
ATOM     11  C   UNL     1       1.335   9.025  22.218  0.00  0.00    +0.000 A 
ATOM     12  O   UNL     1       0.790  10.229  22.518  0.00  0.00    +0.000 OA
ATOM     13  C   UNL     1       0.413  10.734  21.305  0.00  0.00    +0.000 A 
ATOM     14  C   UNL     1      -0.237  12.059  21.330  0.00  0.00    +0.000 C 
ATOM     15  N   UNL     1       0.676   9.948  20.278  0.00  0.00    +0.000 NA
ENDBRANCH   7  10
ENDBRANCH   1   4
BRANCH   1  16
ATOM     16  N   UNL     1       4.381   4.550  16.939  0.00  0.00    +0.000 N 
ATOM     17  H   UNL     1       4.182   4.657  15.946  0.00  0.00    +0.000 HD
BRANCH  16  22
ATOM     18  C   UNL     1       7.195   6.913  17.489  0.00  0.00    +0.000 A 
ATOM     19  C   UNL     1       7.719   6.404  18.681  0.00  0.00    +0.000 A 
ATOM     20  C   UNL     1       7.146   5.280  19.283  0.00  0.00    +0.000 A 
ATOM     21  C   UNL     1       6.037   4.669  18.700  0.00  0.00    +0.000 A 
ATOM     22  C   UNL     1       5.513   5.178  17.515  0.00  0.00    +0.000 A 
ATOM     23  C   UNL     1       6.100   6.283  16.899  0.00  0.00    +0.000 A 
BRANCH  18  25
ATOM     24  C   UNL     1       8.109   9.058  17.938  0.00  0.00    +0.000 C 
ATOM     25  O   UNL     1       7.833   8.022  16.999  0.00  0.00    +0.000 OA
ENDBRANCH  18  25
ENDBRANCH  16  22
ENDBRANCH   1  16
TORSDOF 5
ENDMDL
MODEL 7
REMARK VINA RESULT:      -7.5      0.994      1.745
REMARK  Name = 
REMARK  7 active torsions:
REMARK  status: ('A' for Active; 'I' for Inactive)
REMARK    1  A    between atoms: C_1  and  O_2
REMARK    2  A    between atoms: O_2  and  C_3
REMARK    3  A    between atoms: C_7  and  N_8
REMARK    4  A    between atoms: N_8  and  S_9
REMARK    5  A    between atoms: S_9  and  C_12
REMARK    6  A    between atoms: C_15  and  C_16
REMARK    7  A    between atoms: C_19  and  C_20
REMARK                            x       y       z     vdW  Elec       q    Type
REMARK                         _______ _______ _______ _____ _____    ______ ____
ROOT
ATOM      1  S   UNL     1       3.621   3.231  18.906  0.00  0.00    +0.000 S 
ATOM      2  O   UNL     1       3.424   2.814  17.537  0.00  0.00    +0.000 OA
ATOM      3  O   UNL     1       3.124   2.448  20.014  0.00  0.00    +0.000 OA
ENDROOT
BRANCH   1   4
ATOM      4  C   UNL     1       2.964   4.880  19.064  0.00  0.00    +0.000 A 
ATOM      5  C   UNL     1       2.997   5.756  17.973  0.00  0.00    +0.000 A 
ATOM      6  C   UNL     1       2.533   7.068  18.128  0.00  0.00    +0.000 A 
ATOM      7  C   UNL     1       2.015   7.497  19.359  0.00  0.00    +0.000 A 
ATOM      8  C   UNL     1       1.984   6.600  20.438  0.00  0.00    +0.000 A 
ATOM      9  C   UNL     1       2.435   5.289  20.288  0.00  0.00    +0.000 A 
BRANCH   7  10
ATOM     10  C   UNL     1       1.491   8.840  19.506  0.00  0.00    +0.000 A 
ATOM     11  C   UNL     1       1.438   9.785  18.505  0.00  0.00    +0.000 A 
ATOM     12  O   UNL     1       0.912  10.923  19.020  0.00  0.00    +0.000 OA
ATOM     13  C   UNL     1       0.673  10.614  20.330  0.00  0.00    +0.000 A 
ATOM     14  C   UNL     1       0.101  11.696  21.155  0.00  0.00    +0.000 C 
ATOM     15  N   UNL     1       1.007   9.384  20.674  0.00  0.00    +0.000 NA
ENDBRANCH   7  10
ENDBRANCH   1   4
BRANCH   1  16
ATOM     16  N   UNL     1       5.271   3.477  19.094  0.00  0.00    +0.000 N 
ATOM     17  H   UNL     1       5.783   2.784  19.636  0.00  0.00    +0.000 HD
BRANCH  16  22
ATOM     18  C   UNL     1       7.368   6.368  18.066  0.00  0.00    +0.000 A 
ATOM     19  C   UNL     1       7.341   6.214  16.676  0.00  0.00    +0.000 A 
ATOM     20  C   UNL     1       6.621   5.167  16.094  0.00  0.00    +0.000 A 
ATOM     21  C   UNL     1       5.937   4.261  16.902  0.00  0.00    +0.000 A 
ATOM     22  C   UNL     1       5.966   4.411  18.285  0.00  0.00    +0.000 A 
ATOM     23  C   UNL     1       6.662   5.470  18.867  0.00  0.00    +0.000 A 
BRANCH  18  25
ATOM     24  C   UNL     1       7.977   8.647  17.805  0.00  0.00    +0.000 C 
ATOM     25  O   UNL     1       8.114   7.423  18.521  0.00  0.00    +0.000 OA
ENDBRANCH  18  25
ENDBRANCH  16  22
ENDBRANCH   1  16
TORSDOF 5
ENDMDL
MODEL 8
REMARK VINA RESULT:      -7.5      3.370      8.313
REMARK  Name = 
REMARK  7 active torsions:
REMARK  status: ('A' for Active; 'I' for Inactive)
REMARK    1  A    between atoms: C_1  and  O_2
REMARK    2  A    between atoms: O_2  and  C_3
REMARK    3  A    between atoms: C_7  and  N_8
REMARK    4  A    between atoms: N_8  and  S_9
REMARK    5  A    between atoms: S_9  and  C_12
REMARK    6  A    between atoms: C_15  and  C_16
REMARK    7  A    between atoms: C_19  and  C_20
REMARK                            x       y       z     vdW  Elec       q    Type
REMARK                         _______ _______ _______ _____ _____    ______ ____
ROOT
ATOM      1  S   UNL     1       0.450  10.060  20.442  0.00  0.00    +0.000 S 
ATOM      2  O   UNL     1       1.306  10.800  21.340  0.00  0.00    +0.000 OA
ATOM      3  O   UNL     1      -0.729   9.370  20.917  0.00  0.00    +0.000 OA
ENDROOT
BRANCH   1   4
ATOM      4  C   UNL     1       1.469   8.874  19.586  0.00  0.00    +0.000 A 
ATOM      5  C   UNL     1       1.926   9.147  18.292  0.00  0.00    +0.000 A 
ATOM      6  C   UNL     1       2.675   8.182  17.608  0.00  0.00    +0.000 A 
ATOM      7  C   UNL     1       2.987   6.959  18.221  0.00  0.00    +0.000 A 
ATOM      8  C   UNL     1       2.524   6.709  19.522  0.00  0.00    +0.000 A 
ATOM      9  C   UNL     1       1.787   7.670  20.214  0.00  0.00    +0.000 A 
BRANCH   7  10
ATOM     10  C   UNL     1       3.801   5.980  17.531  0.00  0.00    +0.000 A 
ATOM     11  C   UNL     1       3.701   4.614  17.687  0.00  0.00    +0.000 A 
ATOM     12  O   UNL     1       4.637   4.026  16.903  0.00  0.00    +0.000 OA
ATOM     13  C   UNL     1       5.277   5.076  16.307  0.00  0.00    +0.000 A 
ATOM     14  C   UNL     1       6.380   4.724  15.390  0.00  0.00    +0.000 C 
ATOM     15  N   UNL     1       4.821   6.265  16.652  0.00  0.00    +0.000 NA
ENDBRANCH   7  10
ENDBRANCH   1   4
BRANCH   1  16
ATOM     16  N   UNL     1       0.016  11.121  19.216  0.00  0.00    +0.000 N 
ATOM     17  H   UNL     1       0.768  11.641  18.768  0.00  0.00    +0.000 HD
BRANCH  16  22
ATOM     18  C   UNL     1      -2.766  10.213  16.925  0.00  0.00    +0.000 A 
ATOM     19  C   UNL     1      -3.808  10.952  17.494  0.00  0.00    +0.000 A 
ATOM     20  C   UNL     1      -3.579  11.750  18.618  0.00  0.00    +0.000 A 
ATOM     21  C   UNL     1      -2.307  11.801  19.186  0.00  0.00    +0.000 A 
ATOM     22  C   UNL     1      -1.269  11.064  18.622  0.00  0.00    +0.000 A 
ATOM     23  C   UNL     1      -1.490  10.287  17.485  0.00  0.00    +0.000 A 
BRANCH  18  25
ATOM     24  C   UNL     1      -3.141  10.141  14.583  0.00  0.00    +0.000 C 
ATOM     25  O   UNL     1      -3.112   9.461  15.834  0.00  0.00    +0.000 OA
ENDBRANCH  18  25
ENDBRANCH  16  22
ENDBRANCH   1  16
TORSDOF 5
ENDMDL
MODEL 9
REMARK VINA RESULT:      -7.5      1.053      2.027
REMARK  Name = 
REMARK  7 active torsions:
REMARK  status: ('A' for Active; 'I' for Inactive)
REMARK    1  A    between atoms: C_1  and  O_2
REMARK    2  A    between atoms: O_2  and  C_3
REMARK    3  A    between atoms: C_7  and  N_8
REMARK    4  A    between atoms: N_8  and  S_9
REMARK    5  A    between atoms: S_9  and  C_12
REMARK    6  A    between atoms: C_15  and  C_16
REMARK    7  A    between atoms: C_19  and  C_20
REMARK                            x       y       z     vdW  Elec       q    Type
REMARK                         _______ _______ _______ _____ _____    ______ ____
ROOT
ATOM      1  S   UNL     1       3.547   3.295  19.008  0.00  0.00    +0.000 S 
ATOM      2  O   UNL     1       3.262   2.787  17.686  0.00  0.00    +0.000 OA
ATOM      3  O   UNL     1       3.058   2.629  20.195  0.00  0.00    +0.000 OA
ENDROOT
BRANCH   1   4
ATOM      4  C   UNL     1       2.992   4.988  19.063  0.00  0.00    +0.000 A 
ATOM      5  C   UNL     1       2.553   5.543  20.269  0.00  0.00    +0.000 A 
ATOM      6  C   UNL     1       2.063   6.855  20.287  0.00  0.00    +0.000 A 
ATOM      7  C   UNL     1       2.033   7.617  19.110  0.00  0.00    +0.000 A 
ATOM      8  C   UNL     1       2.484   7.042  17.911  0.00  0.00    +0.000 A 
ATOM      9  C   UNL     1       2.984   5.740  17.889  0.00  0.00    +0.000 A 
BRANCH   7  10
ATOM     10  C   UNL     1       1.570   8.990  19.136  0.00  0.00    +0.000 A 
ATOM     11  C   UNL     1       1.764   9.911  18.130  0.00  0.00    +0.000 A 
ATOM     12  O   UNL     1       1.217  11.088  18.519  0.00  0.00    +0.000 OA
ATOM     13  C   UNL     1       0.716  10.825  19.763  0.00  0.00    +0.000 A 
ATOM     14  C   UNL     1       0.061  11.957  20.449  0.00  0.00    +0.000 C 
ATOM     15  N   UNL     1       0.906   9.588  20.182  0.00  0.00    +0.000 NA
ENDBRANCH   7  10
ENDBRANCH   1   4
BRANCH   1  16
ATOM     16  N   UNL     1       5.215   3.454  19.107  0.00  0.00    +0.000 N 
ATOM     17  H   UNL     1       5.721   2.720  19.598  0.00  0.00    +0.000 HD
BRANCH  16  22
ATOM     18  C   UNL     1       7.315   6.331  18.047  0.00  0.00    +0.000 A 
ATOM     19  C   UNL     1       7.281   6.166  16.659  0.00  0.00    +0.000 A 
ATOM     20  C   UNL     1       6.556   5.116  16.088  0.00  0.00    +0.000 A 
ATOM     21  C   UNL     1       5.873   4.218  16.906  0.00  0.00    +0.000 A 
ATOM     22  C   UNL     1       5.909   4.380  18.288  0.00  0.00    +0.000 A 
ATOM     23  C   UNL     1       6.609   5.442  18.858  0.00  0.00    +0.000 A 
BRANCH  18  25
ATOM     24  C   UNL     1       7.959   8.595  17.740  0.00  0.00    +0.000 C 
ATOM     25  O   UNL     1       8.065   7.388  18.490  0.00  0.00    +0.000 OA
ENDBRANCH  18  25
ENDBRANCH  16  22
ENDBRANCH   1  16
TORSDOF 5
ENDMDL
