MODEL 1
REMARK VINA RESULT:      -7.2      0.000      0.000
REMARK  Name = 
REMARK  10 active torsions:
REMARK  status: ('A' for Active; 'I' for Inactive)
REMARK    1  A    between atoms: C_1  and  O_2
REMARK    2  A    between atoms: O_2  and  C_3
REMARK    3  A    between atoms: C_5  and  N_6
REMARK    4  A    between atoms: C_7  and  C_9
REMARK    5  A    between atoms: C_9  and  N_10
REMARK    6  A    between atoms: C_9  and  C_11
REMARK    7  A    between atoms: C_11  and  C_12
REMARK    8  A    between atoms: C_12  and  C_13
REMARK    9  A    between atoms: C_12  and  C_14
REMARK   10  A    between atoms: C_17  and  C_18
REMARK                            x       y       z     vdW  Elec       q    Type
REMARK                         _______ _______ _______ _____ _____    ______ ____
ROOT
ATOM      1  C   UNL     1       1.041   9.095  20.346  0.00  0.00    +0.000 A 
ATOM      2  C   UNL     1       1.599   7.821  20.542  0.00  0.00    +0.000 A 
ATOM      3  C   UNL     1       2.376   7.190  19.572  0.00  0.00    +0.000 A 
ATOM      4  C   UNL     1       2.496   7.796  18.328  0.00  0.00    +0.000 A 
ATOM      5  C   UNL     1       1.911   9.055  18.103  0.00  0.00    +0.000 A 
ATOM      6  C   UNL     1       1.188   9.750  19.105  0.00  0.00    +0.000 A 
ENDROOT
BRANCH   6   7
ATOM      7  C   UNL     1       0.680  11.113  18.805  0.00  0.00    +0.000 A 
ATOM      8  C   UNL     1       1.446  12.266  18.867  0.00  0.00    +0.000 A 
ATOM      9  C   UNL     1       0.816  13.453  18.564  0.00  0.00    +0.000 A 
ATOM     10  N   UNL     1      -0.481  13.545  18.223  0.00  0.00    +0.000 NA
ATOM     11  C   UNL     1      -1.145  12.384  18.196  0.00  0.00    +0.000 A 
ATOM     12  N   UNL     1      -0.635  11.174  18.475  0.00  0.00    +0.000 NA
ENDBRANCH   6   7
BRANCH   3  13
ATOM     13  N   UNL     1       3.044   5.975  19.824  0.00  0.00    +0.000 N 
ATOM     14  C   UNL     1       3.409   5.030  18.870  0.00  0.00    +0.000 C 
ATOM     15  O   UNL     1       3.162   5.094  17.668  0.00  0.00    +0.000 OA
ATOM     16  H   UNL     1       3.208   5.691  20.788  0.00  0.00    +0.000 HD
BRANCH  14  17
ATOM     17  C   UNL     1       4.074   3.766  19.478  0.00  0.00    +0.000 C 
BRANCH  17  18
ATOM     18  N   UNL     1       5.443   3.602  18.940  0.00  0.00    +0.000 NA
ATOM     19  H   UNL     1       5.895   2.836  19.447  0.00  0.00    +0.000 HD
ATOM     20  H   UNL     1       5.985   4.433  19.179  0.00  0.00    +0.000 HD
ENDBRANCH  17  18
BRANCH  17  21
ATOM     21  C   UNL     1       3.182   2.537  19.213  0.00  0.00    +0.000 C 
BRANCH  21  22
ATOM     22  C   UNL     1       2.005   2.318  20.183  0.00  0.00    +0.000 C 
ATOM     23  C   UNL     1       2.296   2.870  21.579  0.00  0.00    +0.000 C 
ATOM     24  C   UNL     1       0.743   2.984  19.620  0.00  0.00    +0.000 C 
ENDBRANCH  21  22
ENDBRANCH  17  21
ENDBRANCH  14  17
ENDBRANCH   3  13
BRANCH   1  26
ATOM     25  C   UNL     1       0.641   9.292  22.678  0.00  0.00    +0.000 C 
ATOM     26  O   UNL     1       0.336   9.723  21.349  0.00  0.00    +0.000 OA
ENDBRANCH   1  26
TORSDOF 7
ENDMDL
MODEL 2
REMARK VINA RESULT:      -7.2      1.868      2.867
REMARK  Name = 
REMARK  10 active torsions:
REMARK  status: ('A' for Active; 'I' for Inactive)
REMARK    1  A    between atoms: C_1  and  O_2
REMARK    2  A    between atoms: O_2  and  C_3
REMARK    3  A    between atoms: C_5  and  N_6
REMARK    4  A    between atoms: C_7  and  C_9
REMARK    5  A    between atoms: C_9  and  N_10
REMARK    6  A    between atoms: C_9  and  C_11
REMARK    7  A    between atoms: C_11  and  C_12
REMARK    8  A    between atoms: C_12  and  C_13
REMARK    9  A    between atoms: C_12  and  C_14
REMARK   10  A    between atoms: C_17  and  C_18
REMARK                            x       y       z     vdW  Elec       q    Type
REMARK                         _______ _______ _______ _____ _____    ______ ____
ROOT
ATOM      1  C   UNL     1       1.242   8.505  20.080  0.00  0.00    +0.000 A 
ATOM      2  C   UNL     1       2.091   7.412  19.842  0.00  0.00    +0.000 A 
ATOM      3  C   UNL     1       2.842   7.290  18.673  0.00  0.00    +0.000 A 
ATOM      4  C   UNL     1       2.644   8.224  17.664  0.00  0.00    +0.000 A 
ATOM      5  C   UNL     1       1.768   9.305  17.872  0.00  0.00    +0.000 A 
ATOM      6  C   UNL     1       1.060   9.490  19.085  0.00  0.00    +0.000 A 
ENDROOT
BRANCH   6   7
ATOM      7  C   UNL     1       0.225  10.708  19.248  0.00  0.00    +0.000 A 
ATOM      8  C   UNL     1       0.689  11.917  19.739  0.00  0.00    +0.000 A 
ATOM      9  C   UNL     1      -0.222  12.946  19.833  0.00  0.00    +0.000 A 
ATOM     10  N   UNL     1      -1.515  12.835  19.481  0.00  0.00    +0.000 NA
ATOM     11  C   UNL     1      -1.877  11.630  19.024  0.00  0.00    +0.000 A 
ATOM     12  N   UNL     1      -1.077  10.560  18.895  0.00  0.00    +0.000 NA
ENDBRANCH   6   7
BRANCH   3  13
ATOM     13  N   UNL     1       3.792   6.264  18.499  0.00  0.00    +0.000 N 
ATOM     14  C   UNL     1       3.540   4.999  17.977  0.00  0.00    +0.000 C 
ATOM     15  O   UNL     1       2.441   4.572  17.632  0.00  0.00    +0.000 OA
ATOM     16  H   UNL     1       4.735   6.396  18.859  0.00  0.00    +0.000 HD
BRANCH  14  17
ATOM     17  C   UNL     1       4.787   4.074  17.977  0.00  0.00    +0.000 C 
BRANCH  17  18
ATOM     18  N   UNL     1       4.429   2.735  18.496  0.00  0.00    +0.000 NA
ATOM     19  H   UNL     1       3.819   2.281  17.811  0.00  0.00    +0.000 HD
ATOM     20  H   UNL     1       3.848   2.856  19.327  0.00  0.00    +0.000 HD
ENDBRANCH  17  18
BRANCH  17  21
ATOM     21  C   UNL     1       5.921   4.738  18.784  0.00  0.00    +0.000 C 
BRANCH  21  22
ATOM     22  C   UNL     1       7.224   5.040  18.019  0.00  0.00    +0.000 C 
ATOM     23  C   UNL     1       7.167   4.563  16.568  0.00  0.00    +0.000 C 
ATOM     24  C   UNL     1       7.505   6.546  18.055  0.00  0.00    +0.000 C 
ENDBRANCH  21  22
ENDBRANCH  17  21
ENDBRANCH  14  17
ENDBRANCH   3  13
BRANCH   1  26
ATOM     25  C   UNL     1       1.333   9.161  22.360  0.00  0.00    +0.000 C 
ATOM     26  O   UNL     1       0.568   8.633  21.274  0.00  0.00    +0.000 OA
ENDBRANCH   1  26
TORSDOF 7
ENDMDL
MODEL 3
REMARK VINA RESULT:      -7.1      5.451      8.069
REMARK  Name = 
REMARK  10 active torsions:
REMARK  status: ('A' for Active; 'I' for Inactive)
REMARK    1  A    between atoms: C_1  and  O_2
REMARK    2  A    between atoms: O_2  and  C_3
REMARK    3  A    between atoms: C_5  and  N_6
REMARK    4  A    between atoms: C_7  and  C_9
REMARK    5  A    between atoms: C_9  and  N_10
REMARK    6  A    between atoms: C_9  and  C_11
REMARK    7  A    between atoms: C_11  and  C_12
REMARK    8  A    between atoms: C_12  and  C_13
REMARK    9  A    between atoms: C_12  and  C_14
REMARK   10  A    between atoms: C_17  and  C_18
REMARK                            x       y       z     vdW  Elec       q    Type
REMARK                         _______ _______ _______ _____ _____    ______ ____
ROOT
ATOM      1  C   UNL     1       5.893   4.417  18.617  0.00  0.00    +0.000 A 
ATOM      2  C   UNL     1       6.694   4.418  17.463  0.00  0.00    +0.000 A 
ATOM      3  C   UNL     1       6.235   3.939  16.236  0.00  0.00    +0.000 A 
ATOM      4  C   UNL     1       4.987   3.333  16.192  0.00  0.00    +0.000 A 
ATOM      5  C   UNL     1       4.187   3.290  17.348  0.00  0.00    +0.000 A 
ATOM      6  C   UNL     1       4.603   3.846  18.583  0.00  0.00    +0.000 A 
ENDROOT
BRANCH   6   7
ATOM      7  C   UNL     1       3.657   3.833  19.729  0.00  0.00    +0.000 A 
ATOM      8  C   UNL     1       2.881   4.913  20.116  0.00  0.00    +0.000 A 
ATOM      9  C   UNL     1       2.059   4.734  21.207  0.00  0.00    +0.000 A 
ATOM     10  N   UNL     1       1.979   3.586  21.903  0.00  0.00    +0.000 NA
ATOM     11  C   UNL     1       2.768   2.600  21.462  0.00  0.00    +0.000 A 
ATOM     12  N   UNL     1       3.607   2.664  20.417  0.00  0.00    +0.000 NA
ENDBRANCH   6   7
BRANCH   3  13
ATOM     13  N   UNL     1       6.993   4.066  15.055  0.00  0.00    +0.000 N 
ATOM     14  C   UNL     1       6.867   5.079  14.109  0.00  0.00    +0.000 C 
ATOM     15  O   UNL     1       6.043   5.990  14.140  0.00  0.00    +0.000 OA
ATOM     16  H   UNL     1       7.635   3.319  14.796  0.00  0.00    +0.000 HD
BRANCH  14  17
ATOM     17  C   UNL     1       7.804   4.898  12.884  0.00  0.00    +0.000 C 
BRANCH  17  18
ATOM     18  N   UNL     1       8.424   6.192  12.521  0.00  0.00    +0.000 NA
ATOM     19  H   UNL     1       8.572   6.727  13.380  0.00  0.00    +0.000 HD
ATOM     20  H   UNL     1       7.745   6.735  11.985  0.00  0.00    +0.000 HD
ENDBRANCH  17  18
BRANCH  17  21
ATOM     21  C   UNL     1       7.014   4.271  11.719  0.00  0.00    +0.000 C 
BRANCH  21  22
ATOM     22  C   UNL     1       6.101   3.080  12.069  0.00  0.00    +0.000 C 
ATOM     23  C   UNL     1       4.637   3.350  11.718  0.00  0.00    +0.000 C 
ATOM     24  C   UNL     1       6.583   1.827  11.329  0.00  0.00    +0.000 C 
ENDBRANCH  21  22
ENDBRANCH  17  21
ENDBRANCH  14  17
ENDBRANCH   3  13
BRANCH   1  26
ATOM     25  C   UNL     1       7.589   5.668  19.711  0.00  0.00    +0.000 C 
ATOM     26  O   UNL     1       6.349   4.961  19.797  0.00  0.00    +0.000 OA
ENDBRANCH   1  26
TORSDOF 7
ENDMDL
MODEL 4
REMARK VINA RESULT:      -7.1      2.023      3.131
REMARK  Name = 
REMARK  10 active torsions:
REMARK  status: ('A' for Active; 'I' for Inactive)
REMARK    1  A    between atoms: C_1  and  O_2
REMARK    2  A    between atoms: O_2  and  C_3
REMARK    3  A    between atoms: C_5  and  N_6
REMARK    4  A    between atoms: C_7  and  C_9
REMARK    5  A    between atoms: C_9  and  N_10
REMARK    6  A    between atoms: C_9  and  C_11
REMARK    7  A    between atoms: C_11  and  C_12
REMARK    8  A    between atoms: C_12  and  C_13
REMARK    9  A    between atoms: C_12  and  C_14
REMARK   10  A    between atoms: C_17  and  C_18
REMARK                            x       y       z     vdW  Elec       q    Type
REMARK                         _______ _______ _______ _____ _____    ______ ____
ROOT
ATOM      1  C   UNL     1       1.160   8.560  20.105  0.00  0.00    +0.000 A 
ATOM      2  C   UNL     1       2.088   7.529  19.888  0.00  0.00    +0.000 A 
ATOM      3  C   UNL     1       2.817   7.418  18.704  0.00  0.00    +0.000 A 
ATOM      4  C   UNL     1       2.519   8.289  17.664  0.00  0.00    +0.000 A 
ATOM      5  C   UNL     1       1.564   9.304  17.852  0.00  0.00    +0.000 A 
ATOM      6  C   UNL     1       0.875   9.484  19.077  0.00  0.00    +0.000 A 
ENDROOT
BRANCH   6   7
ATOM      7  C   UNL     1      -0.053  10.637  19.214  0.00  0.00    +0.000 A 
ATOM      8  C   UNL     1      -1.382  10.624  18.825  0.00  0.00    +0.000 A 
ATOM      9  C   UNL     1      -2.102  11.782  19.015  0.00  0.00    +0.000 A 
ATOM     10  N   UNL     1      -1.585  12.905  19.546  0.00  0.00    +0.000 NA
ATOM     11  C   UNL     1      -0.294  12.829  19.886  0.00  0.00    +0.000 A 
ATOM     12  N   UNL     1       0.501  11.758  19.743  0.00  0.00    +0.000 NA
ENDBRANCH   6   7
BRANCH   3  13
ATOM     13  N   UNL     1       3.842   6.464  18.544  0.00  0.00    +0.000 N 
ATOM     14  C   UNL     1       3.873   5.196  19.116  0.00  0.00    +0.000 C 
ATOM     15  O   UNL     1       3.032   4.735  19.883  0.00  0.00    +0.000 OA
ATOM     16  H   UNL     1       4.691   6.728  18.047  0.00  0.00    +0.000 HD
BRANCH  14  17
ATOM     17  C   UNL     1       5.175   4.410  18.800  0.00  0.00    +0.000 C 
BRANCH  17  18
ATOM     18  N   UNL     1       5.149   3.090  19.470  0.00  0.00    +0.000 NA
ATOM     19  H   UNL     1       5.858   2.497  19.032  0.00  0.00    +0.000 HD
ATOM     20  H   UNL     1       4.258   2.638  19.258  0.00  0.00    +0.000 HD
ENDBRANCH  17  18
BRANCH  17  21
ATOM     21  C   UNL     1       6.398   5.256  19.205  0.00  0.00    +0.000 C 
BRANCH  21  22
ATOM     22  C   UNL     1       7.479   5.463  18.126  0.00  0.00    +0.000 C 
ATOM     23  C   UNL     1       7.231   4.603  16.887  0.00  0.00    +0.000 C 
ATOM     24  C   UNL     1       7.529   6.941  17.724  0.00  0.00    +0.000 C 
ENDBRANCH  21  22
ENDBRANCH  17  21
ENDBRANCH  14  17
ENDBRANCH   3  13
BRANCH   1  26
ATOM     25  C   UNL     1       1.296   9.198  22.388  0.00  0.00    +0.000 C 
ATOM     26  O   UNL     1       0.507   8.684  21.311  0.00  0.00    +0.000 OA
ENDBRANCH   1  26
TORSDOF 7
ENDMDL
MODEL 5
REMARK VINA RESULT:      -7.0      0.768      1.083
REMARK  Name = 
REMARK  10 active torsions:
REMARK  status: ('A' for Active; 'I' for Inactive)
REMARK    1  A    between atoms: C_1  and  O_2
REMARK    2  A    between atoms: O_2  and  C_3
REMARK    3  A    between atoms: C_5  and  N_6
REMARK    4  A    between atoms: C_7  and  C_9
REMARK    5  A    between atoms: C_9  and  N_10
REMARK    6  A    between atoms: C_9  and  C_11
REMARK    7  A    between atoms: C_11  and  C_12
REMARK    8  A    between atoms: C_12  and  C_13
REMARK    9  A    between atoms: C_12  and  C_14
REMARK   10  A    between atoms: C_17  and  C_18
REMARK                            x       y       z     vdW  Elec       q    Type
REMARK                         _______ _______ _______ _____ _____    ______ ____
ROOT
ATOM      1  C   UNL     1       1.124   9.184  20.490  0.00  0.00    +0.000 A 
ATOM      2  C   UNL     1       1.617   7.881  20.670  0.00  0.00    +0.000 A 
ATOM      3  C   UNL     1       2.225   7.165  19.639  0.00  0.00    +0.000 A 
ATOM      4  C   UNL     1       2.230   7.720  18.367  0.00  0.00    +0.000 A 
ATOM      5  C   UNL     1       1.706   9.009  18.162  0.00  0.00    +0.000 A 
ATOM      6  C   UNL     1       1.160   9.785  19.214  0.00  0.00    +0.000 A 
ENDROOT
BRANCH   6   7
ATOM      7  C   UNL     1       0.710  11.171  18.922  0.00  0.00    +0.000 A 
ATOM      8  C   UNL     1      -0.598  11.527  18.639  0.00  0.00    +0.000 A 
ATOM      9  C   UNL     1      -0.844  12.857  18.384  0.00  0.00    +0.000 A 
ATOM     10  N   UNL     1       0.106  13.808  18.391  0.00  0.00    +0.000 NA
ATOM     11  C   UNL     1       1.341  13.374  18.667  0.00  0.00    +0.000 A 
ATOM     12  N   UNL     1       1.694  12.105  18.926  0.00  0.00    +0.000 NA
ENDBRANCH   6   7
BRANCH   3  13
ATOM     13  N   UNL     1       2.837   5.915  19.859  0.00  0.00    +0.000 N 
ATOM     14  C   UNL     1       3.866   5.365  19.100  0.00  0.00    +0.000 C 
ATOM     15  O   UNL     1       4.364   5.869  18.097  0.00  0.00    +0.000 OA
ATOM     16  H   UNL     1       2.455   5.295  20.571  0.00  0.00    +0.000 HD
BRANCH  14  17
ATOM     17  C   UNL     1       4.276   3.940  19.561  0.00  0.00    +0.000 C 
BRANCH  17  18
ATOM     18  N   UNL     1       5.668   3.652  19.147  0.00  0.00    +0.000 NA
ATOM     19  H   UNL     1       6.244   4.464  19.381  0.00  0.00    +0.000 HD
ATOM     20  H   UNL     1       5.696   3.592  18.128  0.00  0.00    +0.000 HD
ENDBRANCH  17  18
BRANCH  17  21
ATOM     21  C   UNL     1       3.269   2.911  19.011  0.00  0.00    +0.000 C 
BRANCH  21  22
ATOM     22  C   UNL     1       2.198   2.402  19.995  0.00  0.00    +0.000 C 
ATOM     23  C   UNL     1       2.539   2.739  21.446  0.00  0.00    +0.000 C 
ATOM     24  C   UNL     1       0.837   3.008  19.632  0.00  0.00    +0.000 C 
ENDBRANCH  21  22
ENDBRANCH  17  21
ENDBRANCH  14  17
ENDBRANCH   3  13
BRANCH   1  26
ATOM     25  C   UNL     1      -0.371   9.191  22.335  0.00  0.00    +0.000 C 
ATOM     26  O   UNL     1       0.593   9.893  21.545  0.00  0.00    +0.000 OA
ENDBRANCH   1  26
TORSDOF 7
ENDMDL
MODEL 6
REMARK VINA RESULT:      -6.8      1.366      1.657
REMARK  Name = 
REMARK  10 active torsions:
REMARK  status: ('A' for Active; 'I' for Inactive)
REMARK    1  A    between atoms: C_1  and  O_2
REMARK    2  A    between atoms: O_2  and  C_3
REMARK    3  A    between atoms: C_5  and  N_6
REMARK    4  A    between atoms: C_7  and  C_9
REMARK    5  A    between atoms: C_9  and  N_10
REMARK    6  A    between atoms: C_9  and  C_11
REMARK    7  A    between atoms: C_11  and  C_12
REMARK    8  A    between atoms: C_12  and  C_13
REMARK    9  A    between atoms: C_12  and  C_14
REMARK   10  A    between atoms: C_17  and  C_18
REMARK                            x       y       z     vdW  Elec       q    Type
REMARK                         _______ _______ _______ _____ _____    ______ ____
ROOT
ATOM      1  C   UNL     1       1.266   9.248  20.145  0.00  0.00    +0.000 A 
ATOM      2  C   UNL     1       1.760   7.934  20.135  0.00  0.00    +0.000 A 
ATOM      3  C   UNL     1       2.327   7.358  18.998  0.00  0.00    +0.000 A 
ATOM      4  C   UNL     1       2.286   8.074  17.809  0.00  0.00    +0.000 A 
ATOM      5  C   UNL     1       1.759   9.378  17.793  0.00  0.00    +0.000 A 
ATOM      6  C   UNL     1       1.256  10.010  18.957  0.00  0.00    +0.000 A 
ENDROOT
BRANCH   6   7
ATOM      7  C   UNL     1       0.801  11.422  18.865  0.00  0.00    +0.000 A 
ATOM      8  C   UNL     1      -0.502  11.808  18.596  0.00  0.00    +0.000 A 
ATOM      9  C   UNL     1      -0.754  13.161  18.539  0.00  0.00    +0.000 A 
ATOM     10  N   UNL     1       0.185  14.105  18.723  0.00  0.00    +0.000 NA
ATOM     11  C   UNL     1       1.415  13.641  18.970  0.00  0.00    +0.000 A 
ATOM     12  N   UNL     1       1.774  12.350  19.045  0.00  0.00    +0.000 NA
ENDBRANCH   6   7
BRANCH   3  13
ATOM     13  N   UNL     1       2.942   6.090  19.030  0.00  0.00    +0.000 N 
ATOM     14  C   UNL     1       4.143   5.751  18.416  0.00  0.00    +0.000 C 
ATOM     15  O   UNL     1       4.826   6.494  17.716  0.00  0.00    +0.000 OA
ATOM     16  H   UNL     1       2.445   5.309  19.454  0.00  0.00    +0.000 HD
BRANCH  14  17
ATOM     17  C   UNL     1       4.518   4.253  18.584  0.00  0.00    +0.000 C 
BRANCH  17  18
ATOM     18  N   UNL     1       5.979   4.112  18.779  0.00  0.00    +0.000 NA
ATOM     19  H   UNL     1       6.436   4.251  17.874  0.00  0.00    +0.000 HD
ATOM     20  H   UNL     1       6.179   3.143  19.029  0.00  0.00    +0.000 HD
ENDBRANCH  17  18
BRANCH  17  21
ATOM     21  C   UNL     1       4.002   3.454  17.370  0.00  0.00    +0.000 C 
BRANCH  21  22
ATOM     22  C   UNL     1       3.042   2.287  17.672  0.00  0.00    +0.000 C 
ATOM     23  C   UNL     1       3.643   1.285  18.658  0.00  0.00    +0.000 C 
ATOM     24  C   UNL     1       1.726   2.837  18.236  0.00  0.00    +0.000 C 
ENDBRANCH  21  22
ENDBRANCH  17  21
ENDBRANCH  14  17
ENDBRANCH   3  13
BRANCH   1  26
ATOM     25  C   UNL     1      -0.124   8.995  22.053  0.00  0.00    +0.000 C 
ATOM     26  O   UNL     1       0.777   9.813  21.302  0.00  0.00    +0.000 OA
ENDBRANCH   1  26
TORSDOF 7
ENDMDL
MODEL 7
REMARK VINA RESULT:      -6.8      1.720      2.800
REMARK  Name = 
REMARK  10 active torsions:
REMARK  status: ('A' for Active; 'I' for Inactive)
REMARK    1  A    between atoms: C_1  and  O_2
REMARK    2  A    between atoms: O_2  and  C_3
REMARK    3  A    between atoms: C_5  and  N_6
REMARK    4  A    between atoms: C_7  and  C_9
REMARK    5  A    between atoms: C_9  and  N_10
REMARK    6  A    between atoms: C_9  and  C_11
REMARK    7  A    between atoms: C_11  and  C_12
REMARK    8  A    between atoms: C_12  and  C_13
REMARK    9  A    between atoms: C_12  and  C_14
REMARK   10  A    between atoms: C_17  and  C_18
REMARK                            x       y       z     vdW  Elec       q    Type
REMARK                         _______ _______ _______ _____ _____    ______ ____
ROOT
ATOM      1  C   UNL     1       1.238   8.859  20.281  0.00  0.00    +0.000 A 
ATOM      2  C   UNL     1       1.919   7.641  20.127  0.00  0.00    +0.000 A 
ATOM      3  C   UNL     1       2.499   7.258  18.918  0.00  0.00    +0.000 A 
ATOM      4  C   UNL     1       2.287   8.059  17.804  0.00  0.00    +0.000 A 
ATOM      5  C   UNL     1       1.574   9.265  17.934  0.00  0.00    +0.000 A 
ATOM      6  C   UNL     1       1.049   9.710  19.172  0.00  0.00    +0.000 A 
ENDROOT
BRANCH   6   7
ATOM      7  C   UNL     1       0.386  11.039  19.232  0.00  0.00    +0.000 A 
ATOM      8  C   UNL     1      -0.979  11.239  19.112  0.00  0.00    +0.000 A 
ATOM      9  C   UNL     1      -1.430  12.538  19.184  0.00  0.00    +0.000 A 
ATOM     10  N   UNL     1      -0.625  13.601  19.357  0.00  0.00    +0.000 NA
ATOM     11  C   UNL     1       0.679  13.315  19.456  0.00  0.00    +0.000 A 
ATOM     12  N   UNL     1       1.227  12.091  19.397  0.00  0.00    +0.000 NA
ENDBRANCH   6   7
BRANCH   3  13
ATOM     13  N   UNL     1       3.295   6.101  18.805  0.00  0.00    +0.000 N 
ATOM     14  C   UNL     1       2.841   4.826  18.482  0.00  0.00    +0.000 C 
ATOM     15  O   UNL     1       1.669   4.510  18.292  0.00  0.00    +0.000 OA
ATOM     16  H   UNL     1       4.279   6.149  19.063  0.00  0.00    +0.000 HD
BRANCH  14  17
ATOM     17  C   UNL     1       3.960   3.750  18.502  0.00  0.00    +0.000 C 
BRANCH  17  18
ATOM     18  N   UNL     1       3.842   2.914  19.718  0.00  0.00    +0.000 NA
ATOM     19  H   UNL     1       2.847   2.759  19.902  0.00  0.00    +0.000 HD
ATOM     20  H   UNL     1       4.178   3.454  20.516  0.00  0.00    +0.000 HD
ENDBRANCH  17  18
BRANCH  17  21
ATOM     21  C   UNL     1       5.336   4.436  18.387  0.00  0.00    +0.000 C 
BRANCH  21  22
ATOM     22  C   UNL     1       6.024   4.372  17.009  0.00  0.00    +0.000 C 
ATOM     23  C   UNL     1       5.451   5.395  16.028  0.00  0.00    +0.000 C 
ATOM     24  C   UNL     1       7.530   4.606  17.175  0.00  0.00    +0.000 C 
ENDBRANCH  21  22
ENDBRANCH  17  21
ENDBRANCH  14  17
ENDBRANCH   3  13
BRANCH   1  26
ATOM     25  C   UNL     1      -0.469   8.586  21.909  0.00  0.00    +0.000 C 
ATOM     26  O   UNL     1       0.737   9.241  21.506  0.00  0.00    +0.000 OA
ENDBRANCH   1  26
TORSDOF 7
ENDMDL
MODEL 8
REMARK VINA RESULT:      -6.8      2.313      7.513
REMARK  Name = 
REMARK  10 active torsions:
REMARK  status: ('A' for Active; 'I' for Inactive)
REMARK    1  A    between atoms: C_1  and  O_2
REMARK    2  A    between atoms: O_2  and  C_3
REMARK    3  A    between atoms: C_5  and  N_6
REMARK    4  A    between atoms: C_7  and  C_9
REMARK    5  A    between atoms: C_9  and  N_10
REMARK    6  A    between atoms: C_9  and  C_11
REMARK    7  A    between atoms: C_11  and  C_12
REMARK    8  A    between atoms: C_12  and  C_13
REMARK    9  A    between atoms: C_12  and  C_14
REMARK   10  A    between atoms: C_17  and  C_18
REMARK                            x       y       z     vdW  Elec       q    Type
REMARK                         _______ _______ _______ _____ _____    ______ ____
ROOT
ATOM      1  C   UNL     1       2.458   6.910  19.547  0.00  0.00    +0.000 A 
ATOM      2  C   UNL     1       1.630   7.939  20.024  0.00  0.00    +0.000 A 
ATOM      3  C   UNL     1       1.321   9.063  19.259  0.00  0.00    +0.000 A 
ATOM      4  C   UNL     1       1.955   9.219  18.033  0.00  0.00    +0.000 A 
ATOM      5  C   UNL     1       2.817   8.214  17.558  0.00  0.00    +0.000 A 
ATOM      6  C   UNL     1       3.077   7.026  18.285  0.00  0.00    +0.000 A 
ENDROOT
BRANCH   6   7
ATOM      7  C   UNL     1       3.932   5.980  17.665  0.00  0.00    +0.000 A 
ATOM      8  C   UNL     1       5.258   6.162  17.311  0.00  0.00    +0.000 A 
ATOM      9  C   UNL     1       5.906   5.089  16.739  0.00  0.00    +0.000 A 
ATOM     10  N   UNL     1       5.323   3.899  16.510  0.00  0.00    +0.000 NA
ATOM     11  C   UNL     1       4.039   3.816  16.877  0.00  0.00    +0.000 A 
ATOM     12  N   UNL     1       3.311   4.795  17.437  0.00  0.00    +0.000 NA
ENDBRANCH   6   7
BRANCH   3  13
ATOM     13  N   UNL     1       0.385  10.025  19.688  0.00  0.00    +0.000 N 
ATOM     14  C   UNL     1      -0.748  10.430  18.990  0.00  0.00    +0.000 C 
ATOM     15  O   UNL     1      -1.078  10.040  17.872  0.00  0.00    +0.000 OA
ATOM     16  H   UNL     1       0.573  10.555  20.537  0.00  0.00    +0.000 HD
BRANCH  14  17
ATOM     17  C   UNL     1      -1.542  11.557  19.704  0.00  0.00    +0.000 C 
BRANCH  17  18
ATOM     18  N   UNL     1      -1.795  12.675  18.767  0.00  0.00    +0.000 NA
ATOM     19  H   UNL     1      -1.702  12.318  17.813  0.00  0.00    +0.000 HD
ATOM     20  H   UNL     1      -1.043  13.358  18.869  0.00  0.00    +0.000 HD
ENDBRANCH  17  18
BRANCH  17  21
ATOM     21  C   UNL     1      -0.778  12.003  20.967  0.00  0.00    +0.000 C 
BRANCH  21  22
ATOM     22  C   UNL     1      -1.488  11.780  22.316  0.00  0.00    +0.000 C 
ATOM     23  C   UNL     1      -0.942  10.563  23.063  0.00  0.00    +0.000 C 
ATOM     24  C   UNL     1      -1.337  13.031  23.190  0.00  0.00    +0.000 C 
ENDBRANCH  21  22
ENDBRANCH  17  21
ENDBRANCH  14  17
ENDBRANCH   3  13
BRANCH   1  26
ATOM     25  C   UNL     1       1.525   5.016  20.636  0.00  0.00    +0.000 C 
ATOM     26  O   UNL     1       2.687   5.779  20.299  0.00  0.00    +0.000 OA
ENDBRANCH   1  26
TORSDOF 7
ENDMDL
MODEL 9
REMARK VINA RESULT:      -6.8      3.440      4.826
REMARK  Name = 
REMARK  10 active torsions:
REMARK  status: ('A' for Active; 'I' for Inactive)
REMARK    1  A    between atoms: C_1  and  O_2
REMARK    2  A    between atoms: O_2  and  C_3
REMARK    3  A    between atoms: C_5  and  N_6
REMARK    4  A    between atoms: C_7  and  C_9
REMARK    5  A    between atoms: C_9  and  N_10
REMARK    6  A    between atoms: C_9  and  C_11
REMARK    7  A    between atoms: C_11  and  C_12
REMARK    8  A    between atoms: C_12  and  C_13
REMARK    9  A    between atoms: C_12  and  C_14
REMARK   10  A    between atoms: C_17  and  C_18
REMARK                            x       y       z     vdW  Elec       q    Type
REMARK                         _______ _______ _______ _____ _____    ______ ____
ROOT
ATOM      1  C   UNL     1       2.290   6.371  19.569  0.00  0.00    +0.000 A 
ATOM      2  C   UNL     1       3.083   5.672  18.644  0.00  0.00    +0.000 A 
ATOM      3  C   UNL     1       3.737   6.309  17.590  0.00  0.00    +0.000 A 
ATOM      4  C   UNL     1       3.493   7.661  17.386  0.00  0.00    +0.000 A 
ATOM      5  C   UNL     1       2.670   8.368  18.282  0.00  0.00    +0.000 A 
ATOM      6  C   UNL     1       2.065   7.754  19.406  0.00  0.00    +0.000 A 
ENDROOT
BRANCH   6   7
ATOM      7  C   UNL     1       1.283   8.597  20.348  0.00  0.00    +0.000 A 
ATOM      8  C   UNL     1       1.391   8.536  21.727  0.00  0.00    +0.000 A 
ATOM      9  C   UNL     1       0.587   9.385  22.456  0.00  0.00    +0.000 A 
ATOM     10  N   UNL     1      -0.282  10.250  21.903  0.00  0.00    +0.000 NA
ATOM     11  C   UNL     1      -0.324  10.235  20.566  0.00  0.00    +0.000 A 
ATOM     12  N   UNL     1       0.407   9.451  19.760  0.00  0.00    +0.000 NA
ENDBRANCH   6   7
BRANCH   3  13
ATOM     13  N   UNL     1       4.637   5.627  16.747  0.00  0.00    +0.000 N 
ATOM     14  C   UNL     1       4.875   4.256  16.747  0.00  0.00    +0.000 C 
ATOM     15  O   UNL     1       4.368   3.441  17.513  0.00  0.00    +0.000 OA
ATOM     16  H   UNL     1       5.248   6.165  16.136  0.00  0.00    +0.000 HD
BRANCH  14  17
ATOM     17  C   UNL     1       5.975   3.823  15.741  0.00  0.00    +0.000 C 
BRANCH  17  18
ATOM     18  N   UNL     1       7.311   4.208  16.249  0.00  0.00    +0.000 NA
ATOM     19  H   UNL     1       7.713   4.891  15.602  0.00  0.00    +0.000 HD
ATOM     20  H   UNL     1       7.925   3.395  16.191  0.00  0.00    +0.000 HD
ENDBRANCH  17  18
BRANCH  17  21
ATOM     21  C   UNL     1       5.672   4.426  14.355  0.00  0.00    +0.000 C 
BRANCH  21  22
ATOM     22  C   UNL     1       6.277   3.696  13.140  0.00  0.00    +0.000 C 
ATOM     23  C   UNL     1       5.209   3.260  12.137  0.00  0.00    +0.000 C 
ATOM     24  C   UNL     1       7.292   4.610  12.444  0.00  0.00    +0.000 C 
ENDBRANCH  21  22
ENDBRANCH  17  21
ENDBRANCH  14  17
ENDBRANCH   3  13
BRANCH   1  26
ATOM     25  C   UNL     1       2.318   4.481  21.006  0.00  0.00    +0.000 C 
ATOM     26  O   UNL     1       1.714   5.724  20.640  0.00  0.00    +0.000 OA
ENDBRANCH   1  26
TORSDOF 7
ENDMDL
