MODEL 1
REMARK VINA RESULT:      -7.2      0.000      0.000
REMARK  Name = 
REMARK  6 active torsions:
REMARK  status: ('A' for Active; 'I' for Inactive)
REMARK    1  A    between atoms: C_1  and  C_2
REMARK    2  A    between atoms: C_2  and  C_3
REMARK    3  A    between atoms: N_4  and  N_5
REMARK    4  A    between atoms: N_5  and  C_6
REMARK    5  A    between atoms: N_13  and  N_14
REMARK    6  A    between atoms: N_14  and  C_15
REMARK                            x       y       z     vdW  Elec       q    Type
REMARK                         _______ _______ _______ _____ _____    ______ ____
ROOT
ATOM      1  C   UNL     1       2.469   3.673  21.262  0.00  0.00    +0.000 C 
ATOM      2  C   UNL     1       3.043   4.270  20.002  0.00  0.00    +0.000 C 
ATOM      3  N   UNL     1       4.027   3.631  19.430  0.00  0.00    +0.000 NA
ENDROOT
BRANCH   3   4
ATOM      4  N   UNL     1       4.536   4.073  18.224  0.00  0.00    +0.000 N 
ATOM      5  C   UNL     1       4.012   3.350  17.063  0.00  0.00    +0.000 C 
ATOM      6  C   UNL     1       5.705   4.804  18.038  0.00  0.00    +0.000 C 
ATOM      7  N   UNL     1       5.926   5.493  16.967  0.00  0.00    +0.000 NA
ATOM      8  C   UNL     1       7.154   6.292  16.931  0.00  0.00    +0.000 C 
ATOM      9  C   UNL     1       7.582   6.746  18.319  0.00  0.00    +0.000 C 
ATOM     10  C   UNL     1       7.751   5.511  19.183  0.00  0.00    +0.000 C 
ATOM     11  N   UNL     1       6.524   4.767  19.131  0.00  0.00    +0.000 N 
ATOM     12  H   UNL     1       6.469   3.902  19.658  0.00  0.00    +0.000 HD
ENDBRANCH   3   4
BRANCH   2  13
ATOM     13  C   UNL     1       2.353   5.509  19.479  0.00  0.00    +0.000 C 
ATOM     14  N   UNL     1       2.800   6.677  19.836  0.00  0.00    +0.000 NA
BRANCH  14  15
ATOM     15  N   UNL     1       2.071   7.754  19.354  0.00  0.00    +0.000 N 
ATOM     16  C   UNL     1       2.557   8.277  18.074  0.00  0.00    +0.000 C 
ATOM     17  C   UNL     1       1.337   8.639  20.153  0.00  0.00    +0.000 C 
ATOM     18  N   UNL     1       0.590   9.574  19.668  0.00  0.00    +0.000 NA
ATOM     19  C   UNL     1      -0.090  10.471  20.607  0.00  0.00    +0.000 C 
ATOM     20  C   UNL     1      -0.291   9.863  21.986  0.00  0.00    +0.000 C 
ATOM     21  C   UNL     1       1.039   9.326  22.472  0.00  0.00    +0.000 C 
ATOM     22  N   UNL     1       1.526   8.399  21.489  0.00  0.00    +0.000 N 
ATOM     23  H   UNL     1       2.448   8.015  21.661  0.00  0.00    +0.000 HD
ENDBRANCH  14  15
ENDBRANCH   2  13
TORSDOF 3
ENDMDL
MODEL 2
REMARK VINA RESULT:      -7.2      0.943      1.046
REMARK  Name = 
REMARK  6 active torsions:
REMARK  status: ('A' for Active; 'I' for Inactive)
REMARK    1  A    between atoms: C_1  and  C_2
REMARK    2  A    between atoms: C_2  and  C_3
REMARK    3  A    between atoms: N_4  and  N_5
REMARK    4  A    between atoms: N_5  and  C_6
REMARK    5  A    between atoms: N_13  and  N_14
REMARK    6  A    between atoms: N_14  and  C_15
REMARK                            x       y       z     vdW  Elec       q    Type
REMARK                         _______ _______ _______ _____ _____    ______ ____
ROOT
ATOM      1  C   UNL     1       2.263   3.628  21.666  0.00  0.00    +0.000 C 
ATOM      2  C   UNL     1       2.611   3.940  20.233  0.00  0.00    +0.000 C 
ATOM      3  N   UNL     1       3.290   3.042  19.571  0.00  0.00    +0.000 NA
ENDROOT
BRANCH   3   4
ATOM      4  N   UNL     1       3.561   3.225  18.229  0.00  0.00    +0.000 N 
ATOM      5  C   UNL     1       2.813   2.323  17.349  0.00  0.00    +0.000 C 
ATOM      6  C   UNL     1       4.681   3.849  17.689  0.00  0.00    +0.000 C 
ATOM      7  N   UNL     1       4.699   4.313  16.483  0.00  0.00    +0.000 NA
ATOM      8  C   UNL     1       5.907   5.029  16.062  0.00  0.00    +0.000 C 
ATOM      9  C   UNL     1       6.601   5.714  17.231  0.00  0.00    +0.000 C 
ATOM     10  C   UNL     1       6.919   4.657  18.271  0.00  0.00    +0.000 C 
ATOM     11  N   UNL     1       5.696   3.977  18.595  0.00  0.00    +0.000 N 
ATOM     12  H   UNL     1       5.733   3.230  19.280  0.00  0.00    +0.000 HD
ENDBRANCH   3   4
BRANCH   2  13
ATOM     13  C   UNL     1       2.056   5.232  19.679  0.00  0.00    +0.000 C 
ATOM     14  N   UNL     1       2.746   6.325  19.818  0.00  0.00    +0.000 NA
BRANCH  14  15
ATOM     15  N   UNL     1       2.132   7.469  19.330  0.00  0.00    +0.000 N 
ATOM     16  C   UNL     1       2.670   7.934  18.048  0.00  0.00    +0.000 C 
ATOM     17  C   UNL     1       1.494   8.429  20.125  0.00  0.00    +0.000 C 
ATOM     18  N   UNL     1       0.848   9.435  19.636  0.00  0.00    +0.000 NA
ATOM     19  C   UNL     1       0.265  10.402  20.571  0.00  0.00    +0.000 C 
ATOM     20  C   UNL     1       0.002   9.824  21.952  0.00  0.00    +0.000 C 
ATOM     21  C   UNL     1       1.269   9.154  22.441  0.00  0.00    +0.000 C 
ATOM     22  N   UNL     1       1.657   8.177  21.463  0.00  0.00    +0.000 N 
ATOM     23  H   UNL     1       2.535   7.701  21.636  0.00  0.00    +0.000 HD
ENDBRANCH  14  15
ENDBRANCH   2  13
TORSDOF 3
ENDMDL
MODEL 3
REMARK VINA RESULT:      -6.6      1.377      2.185
REMARK  Name = 
REMARK  6 active torsions:
REMARK  status: ('A' for Active; 'I' for Inactive)
REMARK    1  A    between atoms: C_1  and  C_2
REMARK    2  A    between atoms: C_2  and  C_3
REMARK    3  A    between atoms: N_4  and  N_5
REMARK    4  A    between atoms: N_5  and  C_6
REMARK    5  A    between atoms: N_13  and  N_14
REMARK    6  A    between atoms: N_14  and  C_15
REMARK                            x       y       z     vdW  Elec       q    Type
REMARK                         _______ _______ _______ _____ _____    ______ ____
ROOT
ATOM      1  C   UNL     1       3.100   3.529  20.204  0.00  0.00    +0.000 C 
ATOM      2  C   UNL     1       4.121   4.386  19.499  0.00  0.00    +0.000 C 
ATOM      3  N   UNL     1       5.261   3.829  19.190  0.00  0.00    +0.000 NA
ENDROOT
BRANCH   3   4
ATOM      4  N   UNL     1       6.202   4.531  18.462  0.00  0.00    +0.000 N 
ATOM      5  C   UNL     1       6.902   5.557  19.240  0.00  0.00    +0.000 C 
ATOM      6  C   UNL     1       6.267   4.635  17.077  0.00  0.00    +0.000 C 
ATOM      7  N   UNL     1       7.349   4.978  16.459  0.00  0.00    +0.000 NA
ATOM      8  C   UNL     1       7.314   4.963  14.994  0.00  0.00    +0.000 C 
ATOM      9  C   UNL     1       6.339   3.926  14.456  0.00  0.00    +0.000 C 
ATOM     10  C   UNL     1       4.971   4.224  15.040  0.00  0.00    +0.000 C 
ATOM     11  N   UNL     1       5.101   4.262  16.469  0.00  0.00    +0.000 N 
ATOM     12  H   UNL     1       4.271   4.455  17.018  0.00  0.00    +0.000 HD
ENDBRANCH   3   4
BRANCH   2  13
ATOM     13  C   UNL     1       3.680   5.786  19.142  0.00  0.00    +0.000 C 
ATOM     14  N   UNL     1       2.488   6.178  19.484  0.00  0.00    +0.000 NA
BRANCH  14  15
ATOM     15  N   UNL     1       2.151   7.457  19.065  0.00  0.00    +0.000 N 
ATOM     16  C   UNL     1       2.900   7.916  17.891  0.00  0.00    +0.000 C 
ATOM     17  C   UNL     1       1.618   8.451  19.894  0.00  0.00    +0.000 C 
ATOM     18  N   UNL     1       1.224   9.600  19.456  0.00  0.00    +0.000 NA
ATOM     19  C   UNL     1       0.731  10.578  20.430  0.00  0.00    +0.000 C 
ATOM     20  C   UNL     1       0.220   9.947  21.715  0.00  0.00    +0.000 C 
ATOM     21  C   UNL     1       1.282   9.006  22.243  0.00  0.00    +0.000 C 
ATOM     22  N   UNL     1       1.587   8.059  21.208  0.00  0.00    +0.000 N 
ATOM     23  H   UNL     1       2.339   7.410  21.409  0.00  0.00    +0.000 HD
ENDBRANCH  14  15
ENDBRANCH   2  13
TORSDOF 3
ENDMDL
MODEL 4
REMARK VINA RESULT:      -6.5      2.821      5.352
REMARK  Name = 
REMARK  6 active torsions:
REMARK  status: ('A' for Active; 'I' for Inactive)
REMARK    1  A    between atoms: C_1  and  C_2
REMARK    2  A    between atoms: C_2  and  C_3
REMARK    3  A    between atoms: N_4  and  N_5
REMARK    4  A    between atoms: N_5  and  C_6
REMARK    5  A    between atoms: N_13  and  N_14
REMARK    6  A    between atoms: N_14  and  C_15
REMARK                            x       y       z     vdW  Elec       q    Type
REMARK                         _______ _______ _______ _____ _____    ______ ____
ROOT
ATOM      1  C   UNL     1       7.219   8.290  17.744  0.00  0.00    +0.000 C 
ATOM      2  C   UNL     1       6.630   7.069  17.085  0.00  0.00    +0.000 C 
ATOM      3  N   UNL     1       7.448   6.284  16.437  0.00  0.00    +0.000 NA
ENDROOT
BRANCH   3   4
ATOM      4  N   UNL     1       6.989   5.101  15.890  0.00  0.00    +0.000 N 
ATOM      5  C   UNL     1       6.804   4.030  16.872  0.00  0.00    +0.000 C 
ATOM      6  C   UNL     1       7.062   4.726  14.552  0.00  0.00    +0.000 C 
ATOM      7  N   UNL     1       6.303   3.808  14.050  0.00  0.00    +0.000 NA
ATOM      8  C   UNL     1       6.414   3.567  12.608  0.00  0.00    +0.000 C 
ATOM      9  C   UNL     1       6.821   4.821  11.849  0.00  0.00    +0.000 C 
ATOM     10  C   UNL     1       8.133   5.314  12.430  0.00  0.00    +0.000 C 
ATOM     11  N   UNL     1       7.952   5.484  13.845  0.00  0.00    +0.000 N 
ATOM     12  H   UNL     1       8.742   5.808  14.391  0.00  0.00    +0.000 HD
ENDBRANCH   3   4
BRANCH   2  13
ATOM     13  C   UNL     1       5.156   6.832  17.320  0.00  0.00    +0.000 C 
ATOM     14  N   UNL     1       4.787   6.124  18.346  0.00  0.00    +0.000 NA
BRANCH  14  15
ATOM     15  N   UNL     1       3.420   5.912  18.449  0.00  0.00    +0.000 N 
ATOM     16  C   UNL     1       2.644   7.132  18.694  0.00  0.00    +0.000 C 
ATOM     17  C   UNL     1       2.830   4.706  18.847  0.00  0.00    +0.000 C 
ATOM     18  N   UNL     1       1.555   4.508  18.841  0.00  0.00    +0.000 NA
ATOM     19  C   UNL     1       1.053   3.220  19.329  0.00  0.00    +0.000 C 
ATOM     20  C   UNL     1       2.079   2.101  19.245  0.00  0.00    +0.000 C 
ATOM     21  C   UNL     1       3.359   2.573  19.901  0.00  0.00    +0.000 C 
ATOM     22  N   UNL     1       3.765   3.789  19.253  0.00  0.00    +0.000 N 
ATOM     23  H   UNL     1       4.578   4.250  19.645  0.00  0.00    +0.000 HD
ENDBRANCH  14  15
ENDBRANCH   2  13
TORSDOF 3
ENDMDL
MODEL 5
REMARK VINA RESULT:      -6.0      1.340      3.639
REMARK  Name = 
REMARK  6 active torsions:
REMARK  status: ('A' for Active; 'I' for Inactive)
REMARK    1  A    between atoms: C_1  and  C_2
REMARK    2  A    between atoms: C_2  and  C_3
REMARK    3  A    between atoms: N_4  and  N_5
REMARK    4  A    between atoms: N_5  and  C_6
REMARK    5  A    between atoms: N_13  and  N_14
REMARK    6  A    between atoms: N_14  and  C_15
REMARK                            x       y       z     vdW  Elec       q    Type
REMARK                         _______ _______ _______ _____ _____    ______ ____
ROOT
ATOM      1  C   UNL     1       6.956   5.565  19.323  0.00  0.00    +0.000 C 
ATOM      2  C   UNL     1       5.605   5.134  18.811  0.00  0.00    +0.000 C 
ATOM      3  N   UNL     1       5.337   3.856  18.828  0.00  0.00    +0.000 NA
ENDROOT
BRANCH   3   4
ATOM      4  N   UNL     1       4.085   3.404  18.460  0.00  0.00    +0.000 N 
ATOM      5  C   UNL     1       3.824   3.497  17.021  0.00  0.00    +0.000 C 
ATOM      6  C   UNL     1       2.980   3.257  19.293  0.00  0.00    +0.000 C 
ATOM      7  N   UNL     1       1.980   2.498  18.987  0.00  0.00    +0.000 NA
ATOM      8  C   UNL     1       0.919   2.358  19.989  0.00  0.00    +0.000 C 
ATOM      9  C   UNL     1       1.449   2.509  21.408  0.00  0.00    +0.000 C 
ATOM     10  C   UNL     1       2.132   3.860  21.510  0.00  0.00    +0.000 C 
ATOM     11  N   UNL     1       3.122   3.933  20.472  0.00  0.00    +0.000 N 
ATOM     12  H   UNL     1       3.673   4.781  20.397  0.00  0.00    +0.000 HD
ENDBRANCH   3   4
BRANCH   2  13
ATOM     13  C   UNL     1       4.661   6.243  18.411  0.00  0.00    +0.000 C 
ATOM     14  N   UNL     1       3.603   6.462  19.134  0.00  0.00    +0.000 NA
BRANCH  14  15
ATOM     15  N   UNL     1       2.766   7.462  18.659  0.00  0.00    +0.000 N 
ATOM     16  C   UNL     1       3.258   8.125  17.448  0.00  0.00    +0.000 C 
ATOM     17  C   UNL     1       1.867   8.189  19.449  0.00  0.00    +0.000 C 
ATOM     18  N   UNL     1       1.033   9.045  18.962  0.00  0.00    +0.000 NA
ATOM     19  C   UNL     1       0.176   9.783  19.896  0.00  0.00    +0.000 C 
ATOM     20  C   UNL     1      -0.029   9.067  21.222  0.00  0.00    +0.000 C 
ATOM     21  C   UNL     1       1.327   8.681  21.774  0.00  0.00    +0.000 C 
ATOM     22  N   UNL     1       2.000   7.891  20.780  0.00  0.00    +0.000 N 
ATOM     23  H   UNL     1       2.953   7.623  20.998  0.00  0.00    +0.000 HD
ENDBRANCH  14  15
ENDBRANCH   2  13
TORSDOF 3
ENDMDL
MODEL 6
REMARK VINA RESULT:      -5.9      2.151      7.422
REMARK  Name = 
REMARK  6 active torsions:
REMARK  status: ('A' for Active; 'I' for Inactive)
REMARK    1  A    between atoms: C_1  and  C_2
REMARK    2  A    between atoms: C_2  and  C_3
REMARK    3  A    between atoms: N_4  and  N_5
REMARK    4  A    between atoms: N_5  and  C_6
REMARK    5  A    between atoms: N_13  and  N_14
REMARK    6  A    between atoms: N_14  and  C_15
REMARK                            x       y       z     vdW  Elec       q    Type
REMARK                         _______ _______ _______ _____ _____    ______ ____
ROOT
ATOM      1  C   UNL     1       1.456   9.276  22.425  0.00  0.00    +0.000 C 
ATOM      2  C   UNL     1       1.051   9.017  20.996  0.00  0.00    +0.000 C 
ATOM      3  N   UNL     1       0.757  10.054  20.259  0.00  0.00    +0.000 NA
ENDROOT
BRANCH   3   4
ATOM      4  N   UNL     1       0.468   9.894  18.917  0.00  0.00    +0.000 N 
ATOM      5  C   UNL     1       1.657   9.788  18.068  0.00  0.00    +0.000 C 
ATOM      6  C   UNL     1      -0.733  10.203  18.287  0.00  0.00    +0.000 C 
ATOM      7  N   UNL     1      -1.064   9.697  17.145  0.00  0.00    +0.000 NA
ATOM      8  C   UNL     1      -2.395  10.031  16.629  0.00  0.00    +0.000 C 
ATOM      9  C   UNL     1      -3.393  10.292  17.748  0.00  0.00    +0.000 C 
ATOM     10  C   UNL     1      -2.841  11.406  18.617  0.00  0.00    +0.000 C 
ATOM     11  N   UNL     1      -1.525  11.020  19.044  0.00  0.00    +0.000 N 
ATOM     12  H   UNL     1      -1.009  11.661  19.636  0.00  0.00    +0.000 HD
ENDBRANCH   3   4
BRANCH   2  13
ATOM     13  C   UNL     1       1.114   7.579  20.537  0.00  0.00    +0.000 C 
ATOM     14  N   UNL     1       2.248   7.100  20.119  0.00  0.00    +0.000 NA
BRANCH  14  15
ATOM     15  N   UNL     1       2.197   5.790  19.664  0.00  0.00    +0.000 N 
ATOM     16  C   UNL     1       1.582   4.855  20.610  0.00  0.00    +0.000 C 
ATOM     17  C   UNL     1       3.077   5.240  18.724  0.00  0.00    +0.000 C 
ATOM     18  N   UNL     1       2.947   4.047  18.249  0.00  0.00    +0.000 NA
ATOM     19  C   UNL     1       3.962   3.564  17.308  0.00  0.00    +0.000 C 
ATOM     20  C   UNL     1       4.699   4.681  16.587  0.00  0.00    +0.000 C 
ATOM     21  C   UNL     1       5.208   5.664  17.620  0.00  0.00    +0.000 C 
ATOM     22  N   UNL     1       4.085   6.110  18.397  0.00  0.00    +0.000 N 
ATOM     23  H   UNL     1       4.300   6.724  19.173  0.00  0.00    +0.000 HD
ENDBRANCH  14  15
ENDBRANCH   2  13
TORSDOF 3
ENDMDL
MODEL 7
REMARK VINA RESULT:      -5.8      2.116      3.016
REMARK  Name = 
REMARK  6 active torsions:
REMARK  status: ('A' for Active; 'I' for Inactive)
REMARK    1  A    between atoms: C_1  and  C_2
REMARK    2  A    between atoms: C_2  and  C_3
REMARK    3  A    between atoms: N_4  and  N_5
REMARK    4  A    between atoms: N_5  and  C_6
REMARK    5  A    between atoms: N_13  and  N_14
REMARK    6  A    between atoms: N_14  and  C_15
REMARK                            x       y       z     vdW  Elec       q    Type
REMARK                         _______ _______ _______ _____ _____    ______ ____
ROOT
ATOM      1  C   UNL     1       4.036   3.300  18.890  0.00  0.00    +0.000 C 
ATOM      2  C   UNL     1       4.835   4.318  18.116  0.00  0.00    +0.000 C 
ATOM      3  N   UNL     1       6.006   3.949  17.672  0.00  0.00    +0.000 NA
ENDROOT
BRANCH   3   4
ATOM      4  N   UNL     1       6.749   4.802  16.878  0.00  0.00    +0.000 N 
ATOM      5  C   UNL     1       7.213   6.003  17.577  0.00  0.00    +0.000 C 
ATOM      6  C   UNL     1       6.761   4.836  15.488  0.00  0.00    +0.000 C 
ATOM      7  N   UNL     1       7.725   5.377  14.818  0.00  0.00    +0.000 NA
ATOM      8  C   UNL     1       7.665   5.269  13.357  0.00  0.00    +0.000 C 
ATOM      9  C   UNL     1       6.941   4.009  12.907  0.00  0.00    +0.000 C 
ATOM     10  C   UNL     1       5.553   4.023  13.519  0.00  0.00    +0.000 C 
ATOM     11  N   UNL     1       5.699   4.174  14.939  0.00  0.00    +0.000 N 
ATOM     12  H   UNL     1       4.857   4.206  15.504  0.00  0.00    +0.000 HD
ENDBRANCH   3   4
BRANCH   2  13
ATOM     13  C   UNL     1       4.153   5.641  17.856  0.00  0.00    +0.000 C 
ATOM     14  N   UNL     1       3.302   6.093  18.729  0.00  0.00    +0.000 NA
BRANCH  14  15
ATOM     15  N   UNL     1       2.684   7.285  18.380  0.00  0.00    +0.000 N 
ATOM     16  C   UNL     1       3.314   7.974  17.249  0.00  0.00    +0.000 C 
ATOM     17  C   UNL     1       1.935   8.079  19.256  0.00  0.00    +0.000 C 
ATOM     18  N   UNL     1       1.291   9.133  18.879  0.00  0.00    +0.000 NA
ATOM     19  C   UNL     1       0.583   9.912  19.899  0.00  0.00    +0.000 C 
ATOM     20  C   UNL     1       0.223   9.103  21.135  0.00  0.00    +0.000 C 
ATOM     21  C   UNL     1       1.470   8.398  21.627  0.00  0.00    +0.000 C 
ATOM     22  N   UNL     1       1.988   7.611  20.543  0.00  0.00    +0.000 N 
ATOM     23  H   UNL     1       2.867   7.138  20.720  0.00  0.00    +0.000 HD
ENDBRANCH  14  15
ENDBRANCH   2  13
TORSDOF 3
ENDMDL
MODEL 8
REMARK VINA RESULT:      -5.8      1.667      3.814
REMARK  Name = 
REMARK  6 active torsions:
REMARK  status: ('A' for Active; 'I' for Inactive)
REMARK    1  A    between atoms: C_1  and  C_2
REMARK    2  A    between atoms: C_2  and  C_3
REMARK    3  A    between atoms: N_4  and  N_5
REMARK    4  A    between atoms: N_5  and  C_6
REMARK    5  A    between atoms: N_13  and  N_14
REMARK    6  A    between atoms: N_14  and  C_15
REMARK                            x       y       z     vdW  Elec       q    Type
REMARK                         _______ _______ _______ _____ _____    ______ ____
ROOT
ATOM      1  C   UNL     1       4.741   7.106  15.410  0.00  0.00    +0.000 C 
ATOM      2  C   UNL     1       4.914   6.300  16.672  0.00  0.00    +0.000 C 
ATOM      3  N   UNL     1       5.729   5.281  16.626  0.00  0.00    +0.000 NA
ENDROOT
BRANCH   3   4
ATOM      4  N   UNL     1       6.003   4.557  17.771  0.00  0.00    +0.000 N 
ATOM      5  C   UNL     1       7.423   4.541  18.131  0.00  0.00    +0.000 C 
ATOM      6  C   UNL     1       5.194   3.584  18.347  0.00  0.00    +0.000 C 
ATOM      7  N   UNL     1       5.320   3.223  19.582  0.00  0.00    +0.000 NA
ATOM      8  C   UNL     1       4.348   2.253  20.096  0.00  0.00    +0.000 C 
ATOM      9  C   UNL     1       3.004   2.364  19.391  0.00  0.00    +0.000 C 
ATOM     10  C   UNL     1       3.239   2.178  17.905  0.00  0.00    +0.000 C 
ATOM     11  N   UNL     1       4.229   3.133  17.492  0.00  0.00    +0.000 N 
ATOM     12  H   UNL     1       4.506   3.140  16.517  0.00  0.00    +0.000 HD
ENDBRANCH   3   4
BRANCH   2  13
ATOM     13  C   UNL     1       4.189   6.814  17.894  0.00  0.00    +0.000 C 
ATOM     14  N   UNL     1       3.098   6.219  18.277  0.00  0.00    +0.000 NA
BRANCH  14  15
ATOM     15  N   UNL     1       2.471   6.794  19.372  0.00  0.00    +0.000 N 
ATOM     16  C   UNL     1       1.979   5.824  20.355  0.00  0.00    +0.000 C 
ATOM     17  C   UNL     1       1.845   8.047  19.363  0.00  0.00    +0.000 C 
ATOM     18  N   UNL     1       1.355   8.598  20.422  0.00  0.00    +0.000 NA
ATOM     19  C   UNL     1       0.678   9.890  20.277  0.00  0.00    +0.000 C 
ATOM     20  C   UNL     1       1.120  10.671  19.050  0.00  0.00    +0.000 C 
ATOM     21  C   UNL     1       1.020   9.763  17.842  0.00  0.00    +0.000 C 
ATOM     22  N   UNL     1       1.806   8.590  18.105  0.00  0.00    +0.000 N 
ATOM     23  H   UNL     1       1.769   7.864  17.399  0.00  0.00    +0.000 HD
ENDBRANCH  14  15
ENDBRANCH   2  13
TORSDOF 3
ENDMDL
MODEL 9
REMARK VINA RESULT:      -5.7      2.561      7.670
REMARK  Name = 
REMARK  6 active torsions:
REMARK  status: ('A' for Active; 'I' for Inactive)
REMARK    1  A    between atoms: C_1  and  C_2
REMARK    2  A    between atoms: C_2  and  C_3
REMARK    3  A    between atoms: N_4  and  N_5
REMARK    4  A    between atoms: N_5  and  C_6
REMARK    5  A    between atoms: N_13  and  N_14
REMARK    6  A    between atoms: N_14  and  C_15
REMARK                            x       y       z     vdW  Elec       q    Type
REMARK                         _______ _______ _______ _____ _____    ______ ____
ROOT
ATOM      1  C   UNL     1       0.591   9.339  22.584  0.00  0.00    +0.000 C 
ATOM      2  C   UNL     1       0.540   9.332  21.077  0.00  0.00    +0.000 C 
ATOM      3  N   UNL     1      -0.254  10.192  20.499  0.00  0.00    +0.000 NA
ENDROOT
BRANCH   3   4
ATOM      4  N   UNL     1      -0.279  10.299  19.122  0.00  0.00    +0.000 N 
ATOM      5  C   UNL     1       1.046  10.478  18.522  0.00  0.00    +0.000 C 
ATOM      6  C   UNL     1      -1.378  10.635  18.338  0.00  0.00    +0.000 C 
ATOM      7  N   UNL     1      -1.437  10.360  17.077  0.00  0.00    +0.000 NA
ATOM      8  C   UNL     1      -2.686  10.685  16.381  0.00  0.00    +0.000 C 
ATOM      9  C   UNL     1      -3.891  10.616  17.309  0.00  0.00    +0.000 C 
ATOM     10  C   UNL     1      -3.642  11.560  18.469  0.00  0.00    +0.000 C 
ATOM     11  N   UNL     1      -2.386  11.202  19.067  0.00  0.00    +0.000 N 
ATOM     12  H   UNL     1      -2.065  11.743  19.862  0.00  0.00    +0.000 HD
ENDBRANCH   3   4
BRANCH   2  13
ATOM     13  C   UNL     1       1.488   8.380  20.385  0.00  0.00    +0.000 C 
ATOM     14  N   UNL     1       1.425   7.112  20.665  0.00  0.00    +0.000 NA
BRANCH  14  15
ATOM     15  N   UNL     1       2.371   6.324  20.025  0.00  0.00    +0.000 N 
ATOM     16  C   UNL     1       2.772   6.827  18.708  0.00  0.00    +0.000 C 
ATOM     17  C   UNL     1       2.550   4.954  20.252  0.00  0.00    +0.000 C 
ATOM     18  N   UNL     1       3.501   4.268  19.713  0.00  0.00    +0.000 NA
ATOM     19  C   UNL     1       3.555   2.829  19.988  0.00  0.00    +0.000 C 
ATOM     20  C   UNL     1       2.860   2.433  21.280  0.00  0.00    +0.000 C 
ATOM     21  C   UNL     1       1.467   3.027  21.278  0.00  0.00    +0.000 C 
ATOM     22  N   UNL     1       1.592   4.445  21.091  0.00  0.00    +0.000 N 
ATOM     23  H   UNL     1       0.723   4.959  21.000  0.00  0.00    +0.000 HD
ENDBRANCH  14  15
ENDBRANCH   2  13
TORSDOF 3
ENDMDL
