MODEL 1
REMARK VINA RESULT:      -7.8      0.000      0.000
REMARK  Name = 
REMARK  5 active torsions:
REMARK  status: ('A' for Active; 'I' for Inactive)
REMARK    1  A    between atoms: C_1  and  O_2
REMARK    2  A    between atoms: O_2  and  C_3
REMARK    3  A    between atoms: C_8  and  C_9
REMARK    4  A    between atoms: C_10  and  C_11
REMARK    5  A    between atoms: C_11  and  C_12
REMARK                            x       y       z     vdW  Elec       q    Type
REMARK                         _______ _______ _______ _____ _____    ______ ____
ROOT
ATOM      1  C   UNL     1       6.042   3.328  12.465  0.00  0.00    +0.000 A 
ATOM      2  C   UNL     1       7.185   4.101  12.266  0.00  0.00    +0.000 A 
ATOM      3  C   UNL     1       7.640   4.955  13.276  0.00  0.00    +0.000 A 
ATOM      4  C   UNL     1       6.968   5.023  14.496  0.00  0.00    +0.000 A 
ATOM      5  N   UNL     1       7.426   5.859  15.515  0.00  0.00    +0.000 N 
ATOM      6  C   UNL     1       6.884   5.843  16.783  0.00  0.00    +0.000 A 
ATOM      7  C   UNL     1       7.602   6.713  17.786  0.00  0.00    +0.000 C 
ATOM      8  C   UNL     1       5.796   5.103  17.105  0.00  0.00    +0.000 A 
ATOM      9  C   UNL     1       5.128   4.333  15.995  0.00  0.00    +0.000 A 
ATOM     10  O   UNL     1       4.041   3.782  16.157  0.00  0.00    +0.000 OA
ATOM     11  C   UNL     1       5.814   4.259  14.682  0.00  0.00    +0.000 A 
ATOM     12  C   UNL     1       5.335   3.429  13.661  0.00  0.00    +0.000 A 
ATOM     13  H   UNL     1       8.301   6.348  15.371  0.00  0.00    +0.000 HD
ENDROOT
BRANCH   1  15
ATOM     14  C   UNL     1       6.413   1.419  11.133  0.00  0.00    +0.000 C 
ATOM     15  O   UNL     1       5.530   2.462  11.541  0.00  0.00    +0.000 OA
ENDBRANCH   1  15
BRANCH   8  16
ATOM     16  C   UNL     1       5.100   5.072  18.441  0.00  0.00    +0.000 C 
BRANCH  16  17
ATOM     17  C   UNL     1       3.951   6.047  18.610  0.00  0.00    +0.000 A 
ATOM     18  C   UNL     1       3.104   5.974  19.727  0.00  0.00    +0.000 A 
ATOM     19  C   UNL     1       2.113   6.936  19.942  0.00  0.00    +0.000 A 
ATOM     20  C   UNL     1       1.954   7.984  19.041  0.00  0.00    +0.000 A 
ATOM     21  C   UNL     1       2.766   8.054  17.910  0.00  0.00    +0.000 A 
ATOM     22  C   UNL     1       3.750   7.086  17.689  0.00  0.00    +0.000 A 
ENDBRANCH  16  17
ENDBRANCH   8  16
TORSDOF 3
ENDMDL
MODEL 2
REMARK VINA RESULT:      -7.7      0.944      1.071
REMARK  Name = 
REMARK  5 active torsions:
REMARK  status: ('A' for Active; 'I' for Inactive)
REMARK    1  A    between atoms: C_1  and  O_2
REMARK    2  A    between atoms: O_2  and  C_3
REMARK    3  A    between atoms: C_8  and  C_9
REMARK    4  A    between atoms: C_10  and  C_11
REMARK    5  A    between atoms: C_11  and  C_12
REMARK                            x       y       z     vdW  Elec       q    Type
REMARK                         _______ _______ _______ _____ _____    ______ ____
ROOT
ATOM      1  C   UNL     1       6.089   3.565  12.785  0.00  0.00    +0.000 A 
ATOM      2  C   UNL     1       7.137   4.466  12.599  0.00  0.00    +0.000 A 
ATOM      3  C   UNL     1       7.591   5.244  13.669  0.00  0.00    +0.000 A 
ATOM      4  C   UNL     1       7.015   5.109  14.932  0.00  0.00    +0.000 A 
ATOM      5  N   UNL     1       7.475   5.870  16.008  0.00  0.00    +0.000 N 
ATOM      6  C   UNL     1       7.040   5.661  17.299  0.00  0.00    +0.000 A 
ATOM      7  C   UNL     1       7.754   6.482  18.346  0.00  0.00    +0.000 C 
ATOM      8  C   UNL     1       6.053   4.785  17.606  0.00  0.00    +0.000 A 
ATOM      9  C   UNL     1       5.371   4.079  16.463  0.00  0.00    +0.000 A 
ATOM     10  O   UNL     1       4.356   3.408  16.633  0.00  0.00    +0.000 OA
ATOM     11  C   UNL     1       5.954   4.219  15.106  0.00  0.00    +0.000 A 
ATOM     12  C   UNL     1       5.473   3.462  14.030  0.00  0.00    +0.000 A 
ATOM     13  H   UNL     1       8.288   6.457  15.862  0.00  0.00    +0.000 HD
ENDROOT
BRANCH   1  15
ATOM     14  C   UNL     1       4.285   3.112  11.336  0.00  0.00    +0.000 C 
ATOM     15  O   UNL     1       5.586   2.759  11.803  0.00  0.00    +0.000 OA
ENDBRANCH   1  15
BRANCH   8  16
ATOM     16  C   UNL     1       5.471   4.538  18.974  0.00  0.00    +0.000 C 
BRANCH  16  17
ATOM     17  C   UNL     1       4.142   5.209  19.258  0.00  0.00    +0.000 A 
ATOM     18  C   UNL     1       3.242   4.660  20.185  0.00  0.00    +0.000 A 
ATOM     19  C   UNL     1       2.066   5.332  20.530  0.00  0.00    +0.000 A 
ATOM     20  C   UNL     1       1.772   6.563  19.950  0.00  0.00    +0.000 A 
ATOM     21  C   UNL     1       2.639   7.107  19.004  0.00  0.00    +0.000 A 
ATOM     22  C   UNL     1       3.810   6.430  18.651  0.00  0.00    +0.000 A 
ENDBRANCH  16  17
ENDBRANCH   8  16
TORSDOF 3
ENDMDL
MODEL 3
REMARK VINA RESULT:      -7.7      3.874      6.938
REMARK  Name = 
REMARK  5 active torsions:
REMARK  status: ('A' for Active; 'I' for Inactive)
REMARK    1  A    between atoms: C_1  and  O_2
REMARK    2  A    between atoms: O_2  and  C_3
REMARK    3  A    between atoms: C_8  and  C_9
REMARK    4  A    between atoms: C_10  and  C_11
REMARK    5  A    between atoms: C_11  and  C_12
REMARK                            x       y       z     vdW  Elec       q    Type
REMARK                         _______ _______ _______ _____ _____    ______ ____
ROOT
ATOM      1  C   UNL     1       3.794   5.671  17.735  0.00  0.00    +0.000 A 
ATOM      2  C   UNL     1       3.596   5.024  18.954  0.00  0.00    +0.000 A 
ATOM      3  C   UNL     1       2.879   5.656  19.976  0.00  0.00    +0.000 A 
ATOM      4  C   UNL     1       2.340   6.926  19.776  0.00  0.00    +0.000 A 
ATOM      5  N   UNL     1       1.609   7.556  20.784  0.00  0.00    +0.000 N 
ATOM      6  C   UNL     1       0.933   8.739  20.578  0.00  0.00    +0.000 A 
ATOM      7  C   UNL     1       0.084   9.192  21.741  0.00  0.00    +0.000 C 
ATOM      8  C   UNL     1       1.019   9.439  19.421  0.00  0.00    +0.000 A 
ATOM      9  C   UNL     1       1.957   8.917  18.363  0.00  0.00    +0.000 A 
ATOM     10  O   UNL     1       2.231   9.577  17.363  0.00  0.00    +0.000 OA
ATOM     11  C   UNL     1       2.558   7.575  18.559  0.00  0.00    +0.000 A 
ATOM     12  C   UNL     1       3.303   6.961  17.545  0.00  0.00    +0.000 A 
ATOM     13  H   UNL     1       1.414   7.030  21.628  0.00  0.00    +0.000 HD
ENDROOT
BRANCH   1  15
ATOM     14  C   UNL     1       5.255   6.052  15.924  0.00  0.00    +0.000 C 
ATOM     15  O   UNL     1       4.472   5.130  16.680  0.00  0.00    +0.000 OA
ENDBRANCH   1  15
BRANCH   8  16
ATOM     16  C   UNL     1       0.370  10.767  19.129  0.00  0.00    +0.000 C 
BRANCH  16  17
ATOM     17  C   UNL     1      -1.039  10.707  18.572  0.00  0.00    +0.000 A 
ATOM     18  C   UNL     1      -2.041  11.562  19.054  0.00  0.00    +0.000 A 
ATOM     19  C   UNL     1      -3.310  11.585  18.468  0.00  0.00    +0.000 A 
ATOM     20  C   UNL     1      -3.595  10.750  17.392  0.00  0.00    +0.000 A 
ATOM     21  C   UNL     1      -2.620   9.871  16.921  0.00  0.00    +0.000 A 
ATOM     22  C   UNL     1      -1.355   9.840  17.513  0.00  0.00    +0.000 A 
ENDBRANCH  16  17
ENDBRANCH   8  16
TORSDOF 3
ENDMDL
MODEL 4
REMARK VINA RESULT:      -7.6      0.148      1.062
REMARK  Name = 
REMARK  5 active torsions:
REMARK  status: ('A' for Active; 'I' for Inactive)
REMARK    1  A    between atoms: C_1  and  O_2
REMARK    2  A    between atoms: O_2  and  C_3
REMARK    3  A    between atoms: C_8  and  C_9
REMARK    4  A    between atoms: C_10  and  C_11
REMARK    5  A    between atoms: C_11  and  C_12
REMARK                            x       y       z     vdW  Elec       q    Type
REMARK                         _______ _______ _______ _____ _____    ______ ____
ROOT
ATOM      1  C   UNL     1       5.987   3.473  12.421  0.00  0.00    +0.000 A 
ATOM      2  C   UNL     1       7.160   4.205  12.243  0.00  0.00    +0.000 A 
ATOM      3  C   UNL     1       7.652   5.006  13.279  0.00  0.00    +0.000 A 
ATOM      4  C   UNL     1       6.986   5.061  14.503  0.00  0.00    +0.000 A 
ATOM      5  N   UNL     1       7.480   5.844  15.547  0.00  0.00    +0.000 N 
ATOM      6  C   UNL     1       6.941   5.809  16.815  0.00  0.00    +0.000 A 
ATOM      7  C   UNL     1       7.696   6.615  17.844  0.00  0.00    +0.000 C 
ATOM      8  C   UNL     1       5.824   5.104  17.117  0.00  0.00    +0.000 A 
ATOM      9  C   UNL     1       5.122   4.398  15.985  0.00  0.00    +0.000 A 
ATOM     10  O   UNL     1       4.014   3.887  16.132  0.00  0.00    +0.000 OA
ATOM     11  C   UNL     1       5.802   4.340  14.668  0.00  0.00    +0.000 A 
ATOM     12  C   UNL     1       5.287   3.563  13.622  0.00  0.00    +0.000 A 
ATOM     13  H   UNL     1       8.374   6.302  15.416  0.00  0.00    +0.000 HD
ENDROOT
BRANCH   1  15
ATOM     14  C   UNL     1       6.019   1.360  11.375  0.00  0.00    +0.000 C 
ATOM     15  O   UNL     1       5.438   2.660  11.471  0.00  0.00    +0.000 OA
ENDBRANCH   1  15
BRANCH   8  16
ATOM     16  C   UNL     1       5.130   5.057  18.454  0.00  0.00    +0.000 C 
BRANCH  16  17
ATOM     17  C   UNL     1       4.049   6.097  18.674  0.00  0.00    +0.000 A 
ATOM     18  C   UNL     1       3.862   7.146  17.761  0.00  0.00    +0.000 A 
ATOM     19  C   UNL     1       2.798   8.042  17.903  0.00  0.00    +0.000 A 
ATOM     20  C   UNL     1       1.907   7.901  18.962  0.00  0.00    +0.000 A 
ATOM     21  C   UNL     1       2.096   6.884  19.896  0.00  0.00    +0.000 A 
ATOM     22  C   UNL     1       3.166   5.994  19.761  0.00  0.00    +0.000 A 
ENDBRANCH  16  17
ENDBRANCH   8  16
TORSDOF 3
ENDMDL
MODEL 5
REMARK VINA RESULT:      -7.6      4.340      8.374
REMARK  Name = 
REMARK  5 active torsions:
REMARK  status: ('A' for Active; 'I' for Inactive)
REMARK    1  A    between atoms: C_1  and  O_2
REMARK    2  A    between atoms: O_2  and  C_3
REMARK    3  A    between atoms: C_8  and  C_9
REMARK    4  A    between atoms: C_10  and  C_11
REMARK    5  A    between atoms: C_11  and  C_12
REMARK                            x       y       z     vdW  Elec       q    Type
REMARK                         _______ _______ _______ _____ _____    ______ ____
ROOT
ATOM      1  C   UNL     1       0.582  10.984  20.059  0.00  0.00    +0.000 A 
ATOM      2  C   UNL     1       0.199  10.411  21.271  0.00  0.00    +0.000 A 
ATOM      3  C   UNL     1       0.486   9.068  21.535  0.00  0.00    +0.000 A 
ATOM      4  C   UNL     1       1.176   8.299  20.598  0.00  0.00    +0.000 A 
ATOM      5  N   UNL     1       1.482   6.963  20.862  0.00  0.00    +0.000 N 
ATOM      6  C   UNL     1       2.290   6.213  20.034  0.00  0.00    +0.000 A 
ATOM      7  C   UNL     1       2.623   4.836  20.556  0.00  0.00    +0.000 C 
ATOM      8  C   UNL     1       2.753   6.676  18.849  0.00  0.00    +0.000 A 
ATOM      9  C   UNL     1       2.291   8.041  18.408  0.00  0.00    +0.000 A 
ATOM     10  O   UNL     1       2.515   8.463  17.275  0.00  0.00    +0.000 OA
ATOM     11  C   UNL     1       1.540   8.874  19.379  0.00  0.00    +0.000 A 
ATOM     12  C   UNL     1       1.225  10.208  19.097  0.00  0.00    +0.000 A 
ATOM     13  H   UNL     1       1.262   6.597  21.781  0.00  0.00    +0.000 HD
ENDROOT
BRANCH   1  15
ATOM     14  C   UNL     1      -0.733  12.911  20.403  0.00  0.00    +0.000 C 
ATOM     15  O   UNL     1       0.352  12.287  19.718  0.00  0.00    +0.000 OA
ENDBRANCH   1  15
BRANCH   8  16
ATOM     16  C   UNL     1       3.586   5.910  17.853  0.00  0.00    +0.000 C 
BRANCH  16  17
ATOM     17  C   UNL     1       5.088   6.062  17.990  0.00  0.00    +0.000 A 
ATOM     18  C   UNL     1       5.799   6.953  17.173  0.00  0.00    +0.000 A 
ATOM     19  C   UNL     1       7.165   7.176  17.370  0.00  0.00    +0.000 A 
ATOM     20  C   UNL     1       7.839   6.508  18.387  0.00  0.00    +0.000 A 
ATOM     21  C   UNL     1       7.155   5.595  19.188  0.00  0.00    +0.000 A 
ATOM     22  C   UNL     1       5.792   5.363  18.984  0.00  0.00    +0.000 A 
ENDBRANCH  16  17
ENDBRANCH   8  16
TORSDOF 3
ENDMDL
MODEL 6
REMARK VINA RESULT:      -7.5      4.607      6.858
REMARK  Name = 
REMARK  5 active torsions:
REMARK  status: ('A' for Active; 'I' for Inactive)
REMARK    1  A    between atoms: C_1  and  O_2
REMARK    2  A    between atoms: O_2  and  C_3
REMARK    3  A    between atoms: C_8  and  C_9
REMARK    4  A    between atoms: C_10  and  C_11
REMARK    5  A    between atoms: C_11  and  C_12
REMARK                            x       y       z     vdW  Elec       q    Type
REMARK                         _______ _______ _______ _____ _____    ______ ____
ROOT
ATOM      1  C   UNL     1       2.939   4.357  18.390  0.00  0.00    +0.000 A 
ATOM      2  C   UNL     1       2.687   4.029  19.721  0.00  0.00    +0.000 A 
ATOM      3  C   UNL     1       2.263   5.014  20.619  0.00  0.00    +0.000 A 
ATOM      4  C   UNL     1       2.068   6.325  20.185  0.00  0.00    +0.000 A 
ATOM      5  N   UNL     1       1.628   7.309  21.071  0.00  0.00    +0.000 N 
ATOM      6  C   UNL     1       1.278   8.575  20.654  0.00  0.00    +0.000 A 
ATOM      7  C   UNL     1       0.692   9.455  21.731  0.00  0.00    +0.000 C 
ATOM      8  C   UNL     1       1.442   8.997  19.377  0.00  0.00    +0.000 A 
ATOM      9  C   UNL     1       2.105   8.046  18.412  0.00  0.00    +0.000 A 
ATOM     10  O   UNL     1       2.453   8.406  17.290  0.00  0.00    +0.000 OA
ATOM     11  C   UNL     1       2.339   6.650  18.855  0.00  0.00    +0.000 A 
ATOM     12  C   UNL     1       2.796   5.675  17.960  0.00  0.00    +0.000 A 
ATOM     13  H   UNL     1       1.379   7.026  22.011  0.00  0.00    +0.000 HD
ENDROOT
BRANCH   1  15
ATOM     14  C   UNL     1       3.514   2.123  17.904  0.00  0.00    +0.000 C 
ATOM     15  O   UNL     1       3.347   3.462  17.442  0.00  0.00    +0.000 OA
ENDBRANCH   1  15
BRANCH   8  16
ATOM     16  C   UNL     1       1.149  10.376  18.846  0.00  0.00    +0.000 C 
BRANCH  16  17
ATOM     17  C   UNL     1      -0.304  10.666  18.524  0.00  0.00    +0.000 A 
ATOM     18  C   UNL     1      -1.010   9.877  17.604  0.00  0.00    +0.000 A 
ATOM     19  C   UNL     1      -2.377  10.072  17.387  0.00  0.00    +0.000 A 
ATOM     20  C   UNL     1      -3.057  11.064  18.087  0.00  0.00    +0.000 A 
ATOM     21  C   UNL     1      -2.365  11.878  18.982  0.00  0.00    +0.000 A 
ATOM     22  C   UNL     1      -0.996  11.690  19.191  0.00  0.00    +0.000 A 
ENDBRANCH  16  17
ENDBRANCH   8  16
TORSDOF 3
ENDMDL
MODEL 7
REMARK VINA RESULT:      -7.5      3.915      7.079
REMARK  Name = 
REMARK  5 active torsions:
REMARK  status: ('A' for Active; 'I' for Inactive)
REMARK    1  A    between atoms: C_1  and  O_2
REMARK    2  A    between atoms: O_2  and  C_3
REMARK    3  A    between atoms: C_8  and  C_9
REMARK    4  A    between atoms: C_10  and  C_11
REMARK    5  A    between atoms: C_11  and  C_12
REMARK                            x       y       z     vdW  Elec       q    Type
REMARK                         _______ _______ _______ _____ _____    ______ ____
ROOT
ATOM      1  C   UNL     1       3.661   5.696  17.862  0.00  0.00    +0.000 A 
ATOM      2  C   UNL     1       3.440   5.080  19.093  0.00  0.00    +0.000 A 
ATOM      3  C   UNL     1       2.732   5.751  20.096  0.00  0.00    +0.000 A 
ATOM      4  C   UNL     1       2.224   7.029  19.865  0.00  0.00    +0.000 A 
ATOM      5  N   UNL     1       1.502   7.697  20.854  0.00  0.00    +0.000 N 
ATOM      6  C   UNL     1       0.855   8.891  20.618  0.00  0.00    +0.000 A 
ATOM      7  C   UNL     1       0.010   9.389  21.765  0.00  0.00    +0.000 C 
ATOM      8  C   UNL     1       0.965   9.564  19.447  0.00  0.00    +0.000 A 
ATOM      9  C   UNL     1       1.897   8.998  18.406  0.00  0.00    +0.000 A 
ATOM     10  O   UNL     1       2.194   9.629  17.394  0.00  0.00    +0.000 OA
ATOM     11  C   UNL     1       2.465   7.646  18.636  0.00  0.00    +0.000 A 
ATOM     12  C   UNL     1       3.202   6.993  17.641  0.00  0.00    +0.000 A 
ATOM     13  H   UNL     1       1.290   7.195  21.708  0.00  0.00    +0.000 HD
ENDROOT
BRANCH   1  15
ATOM     14  C   UNL     1       5.747   5.297  16.839  0.00  0.00    +0.000 C 
ATOM     15  O   UNL     1       4.332   5.117  16.822  0.00  0.00    +0.000 OA
ENDBRANCH   1  15
BRANCH   8  16
ATOM     16  C   UNL     1       0.350  10.900  19.122  0.00  0.00    +0.000 C 
BRANCH  16  17
ATOM     17  C   UNL     1      -1.051  10.860  18.543  0.00  0.00    +0.000 A 
ATOM     18  C   UNL     1      -1.393   9.931  17.548  0.00  0.00    +0.000 A 
ATOM     19  C   UNL     1      -2.708   9.819  17.091  0.00  0.00    +0.000 A 
ATOM     20  C   UNL     1      -3.702  10.637  17.621  0.00  0.00    +0.000 A 
ATOM     21  C   UNL     1      -3.373  11.587  18.586  0.00  0.00    +0.000 A 
ATOM     22  C   UNL     1      -2.056  11.707  19.037  0.00  0.00    +0.000 A 
ENDBRANCH  16  17
ENDBRANCH   8  16
TORSDOF 3
ENDMDL
MODEL 8
REMARK VINA RESULT:      -7.4      4.721      6.821
REMARK  Name = 
REMARK  5 active torsions:
REMARK  status: ('A' for Active; 'I' for Inactive)
REMARK    1  A    between atoms: C_1  and  O_2
REMARK    2  A    between atoms: O_2  and  C_3
REMARK    3  A    between atoms: C_8  and  C_9
REMARK    4  A    between atoms: C_10  and  C_11
REMARK    5  A    between atoms: C_11  and  C_12
REMARK                            x       y       z     vdW  Elec       q    Type
REMARK                         _______ _______ _______ _____ _____    ______ ____
ROOT
ATOM      1  C   UNL     1       3.047   4.108  18.653  0.00  0.00    +0.000 A 
ATOM      2  C   UNL     1       2.721   3.804  19.974  0.00  0.00    +0.000 A 
ATOM      3  C   UNL     1       2.256   4.808  20.829  0.00  0.00    +0.000 A 
ATOM      4  C   UNL     1       2.093   6.112  20.363  0.00  0.00    +0.000 A 
ATOM      5  N   UNL     1       1.613   7.115  21.206  0.00  0.00    +0.000 N 
ATOM      6  C   UNL     1       1.294   8.375  20.748  0.00  0.00    +0.000 A 
ATOM      7  C   UNL     1       0.656   9.277  21.776  0.00  0.00    +0.000 C 
ATOM      8  C   UNL     1       1.531   8.772  19.475  0.00  0.00    +0.000 A 
ATOM      9  C   UNL     1       2.239   7.801  18.565  0.00  0.00    +0.000 A 
ATOM     10  O   UNL     1       2.650   8.139  17.457  0.00  0.00    +0.000 OA
ATOM     11  C   UNL     1       2.439   6.412  19.044  0.00  0.00    +0.000 A 
ATOM     12  C   UNL     1       2.938   5.418  18.193  0.00  0.00    +0.000 A 
ATOM     13  H   UNL     1       1.310   6.849  22.136  0.00  0.00    +0.000 HD
ENDROOT
BRANCH   1  15
ATOM     14  C   UNL     1       3.332   1.828  18.121  0.00  0.00    +0.000 C 
ATOM     15  O   UNL     1       3.501   3.193  17.744  0.00  0.00    +0.000 OA
ENDBRANCH   1  15
BRANCH   8  16
ATOM     16  C   UNL     1       1.276  10.144  18.905  0.00  0.00    +0.000 C 
BRANCH  16  17
ATOM     17  C   UNL     1      -0.166  10.460  18.560  0.00  0.00    +0.000 A 
ATOM     18  C   UNL     1      -0.830  11.539  19.162  0.00  0.00    +0.000 A 
ATOM     19  C   UNL     1      -2.122  11.900  18.768  0.00  0.00    +0.000 A 
ATOM     20  C   UNL     1      -2.768  11.183  17.766  0.00  0.00    +0.000 A 
ATOM     21  C   UNL     1      -2.135  10.088  17.180  0.00  0.00    +0.000 A 
ATOM     22  C   UNL     1      -0.848   9.721  17.581  0.00  0.00    +0.000 A 
ENDBRANCH  16  17
ENDBRANCH   8  16
TORSDOF 3
ENDMDL
MODEL 9
REMARK VINA RESULT:      -7.4      4.345      8.282
REMARK  Name = 
REMARK  5 active torsions:
REMARK  status: ('A' for Active; 'I' for Inactive)
REMARK    1  A    between atoms: C_1  and  O_2
REMARK    2  A    between atoms: O_2  and  C_3
REMARK    3  A    between atoms: C_8  and  C_9
REMARK    4  A    between atoms: C_10  and  C_11
REMARK    5  A    between atoms: C_11  and  C_12
REMARK                            x       y       z     vdW  Elec       q    Type
REMARK                         _______ _______ _______ _____ _____    ______ ____
ROOT
ATOM      1  C   UNL     1       0.470  11.024  20.202  0.00  0.00    +0.000 A 
ATOM      2  C   UNL     1       0.103  10.431  21.409  0.00  0.00    +0.000 A 
ATOM      3  C   UNL     1       0.404   9.086  21.650  0.00  0.00    +0.000 A 
ATOM      4  C   UNL     1       1.092   8.336  20.696  0.00  0.00    +0.000 A 
ATOM      5  N   UNL     1       1.411   6.999  20.937  0.00  0.00    +0.000 N 
ATOM      6  C   UNL     1       2.217   6.269  20.092  0.00  0.00    +0.000 A 
ATOM      7  C   UNL     1       2.566   4.887  20.590  0.00  0.00    +0.000 C 
ATOM      8  C   UNL     1       2.666   6.753  18.909  0.00  0.00    +0.000 A 
ATOM      9  C   UNL     1       2.188   8.120  18.492  0.00  0.00    +0.000 A 
ATOM     10  O   UNL     1       2.399   8.560  17.364  0.00  0.00    +0.000 OA
ATOM     11  C   UNL     1       1.440   8.932  19.483  0.00  0.00    +0.000 A 
ATOM     12  C   UNL     1       1.111  10.268  19.222  0.00  0.00    +0.000 A 
ATOM     13  H   UNL     1       1.202   6.619  21.853  0.00  0.00    +0.000 HD
ENDROOT
BRANCH   1  15
ATOM     14  C   UNL     1      -0.420  12.537  18.627  0.00  0.00    +0.000 C 
ATOM     15  O   UNL     1       0.227  12.330  19.882  0.00  0.00    +0.000 OA
ENDBRANCH   1  15
BRANCH   8  16
ATOM     16  C   UNL     1       3.495   6.008  17.895  0.00  0.00    +0.000 C 
BRANCH  16  17
ATOM     17  C   UNL     1       4.998   6.131  18.050  0.00  0.00    +0.000 A 
ATOM     18  C   UNL     1       5.683   5.402  19.034  0.00  0.00    +0.000 A 
ATOM     19  C   UNL     1       7.079   5.430  19.109  0.00  0.00    +0.000 A 
ATOM     20  C   UNL     1       7.809   6.190  18.201  0.00  0.00    +0.000 A 
ATOM     21  C   UNL     1       7.143   6.946  17.237  0.00  0.00    +0.000 A 
ATOM     22  C   UNL     1       5.747   6.927  17.168  0.00  0.00    +0.000 A 
ENDBRANCH  16  17
ENDBRANCH   8  16
TORSDOF 3
ENDMDL
