MODEL 1
REMARK VINA RESULT:      -8.5      0.000      0.000
REMARK  Name = 
REMARK  4 active torsions:
REMARK  status: ('A' for Active; 'I' for Inactive)
REMARK    1  A    between atoms: C_2  and  C_20
REMARK    2  A    between atoms: N_3  and  C_4
REMARK    3  A    between atoms: C_8  and  N_9
REMARK    4  A    between atoms: C_10  and  C_12
REMARK                            x       y       z     vdW  Elec       q    Type
REMARK                         _______ _______ _______ _____ _____    ______ ____
ROOT
ATOM      1  C   UNL     1       2.710   5.014  19.746  0.00  0.00    +0.000 A 
ATOM      2  C   UNL     1       2.763   3.825  20.475  0.00  0.00    +0.000 A 
ATOM      3  C   UNL     1       3.398   2.705  19.952  0.00  0.00    +0.000 A 
ATOM      4  C   UNL     1       3.975   2.761  18.687  0.00  0.00    +0.000 A 
ATOM      5  C   UNL     1       3.909   3.924  17.915  0.00  0.00    +0.000 A 
ATOM      6  C   UNL     1       3.277   5.055  18.458  0.00  0.00    +0.000 A 
ENDROOT
BRANCH   1   9
ATOM      7  O   UNL     1       2.557   7.700  18.537  0.00  0.00    +0.000 OA
ATOM      8  C   UNL     1       2.094   7.426  19.638  0.00  0.00    +0.000 C 
ATOM      9  N   UNL     1       2.091   6.181  20.249  0.00  0.00    +0.000 N 
ATOM     10  H   UNL     1       1.492   6.064  21.056  0.00  0.00    +0.000 HD
BRANCH   8  11
ATOM     11  C   UNL     1       1.395   8.506  20.381  0.00  0.00    +0.000 A 
ATOM     12  C   UNL     1       0.922   9.607  19.656  0.00  0.00    +0.000 A 
ATOM     13  C   UNL     1       0.277  10.654  20.314  0.00  0.00    +0.000 A 
ATOM     14  C   UNL     1       0.117  10.608  21.698  0.00  0.00    +0.000 A 
ATOM     15  C   UNL     1       0.602   9.520  22.427  0.00  0.00    +0.000 A 
ATOM     16  C   UNL     1       1.245   8.468  21.772  0.00  0.00    +0.000 A 
ENDBRANCH   8  11
ENDBRANCH   1   9
BRANCH   5  17
ATOM     17  N   UNL     1       4.468   4.004  16.611  0.00  0.00    +0.000 N 
ATOM     18  C   UNL     1       5.777   4.376  16.342  0.00  0.00    +0.000 C 
ATOM     19  O   UNL     1       6.647   4.609  17.175  0.00  0.00    +0.000 OA
ATOM     20  H   UNL     1       3.908   3.646  15.848  0.00  0.00    +0.000 HD
BRANCH  18  21
ATOM     21  C   UNL     1       6.198   4.447  14.921  0.00  0.00    +0.000 A 
ATOM     22  C   UNL     1       5.503   3.631  14.010  0.00  0.00    +0.000 A 
ATOM     23  C   UNL     1       5.903   3.547  12.677  0.00  0.00    +0.000 A 
ATOM     24  C   UNL     1       7.006   4.278  12.249  0.00  0.00    +0.000 A 
ATOM     25  C   UNL     1       7.689   5.090  13.154  0.00  0.00    +0.000 A 
ATOM     26  F   UNL     1       8.763   5.770  12.735  0.00  0.00    +0.000 F 
ATOM     27  C   UNL     1       7.300   5.186  14.489  0.00  0.00    +0.000 A 
ENDBRANCH  18  21
ENDBRANCH   5  17
TORSDOF 4
ENDMDL
MODEL 2
REMARK VINA RESULT:      -8.3      4.923      7.259
REMARK  Name = 
REMARK  4 active torsions:
REMARK  status: ('A' for Active; 'I' for Inactive)
REMARK    1  A    between atoms: C_2  and  C_20
REMARK    2  A    between atoms: N_3  and  C_4
REMARK    3  A    between atoms: C_8  and  N_9
REMARK    4  A    between atoms: C_10  and  C_12
REMARK                            x       y       z     vdW  Elec       q    Type
REMARK                         _______ _______ _______ _____ _____    ______ ____
ROOT
ATOM      1  C   UNL     1       6.983   6.714  16.633  0.00  0.00    +0.000 A 
ATOM      2  C   UNL     1       7.580   5.986  15.603  0.00  0.00    +0.000 A 
ATOM      3  C   UNL     1       7.040   4.773  15.192  0.00  0.00    +0.000 A 
ATOM      4  C   UNL     1       5.905   4.270  15.820  0.00  0.00    +0.000 A 
ATOM      5  C   UNL     1       5.302   4.955  16.879  0.00  0.00    +0.000 A 
ATOM      6  C   UNL     1       5.847   6.187  17.277  0.00  0.00    +0.000 A 
ENDROOT
BRANCH   1   9
ATOM      7  O   UNL     1       8.599   7.330  19.023  0.00  0.00    +0.000 OA
ATOM      8  C   UNL     1       8.212   8.180  18.230  0.00  0.00    +0.000 C 
ATOM      9  N   UNL     1       7.488   7.961  17.067  0.00  0.00    +0.000 N 
ATOM     10  H   UNL     1       7.423   8.729  16.411  0.00  0.00    +0.000 HD
BRANCH   8  11
ATOM     11  C   UNL     1       8.610   9.589  18.480  0.00  0.00    +0.000 A 
ATOM     12  C   UNL     1       8.241  10.557  17.537  0.00  0.00    +0.000 A 
ATOM     13  C   UNL     1       8.610  11.889  17.720  0.00  0.00    +0.000 A 
ATOM     14  C   UNL     1       9.359  12.253  18.838  0.00  0.00    +0.000 A 
ATOM     15  C   UNL     1       9.743  11.289  19.772  0.00  0.00    +0.000 A 
ATOM     16  C   UNL     1       9.374   9.954  19.595  0.00  0.00    +0.000 A 
ENDBRANCH   8  11
ENDBRANCH   1   9
BRANCH   5  17
ATOM     17  N   UNL     1       4.156   4.455  17.555  0.00  0.00    +0.000 N 
ATOM     18  C   UNL     1       4.201   3.691  18.711  0.00  0.00    +0.000 C 
ATOM     19  O   UNL     1       5.208   3.406  19.351  0.00  0.00    +0.000 OA
ATOM     20  H   UNL     1       3.255   4.788  17.237  0.00  0.00    +0.000 HD
BRANCH  18  21
ATOM     21  C   UNL     1       2.913   3.214  19.276  0.00  0.00    +0.000 A 
ATOM     22  C   UNL     1       1.860   3.002  18.367  0.00  0.00    +0.000 A 
ATOM     23  C   UNL     1       0.585   2.664  18.818  0.00  0.00    +0.000 A 
ATOM     24  C   UNL     1       0.356   2.540  20.185  0.00  0.00    +0.000 A 
ATOM     25  C   UNL     1       1.404   2.747  21.081  0.00  0.00    +0.000 A 
ATOM     26  F   UNL     1       1.164   2.647  22.395  0.00  0.00    +0.000 F 
ATOM     27  C   UNL     1       2.684   3.083  20.646  0.00  0.00    +0.000 A 
ENDBRANCH  18  21
ENDBRANCH   5  17
TORSDOF 4
ENDMDL
MODEL 3
REMARK VINA RESULT:      -8.3      0.953      1.667
REMARK  Name = 
REMARK  4 active torsions:
REMARK  status: ('A' for Active; 'I' for Inactive)
REMARK    1  A    between atoms: C_2  and  C_20
REMARK    2  A    between atoms: N_3  and  C_4
REMARK    3  A    between atoms: C_8  and  N_9
REMARK    4  A    between atoms: C_10  and  C_12
REMARK                            x       y       z     vdW  Elec       q    Type
REMARK                         _______ _______ _______ _____ _____    ______ ____
ROOT
ATOM      1  C   UNL     1       2.796   5.072  19.704  0.00  0.00    +0.000 A 
ATOM      2  C   UNL     1       2.872   3.943  20.520  0.00  0.00    +0.000 A 
ATOM      3  C   UNL     1       3.515   2.793  20.076  0.00  0.00    +0.000 A 
ATOM      4  C   UNL     1       4.076   2.759  18.803  0.00  0.00    +0.000 A 
ATOM      5  C   UNL     1       3.987   3.859  17.945  0.00  0.00    +0.000 A 
ATOM      6  C   UNL     1       3.348   5.020  18.409  0.00  0.00    +0.000 A 
ENDROOT
BRANCH   1   9
ATOM      7  O   UNL     1       2.666   7.680  18.332  0.00  0.00    +0.000 OA
ATOM      8  C   UNL     1       2.184   7.472  19.439  0.00  0.00    +0.000 C 
ATOM      9  N   UNL     1       2.169   6.267  20.124  0.00  0.00    +0.000 N 
ATOM     10  H   UNL     1       1.557   6.199  20.926  0.00  0.00    +0.000 HD
BRANCH   8  11
ATOM     11  C   UNL     1       1.472   8.595  20.103  0.00  0.00    +0.000 A 
ATOM     12  C   UNL     1       1.220   8.496  21.477  0.00  0.00    +0.000 A 
ATOM     13  C   UNL     1       0.537   9.516  22.138  0.00  0.00    +0.000 A 
ATOM     14  C   UNL     1       0.094  10.629  21.425  0.00  0.00    +0.000 A 
ATOM     15  C   UNL     1       0.329  10.724  20.052  0.00  0.00    +0.000 A 
ATOM     16  C   UNL     1       1.014   9.707  19.386  0.00  0.00    +0.000 A 
ENDBRANCH   8  11
ENDBRANCH   1   9
BRANCH   5  17
ATOM     17  N   UNL     1       4.529   3.846  16.632  0.00  0.00    +0.000 N 
ATOM     18  C   UNL     1       5.831   4.205  16.319  0.00  0.00    +0.000 C 
ATOM     19  O   UNL     1       6.710   4.506  17.121  0.00  0.00    +0.000 OA
ATOM     20  H   UNL     1       3.962   3.427  15.905  0.00  0.00    +0.000 HD
BRANCH  18  21
ATOM     21  C   UNL     1       6.234   4.173  14.891  0.00  0.00    +0.000 A 
ATOM     22  C   UNL     1       7.304   5.003  14.513  0.00  0.00    +0.000 A 
ATOM     23  C   UNL     1       7.678   5.123  13.175  0.00  0.00    +0.000 A 
ATOM     24  C   UNL     1       6.977   4.412  12.206  0.00  0.00    +0.000 A 
ATOM     25  C   UNL     1       5.920   3.586  12.586  0.00  0.00    +0.000 A 
ATOM     26  F   UNL     1       5.239   2.926  11.641  0.00  0.00    +0.000 F 
ATOM     27  C   UNL     1       5.537   3.454  13.919  0.00  0.00    +0.000 A 
ENDBRANCH  18  21
ENDBRANCH   5  17
TORSDOF 4
ENDMDL
MODEL 4
REMARK VINA RESULT:      -8.2      2.812      8.546
REMARK  Name = 
REMARK  4 active torsions:
REMARK  status: ('A' for Active; 'I' for Inactive)
REMARK    1  A    between atoms: C_2  and  C_20
REMARK    2  A    between atoms: N_3  and  C_4
REMARK    3  A    between atoms: C_8  and  N_9
REMARK    4  A    between atoms: C_10  and  C_12
REMARK                            x       y       z     vdW  Elec       q    Type
REMARK                         _______ _______ _______ _____ _____    ______ ____
ROOT
ATOM      1  C   UNL     1       3.909   3.661  17.389  0.00  0.00    +0.000 A 
ATOM      2  C   UNL     1       3.844   2.439  18.060  0.00  0.00    +0.000 A 
ATOM      3  C   UNL     1       3.161   2.332  19.265  0.00  0.00    +0.000 A 
ATOM      4  C   UNL     1       2.547   3.452  19.817  0.00  0.00    +0.000 A 
ATOM      5  C   UNL     1       2.622   4.700  19.190  0.00  0.00    +0.000 A 
ATOM      6  C   UNL     1       3.303   4.794  17.966  0.00  0.00    +0.000 A 
ENDROOT
BRANCH   1   9
ATOM      7  O   UNL     1       6.723   4.381  16.875  0.00  0.00    +0.000 OA
ATOM      8  C   UNL     1       5.900   4.189  15.988  0.00  0.00    +0.000 C 
ATOM      9  N   UNL     1       4.577   3.808  16.152  0.00  0.00    +0.000 N 
ATOM     10  H   UNL     1       4.083   3.487  15.330  0.00  0.00    +0.000 HD
BRANCH   8  11
ATOM     11  C   UNL     1       6.365   4.300  14.581  0.00  0.00    +0.000 A 
ATOM     12  C   UNL     1       5.752   3.489  13.617  0.00  0.00    +0.000 A 
ATOM     13  C   UNL     1       6.169   3.543  12.288  0.00  0.00    +0.000 A 
ATOM     14  C   UNL     1       7.207   4.398  11.922  0.00  0.00    +0.000 A 
ATOM     15  C   UNL     1       7.833   5.196  12.882  0.00  0.00    +0.000 A 
ATOM     16  C   UNL     1       7.417   5.147  14.214  0.00  0.00    +0.000 A 
ENDBRANCH   8  11
ENDBRANCH   1   9
BRANCH   5  17
ATOM     17  N   UNL     1       2.025   5.866  19.741  0.00  0.00    +0.000 N 
ATOM     18  C   UNL     1       2.280   7.157  19.304  0.00  0.00    +0.000 C 
ATOM     19  O   UNL     1       2.983   7.470  18.348  0.00  0.00    +0.000 OA
ATOM     20  H   UNL     1       1.276   5.727  20.407  0.00  0.00    +0.000 HD
BRANCH  18  21
ATOM     21  C   UNL     1       1.603   8.273  20.009  0.00  0.00    +0.000 A 
ATOM     22  C   UNL     1       1.261   9.399  19.238  0.00  0.00    +0.000 A 
ATOM     23  C   UNL     1       0.726  10.538  19.837  0.00  0.00    +0.000 A 
ATOM     24  C   UNL     1       0.532  10.558  21.214  0.00  0.00    +0.000 A 
ATOM     25  C   UNL     1       0.867   9.438  21.973  0.00  0.00    +0.000 A 
ATOM     26  F   UNL     1       0.697   9.478  23.301  0.00  0.00    +0.000 F 
ATOM     27  C   UNL     1       1.401   8.290  21.390  0.00  0.00    +0.000 A 
ENDBRANCH  18  21
ENDBRANCH   5  17
TORSDOF 4
ENDMDL
MODEL 5
REMARK VINA RESULT:      -8.2      4.381      6.946
REMARK  Name = 
REMARK  4 active torsions:
REMARK  status: ('A' for Active; 'I' for Inactive)
REMARK    1  A    between atoms: C_2  and  C_20
REMARK    2  A    between atoms: N_3  and  C_4
REMARK    3  A    between atoms: C_8  and  N_9
REMARK    4  A    between atoms: C_10  and  C_12
REMARK                            x       y       z     vdW  Elec       q    Type
REMARK                         _______ _______ _______ _____ _____    ______ ____
ROOT
ATOM      1  C   UNL     1      -0.594  11.356  18.735  0.00  0.00    +0.000 A 
ATOM      2  C   UNL     1       0.232  12.475  18.854  0.00  0.00    +0.000 A 
ATOM      3  C   UNL     1       1.594  12.375  18.595  0.00  0.00    +0.000 A 
ATOM      4  C   UNL     1       2.144  11.151  18.228  0.00  0.00    +0.000 A 
ATOM      5  C   UNL     1       1.352  10.003  18.134  0.00  0.00    +0.000 A 
ATOM      6  C   UNL     1      -0.026  10.117  18.384  0.00  0.00    +0.000 A 
ENDROOT
BRANCH   1   9
ATOM      7  O   UNL     1      -2.802  11.436  16.780  0.00  0.00    +0.000 OA
ATOM      8  C   UNL     1      -2.969  11.493  17.993  0.00  0.00    +0.000 C 
ATOM      9  N   UNL     1      -1.987  11.419  18.970  0.00  0.00    +0.000 N 
ATOM     10  H   UNL     1      -2.293  11.270  19.922  0.00  0.00    +0.000 HD
BRANCH   8  11
ATOM     11  C   UNL     1      -4.365  11.577  18.495  0.00  0.00    +0.000 A 
ATOM     12  C   UNL     1      -4.610  12.343  19.641  0.00  0.00    +0.000 A 
ATOM     13  C   UNL     1      -5.901  12.434  20.160  0.00  0.00    +0.000 A 
ATOM     14  C   UNL     1      -6.946  11.749  19.541  0.00  0.00    +0.000 A 
ATOM     15  C   UNL     1      -6.703  10.971  18.408  0.00  0.00    +0.000 A 
ATOM     16  C   UNL     1      -5.413  10.879  17.883  0.00  0.00    +0.000 A 
ENDBRANCH   8  11
ENDBRANCH   1   9
BRANCH   5  17
ATOM     17  N   UNL     1       1.888   8.734  17.784  0.00  0.00    +0.000 N 
ATOM     18  C   UNL     1       2.244   7.755  18.700  0.00  0.00    +0.000 C 
ATOM     19  O   UNL     1       2.079   7.808  19.914  0.00  0.00    +0.000 OA
ATOM     20  H   UNL     1       1.890   8.492  16.801  0.00  0.00    +0.000 HD
BRANCH  18  21
ATOM     21  C   UNL     1       2.826   6.495  18.174  0.00  0.00    +0.000 A 
ATOM     22  C   UNL     1       4.077   6.589  17.539  0.00  0.00    +0.000 A 
ATOM     23  C   UNL     1       4.647   5.479  16.916  0.00  0.00    +0.000 A 
ATOM     24  C   UNL     1       3.964   4.268  16.924  0.00  0.00    +0.000 A 
ATOM     25  C   UNL     1       2.726   4.178  17.560  0.00  0.00    +0.000 A 
ATOM     26  F   UNL     1       2.068   3.012  17.539  0.00  0.00    +0.000 F 
ATOM     27  C   UNL     1       2.144   5.278  18.188  0.00  0.00    +0.000 A 
ENDBRANCH  18  21
ENDBRANCH   5  17
TORSDOF 4
ENDMDL
MODEL 6
REMARK VINA RESULT:      -8.2      4.701      6.571
REMARK  Name = 
REMARK  4 active torsions:
REMARK  status: ('A' for Active; 'I' for Inactive)
REMARK    1  A    between atoms: C_2  and  C_20
REMARK    2  A    between atoms: N_3  and  C_4
REMARK    3  A    between atoms: C_8  and  N_9
REMARK    4  A    between atoms: C_10  and  C_12
REMARK                            x       y       z     vdW  Elec       q    Type
REMARK                         _______ _______ _______ _____ _____    ______ ____
ROOT
ATOM      1  C   UNL     1       5.470   4.949  17.307  0.00  0.00    +0.000 A 
ATOM      2  C   UNL     1       5.884   4.308  16.139  0.00  0.00    +0.000 A 
ATOM      3  C   UNL     1       6.844   4.889  15.318  0.00  0.00    +0.000 A 
ATOM      4  C   UNL     1       7.388   6.125  15.653  0.00  0.00    +0.000 A 
ATOM      5  C   UNL     1       6.970   6.812  16.797  0.00  0.00    +0.000 A 
ATOM      6  C   UNL     1       6.010   6.210  17.627  0.00  0.00    +0.000 A 
ENDROOT
BRANCH   1   9
ATOM      7  O   UNL     1       2.706   5.829  17.846  0.00  0.00    +0.000 OA
ATOM      8  C   UNL     1       3.237   4.880  18.410  0.00  0.00    +0.000 C 
ATOM      9  N   UNL     1       4.511   4.384  18.179  0.00  0.00    +0.000 N 
ATOM     10  H   UNL     1       4.731   3.476  18.566  0.00  0.00    +0.000 HD
BRANCH   8  11
ATOM     11  C   UNL     1       2.424   4.121  19.395  0.00  0.00    +0.000 A 
ATOM     12  C   UNL     1       2.816   4.152  20.739  0.00  0.00    +0.000 A 
ATOM     13  C   UNL     1       2.095   3.438  21.696  0.00  0.00    +0.000 A 
ATOM     14  C   UNL     1       0.990   2.682  21.308  0.00  0.00    +0.000 A 
ATOM     15  C   UNL     1       0.605   2.635  19.967  0.00  0.00    +0.000 A 
ATOM     16  C   UNL     1       1.322   3.349  19.006  0.00  0.00    +0.000 A 
ENDBRANCH   8  11
ENDBRANCH   1   9
BRANCH   5  17
ATOM     17  N   UNL     1       7.490   8.085  17.152  0.00  0.00    +0.000 N 
ATOM     18  C   UNL     1       8.261   8.329  18.279  0.00  0.00    +0.000 C 
ATOM     19  O   UNL     1       8.663   7.486  19.075  0.00  0.00    +0.000 OA
ATOM     20  H   UNL     1       7.394   8.827  16.471  0.00  0.00    +0.000 HD
BRANCH  18  21
ATOM     21  C   UNL     1       8.698   9.725  18.530  0.00  0.00    +0.000 A 
ATOM     22  C   UNL     1       8.269  10.700  17.612  0.00  0.00    +0.000 A 
ATOM     23  C   UNL     1       8.723  12.016  17.703  0.00  0.00    +0.000 A 
ATOM     24  C   UNL     1       9.613  12.361  18.715  0.00  0.00    +0.000 A 
ATOM     25  C   UNL     1      10.031  11.392  19.626  0.00  0.00    +0.000 A 
ATOM     26  F   UNL     1      10.906  11.732  20.581  0.00  0.00    +0.000 F 
ATOM     27  C   UNL     1       9.585  10.074  19.549  0.00  0.00    +0.000 A 
ENDBRANCH  18  21
ENDBRANCH   5  17
TORSDOF 4
ENDMDL
MODEL 7
REMARK VINA RESULT:      -8.2      1.286      1.698
REMARK  Name = 
REMARK  4 active torsions:
REMARK  status: ('A' for Active; 'I' for Inactive)
REMARK    1  A    between atoms: C_2  and  C_20
REMARK    2  A    between atoms: N_3  and  C_4
REMARK    3  A    between atoms: C_8  and  N_9
REMARK    4  A    between atoms: C_10  and  C_12
REMARK                            x       y       z     vdW  Elec       q    Type
REMARK                         _______ _______ _______ _____ _____    ______ ____
ROOT
ATOM      1  C   UNL     1       2.106   5.131  20.662  0.00  0.00    +0.000 A 
ATOM      2  C   UNL     1       2.089   3.999  21.478  0.00  0.00    +0.000 A 
ATOM      3  C   UNL     1       2.743   2.837  21.085  0.00  0.00    +0.000 A 
ATOM      4  C   UNL     1       3.409   2.793  19.864  0.00  0.00    +0.000 A 
ATOM      5  C   UNL     1       3.415   3.897  19.006  0.00  0.00    +0.000 A 
ATOM      6  C   UNL     1       2.764   5.071  19.418  0.00  0.00    +0.000 A 
ENDROOT
BRANCH   1   9
ATOM      7  O   UNL     1       2.335   7.801  19.429  0.00  0.00    +0.000 OA
ATOM      8  C   UNL     1       1.660   7.571  20.425  0.00  0.00    +0.000 C 
ATOM      9  N   UNL     1       1.472   6.338  21.033  0.00  0.00    +0.000 N 
ATOM     10  H   UNL     1       0.728   6.268  21.714  0.00  0.00    +0.000 HD
BRANCH   8  11
ATOM     11  C   UNL     1       0.896   8.700  21.017  0.00  0.00    +0.000 A 
ATOM     12  C   UNL     1       0.477   9.732  20.168  0.00  0.00    +0.000 A 
ATOM     13  C   UNL     1      -0.224  10.821  20.682  0.00  0.00    +0.000 A 
ATOM     14  C   UNL     1      -0.497  10.887  22.048  0.00  0.00    +0.000 A 
ATOM     15  C   UNL     1      -0.066   9.869  22.901  0.00  0.00    +0.000 A 
ATOM     16  C   UNL     1       0.634   8.775  22.390  0.00  0.00    +0.000 A 
ENDBRANCH   8  11
ENDBRANCH   1   9
BRANCH   5  17
ATOM     17  N   UNL     1       4.066   3.875  17.743  0.00  0.00    +0.000 N 
ATOM     18  C   UNL     1       5.270   4.508  17.472  0.00  0.00    +0.000 C 
ATOM     19  O   UNL     1       5.973   5.101  18.284  0.00  0.00    +0.000 OA
ATOM     20  H   UNL     1       3.685   3.253  17.041  0.00  0.00    +0.000 HD
BRANCH  18  21
ATOM     21  C   UNL     1       5.802   4.420  16.089  0.00  0.00    +0.000 A 
ATOM     22  C   UNL     1       7.103   4.910  15.875  0.00  0.00    +0.000 A 
ATOM     23  C   UNL     1       7.641   4.973  14.590  0.00  0.00    +0.000 A 
ATOM     24  C   UNL     1       6.875   4.547  13.510  0.00  0.00    +0.000 A 
ATOM     25  C   UNL     1       5.588   4.057  13.727  0.00  0.00    +0.000 A 
ATOM     26  F   UNL     1       4.853   3.672  12.676  0.00  0.00    +0.000 F 
ATOM     27  C   UNL     1       5.037   3.986  15.005  0.00  0.00    +0.000 A 
ENDBRANCH  18  21
ENDBRANCH   5  17
TORSDOF 4
ENDMDL
MODEL 8
REMARK VINA RESULT:      -8.1      2.591      8.502
REMARK  Name = 
REMARK  4 active torsions:
REMARK  status: ('A' for Active; 'I' for Inactive)
REMARK    1  A    between atoms: C_2  and  C_20
REMARK    2  A    between atoms: N_3  and  C_4
REMARK    3  A    between atoms: C_8  and  N_9
REMARK    4  A    between atoms: C_10  and  C_12
REMARK                            x       y       z     vdW  Elec       q    Type
REMARK                         _______ _______ _______ _____ _____    ______ ____
ROOT
ATOM      1  C   UNL     1       4.205   4.253  17.524  0.00  0.00    +0.000 A 
ATOM      2  C   UNL     1       4.391   3.252  18.478  0.00  0.00    +0.000 A 
ATOM      3  C   UNL     1       3.783   3.345  19.725  0.00  0.00    +0.000 A 
ATOM      4  C   UNL     1       2.994   4.449  20.033  0.00  0.00    +0.000 A 
ATOM      5  C   UNL     1       2.816   5.488  19.114  0.00  0.00    +0.000 A 
ATOM      6  C   UNL     1       3.423   5.377  17.852  0.00  0.00    +0.000 A 
ENDROOT
BRANCH   1   9
ATOM      7  O   UNL     1       6.784   5.348  16.601  0.00  0.00    +0.000 OA
ATOM      8  C   UNL     1       5.995   4.764  15.868  0.00  0.00    +0.000 C 
ATOM      9  N   UNL     1       4.789   4.188  16.239  0.00  0.00    +0.000 N 
ATOM     10  H   UNL     1       4.351   3.564  15.574  0.00  0.00    +0.000 HD
BRANCH   8  11
ATOM     11  C   UNL     1       6.383   4.577  14.446  0.00  0.00    +0.000 A 
ATOM     12  C   UNL     1       5.677   3.636  13.686  0.00  0.00    +0.000 A 
ATOM     13  C   UNL     1       6.019   3.413  12.354  0.00  0.00    +0.000 A 
ATOM     14  C   UNL     1       7.076   4.119  11.782  0.00  0.00    +0.000 A 
ATOM     15  C   UNL     1       7.794   5.046  12.540  0.00  0.00    +0.000 A 
ATOM     16  C   UNL     1       7.454   5.275  13.874  0.00  0.00    +0.000 A 
ENDBRANCH   8  11
ENDBRANCH   1   9
BRANCH   5  17
ATOM     17  N   UNL     1       2.036   6.638  19.408  0.00  0.00    +0.000 N 
ATOM     18  C   UNL     1       2.220   7.880  18.818  0.00  0.00    +0.000 C 
ATOM     19  O   UNL     1       3.013   8.142  17.920  0.00  0.00    +0.000 OA
ATOM     20  H   UNL     1       1.220   6.503  19.990  0.00  0.00    +0.000 HD
BRANCH  18  21
ATOM     21  C   UNL     1       1.344   8.993  19.261  0.00  0.00    +0.000 A 
ATOM     22  C   UNL     1       0.947   8.992  20.610  0.00  0.00    +0.000 A 
ATOM     23  C   UNL     1       0.036   9.933  21.088  0.00  0.00    +0.000 A 
ATOM     24  C   UNL     1      -0.488  10.879  20.213  0.00  0.00    +0.000 A 
ATOM     25  C   UNL     1      -0.088  10.879  18.877  0.00  0.00    +0.000 A 
ATOM     26  F   UNL     1      -0.618  11.781  18.041  0.00  0.00    +0.000 F 
ATOM     27  C   UNL     1       0.824   9.947  18.386  0.00  0.00    +0.000 A 
ENDBRANCH  18  21
ENDBRANCH   5  17
TORSDOF 4
ENDMDL
MODEL 9
REMARK VINA RESULT:      -8.1      5.498     10.423
REMARK  Name = 
REMARK  4 active torsions:
REMARK  status: ('A' for Active; 'I' for Inactive)
REMARK    1  A    between atoms: C_2  and  C_20
REMARK    2  A    between atoms: N_3  and  C_4
REMARK    3  A    between atoms: C_8  and  N_9
REMARK    4  A    between atoms: C_10  and  C_12
REMARK                            x       y       z     vdW  Elec       q    Type
REMARK                         _______ _______ _______ _____ _____    ______ ____
ROOT
ATOM      1  C   UNL     1       1.280   9.832  18.100  0.00  0.00    +0.000 A 
ATOM      2  C   UNL     1       2.028  10.985  18.340  0.00  0.00    +0.000 A 
ATOM      3  C   UNL     1       1.397  12.178  18.672  0.00  0.00    +0.000 A 
ATOM      4  C   UNL     1       0.008  12.230  18.753  0.00  0.00    +0.000 A 
ATOM      5  C   UNL     1      -0.773  11.103  18.483  0.00  0.00    +0.000 A 
ATOM      6  C   UNL     1      -0.125   9.899  18.163  0.00  0.00    +0.000 A 
ENDROOT
BRANCH   1   9
ATOM      7  O   UNL     1       2.071   7.632  19.899  0.00  0.00    +0.000 OA
ATOM      8  C   UNL     1       2.264   7.620  18.690  0.00  0.00    +0.000 C 
ATOM      9  N   UNL     1       1.884   8.594  17.779  0.00  0.00    +0.000 N 
ATOM     10  H   UNL     1       1.924   8.351  16.798  0.00  0.00    +0.000 HD
BRANCH   8  11
ATOM     11  C   UNL     1       2.906   6.414  18.106  0.00  0.00    +0.000 A 
ATOM     12  C   UNL     1       4.136   6.570  17.454  0.00  0.00    +0.000 A 
ATOM     13  C   UNL     1       4.765   5.469  16.874  0.00  0.00    +0.000 A 
ATOM     14  C   UNL     1       4.160   4.215  16.931  0.00  0.00    +0.000 A 
ATOM     15  C   UNL     1       2.926   4.058  17.565  0.00  0.00    +0.000 A 
ATOM     16  C   UNL     1       2.293   5.156  18.150  0.00  0.00    +0.000 A 
ENDBRANCH   8  11
ENDBRANCH   1   9
BRANCH   5  17
ATOM     17  N   UNL     1      -2.193  11.132  18.535  0.00  0.00    +0.000 N 
ATOM     18  C   UNL     1      -3.015  11.210  17.421  0.00  0.00    +0.000 C 
ATOM     19  O   UNL     1      -2.649  11.189  16.250  0.00  0.00    +0.000 OA
ATOM     20  H   UNL     1      -2.623  10.957  19.434  0.00  0.00    +0.000 HD
BRANCH  18  21
ATOM     21  C   UNL     1      -4.481  11.268  17.646  0.00  0.00    +0.000 A 
ATOM     22  C   UNL     1      -5.175  12.335  17.049  0.00  0.00    +0.000 A 
ATOM     23  C   UNL     1      -6.533  12.533  17.298  0.00  0.00    +0.000 A 
ATOM     24  C   UNL     1      -7.203  11.663  18.151  0.00  0.00    +0.000 A 
ATOM     25  C   UNL     1      -6.512  10.603  18.737  0.00  0.00    +0.000 A 
ATOM     26  F   UNL     1      -7.164   9.786  19.574  0.00  0.00    +0.000 F 
ATOM     27  C   UNL     1      -5.156  10.390  18.496  0.00  0.00    +0.000 A 
ENDBRANCH  18  21
ENDBRANCH   5  17
TORSDOF 4
ENDMDL
