MODEL 1
REMARK VINA RESULT:      -7.6      0.000      0.000
REMARK  Name = 
REMARK  5 active torsions:
REMARK  status: ('A' for Active; 'I' for Inactive)
REMARK    1  A    between atoms: C_1  and  O_2
REMARK    2  A    between atoms: O_2  and  C_3
REMARK    3  A    between atoms: C_5  and  C_6
REMARK    4  A    between atoms: C_18  and  O_19
REMARK    5  A    between atoms: O_19  and  C_20
REMARK                            x       y       z     vdW  Elec       q    Type
REMARK                         _______ _______ _______ _____ _____    ______ ____
ROOT
ATOM      1  C   UNL     1       2.855   7.346  17.750  0.00  0.00    +0.000 C 
ATOM      2  C   UNL     1       2.308   8.101  18.712  0.00  0.00    +0.000 C 
ATOM      3  O   UNL     1       2.141   7.684  20.028  0.00  0.00    +0.000 OA
ATOM      4  C   UNL     1       1.280   8.585  20.596  0.00  0.00    +0.000 A 
ATOM      5  C   UNL     1       0.736   8.463  21.856  0.00  0.00    +0.000 A 
ATOM      6  C   UNL     1      -0.230   9.398  22.230  0.00  0.00    +0.000 A 
ATOM      7  C   UNL     1      -0.613  10.434  21.352  0.00  0.00    +0.000 A 
ATOM      8  C   UNL     1      -0.027  10.564  20.089  0.00  0.00    +0.000 A 
ATOM      9  C   UNL     1       0.919   9.622  19.737  0.00  0.00    +0.000 A 
ATOM     10  C   UNL     1       1.625   9.404  18.474  0.00  0.00    +0.000 C 
ATOM     11  O   UNL     1       1.596  10.084  17.474  0.00  0.00    +0.000 OA
ENDROOT
BRANCH   1  14
ATOM     12  C   UNL     1       4.937   4.356  18.661  0.00  0.00    +0.000 A 
ATOM     13  C   UNL     1       4.519   5.672  18.458  0.00  0.00    +0.000 A 
ATOM     14  C   UNL     1       3.216   5.955  18.030  0.00  0.00    +0.000 A 
ATOM     15  C   UNL     1       2.329   4.903  17.805  0.00  0.00    +0.000 A 
ATOM     16  C   UNL     1       2.731   3.580  18.023  0.00  0.00    +0.000 A 
ATOM     17  C   UNL     1       4.038   3.310  18.442  0.00  0.00    +0.000 A 
BRANCH  12  19
ATOM     18  C   UNL     1       6.955   5.424  19.341  0.00  0.00    +0.000 C 
ATOM     19  O   UNL     1       6.237   4.226  19.069  0.00  0.00    +0.000 OA
ENDBRANCH  12  19
BRANCH  16  20
ATOM     20  O   UNL     1       1.762   2.640  17.787  0.00  0.00    +0.000 OA
ATOM     21  C   UNL     1       0.871   2.351  18.858  0.00  0.00    +0.000 C 
ENDBRANCH  16  20
ENDBRANCH   1  14
TORSDOF 3
ENDMDL
MODEL 2
REMARK VINA RESULT:      -7.5      0.143      2.805
REMARK  Name = 
REMARK  5 active torsions:
REMARK  status: ('A' for Active; 'I' for Inactive)
REMARK    1  A    between atoms: C_1  and  O_2
REMARK    2  A    between atoms: O_2  and  C_3
REMARK    3  A    between atoms: C_5  and  C_6
REMARK    4  A    between atoms: C_18  and  O_19
REMARK    5  A    between atoms: O_19  and  C_20
REMARK                            x       y       z     vdW  Elec       q    Type
REMARK                         _______ _______ _______ _____ _____    ______ ____
ROOT
ATOM      1  C   UNL     1       2.790   7.406  17.722  0.00  0.00    +0.000 C 
ATOM      2  C   UNL     1       2.259   8.144  18.706  0.00  0.00    +0.000 C 
ATOM      3  O   UNL     1       2.159   7.724  20.028  0.00  0.00    +0.000 OA
ATOM      4  C   UNL     1       1.294   8.598  20.630  0.00  0.00    +0.000 A 
ATOM      5  C   UNL     1       0.806   8.461  21.912  0.00  0.00    +0.000 A 
ATOM      6  C   UNL     1      -0.173   9.364  22.325  0.00  0.00    +0.000 A 
ATOM      7  C   UNL     1      -0.625  10.387  21.464  0.00  0.00    +0.000 A 
ATOM      8  C   UNL     1      -0.095  10.533  20.178  0.00  0.00    +0.000 A 
ATOM      9  C   UNL     1       0.865   9.621  19.787  0.00  0.00    +0.000 A 
ATOM     10  C   UNL     1       1.525   9.424  18.496  0.00  0.00    +0.000 C 
ATOM     11  O   UNL     1       1.433  10.102  17.498  0.00  0.00    +0.000 OA
ENDROOT
BRANCH   1  14
ATOM     12  C   UNL     1       2.602   3.675  18.109  0.00  0.00    +0.000 A 
ATOM     13  C   UNL     1       2.280   4.996  17.794  0.00  0.00    +0.000 A 
ATOM     14  C   UNL     1       3.207   6.028  17.988  0.00  0.00    +0.000 A 
ATOM     15  C   UNL     1       4.466   5.725  18.505  0.00  0.00    +0.000 A 
ATOM     16  C   UNL     1       4.807   4.402  18.807  0.00  0.00    +0.000 A 
ATOM     17  C   UNL     1       3.869   3.381  18.617  0.00  0.00    +0.000 A 
BRANCH  12  19
ATOM     18  C   UNL     1       0.787   2.408  18.988  0.00  0.00    +0.000 C 
ATOM     19  O   UNL     1       1.599   2.772  17.878  0.00  0.00    +0.000 OA
ENDBRANCH  12  19
BRANCH  16  20
ATOM     20  O   UNL     1       6.079   4.232  19.287  0.00  0.00    +0.000 OA
ATOM     21  C   UNL     1       6.907   5.388  19.340  0.00  0.00    +0.000 C 
ENDBRANCH  16  20
ENDBRANCH   1  14
TORSDOF 3
ENDMDL
MODEL 3
REMARK VINA RESULT:      -7.3      2.723      3.942
REMARK  Name = 
REMARK  5 active torsions:
REMARK  status: ('A' for Active; 'I' for Inactive)
REMARK    1  A    between atoms: C_1  and  O_2
REMARK    2  A    between atoms: O_2  and  C_3
REMARK    3  A    between atoms: C_5  and  C_6
REMARK    4  A    between atoms: C_18  and  O_19
REMARK    5  A    between atoms: O_19  and  C_20
REMARK                            x       y       z     vdW  Elec       q    Type
REMARK                         _______ _______ _______ _____ _____    ______ ____
ROOT
ATOM      1  C   UNL     1       4.271   4.628  18.656  0.00  0.00    +0.000 C 
ATOM      2  C   UNL     1       3.329   5.558  18.867  0.00  0.00    +0.000 C 
ATOM      3  O   UNL     1       3.099   6.638  18.022  0.00  0.00    +0.000 OA
ATOM      4  C   UNL     1       2.307   7.501  18.732  0.00  0.00    +0.000 A 
ATOM      5  C   UNL     1       1.958   8.767  18.316  0.00  0.00    +0.000 A 
ATOM      6  C   UNL     1       1.258   9.568  19.218  0.00  0.00    +0.000 A 
ATOM      7  C   UNL     1       0.910   9.084  20.498  0.00  0.00    +0.000 A 
ATOM      8  C   UNL     1       1.243   7.785  20.892  0.00  0.00    +0.000 A 
ATOM      9  C   UNL     1       1.944   7.014  19.986  0.00  0.00    +0.000 A 
ATOM     10  C   UNL     1       2.535   5.683  20.122  0.00  0.00    +0.000 C 
ATOM     11  O   UNL     1       2.448   4.917  21.055  0.00  0.00    +0.000 OA
ENDROOT
BRANCH   1  14
ATOM     12  C   UNL     1       6.997   6.053  16.502  0.00  0.00    +0.000 A 
ATOM     13  C   UNL     1       6.139   5.820  17.577  0.00  0.00    +0.000 A 
ATOM     14  C   UNL     1       5.205   4.776  17.538  0.00  0.00    +0.000 A 
ATOM     15  C   UNL     1       5.137   3.964  16.407  0.00  0.00    +0.000 A 
ATOM     16  C   UNL     1       6.004   4.177  15.330  0.00  0.00    +0.000 A 
ATOM     17  C   UNL     1       6.927   5.228  15.377  0.00  0.00    +0.000 A 
BRANCH  12  19
ATOM     18  C   UNL     1       7.869   7.731  17.950  0.00  0.00    +0.000 C 
ATOM     19  O   UNL     1       7.851   7.110  16.671  0.00  0.00    +0.000 OA
ENDBRANCH  12  19
BRANCH  16  20
ATOM     20  O   UNL     1       5.852   3.299  14.289  0.00  0.00    +0.000 OA
ATOM     21  C   UNL     1       6.298   3.734  13.009  0.00  0.00    +0.000 C 
ENDBRANCH  16  20
ENDBRANCH   1  14
TORSDOF 3
ENDMDL
MODEL 4
REMARK VINA RESULT:      -7.3      3.294      4.838
REMARK  Name = 
REMARK  5 active torsions:
REMARK  status: ('A' for Active; 'I' for Inactive)
REMARK    1  A    between atoms: C_1  and  O_2
REMARK    2  A    between atoms: O_2  and  C_3
REMARK    3  A    between atoms: C_5  and  C_6
REMARK    4  A    between atoms: C_18  and  O_19
REMARK    5  A    between atoms: O_19  and  C_20
REMARK                            x       y       z     vdW  Elec       q    Type
REMARK                         _______ _______ _______ _____ _____    ______ ____
ROOT
ATOM      1  C   UNL     1       4.321   3.389  17.084  0.00  0.00    +0.000 C 
ATOM      2  C   UNL     1       3.485   4.220  17.720  0.00  0.00    +0.000 C 
ATOM      3  O   UNL     1       3.420   5.589  17.486  0.00  0.00    +0.000 OA
ATOM      4  C   UNL     1       2.702   6.110  18.530  0.00  0.00    +0.000 A 
ATOM      5  C   UNL     1       2.521   7.456  18.763  0.00  0.00    +0.000 A 
ATOM      6  C   UNL     1       1.879   7.821  19.946  0.00  0.00    +0.000 A 
ATOM      7  C   UNL     1       1.420   6.842  20.853  0.00  0.00    +0.000 A 
ATOM      8  C   UNL     1       1.581   5.479  20.585  0.00  0.00    +0.000 A 
ATOM      9  C   UNL     1       2.228   5.142  19.413  0.00  0.00    +0.000 A 
ATOM     10  C   UNL     1       2.655   3.840  18.898  0.00  0.00    +0.000 C 
ATOM     11  O   UNL     1       2.437   2.744  19.363  0.00  0.00    +0.000 OA
ENDROOT
BRANCH   1  14
ATOM     12  C   UNL     1       7.050   5.573  15.710  0.00  0.00    +0.000 A 
ATOM     13  C   UNL     1       6.141   4.973  16.583  0.00  0.00    +0.000 A 
ATOM     14  C   UNL     1       5.316   3.926  16.153  0.00  0.00    +0.000 A 
ATOM     15  C   UNL     1       5.407   3.483  14.834  0.00  0.00    +0.000 A 
ATOM     16  C   UNL     1       6.327   4.065  13.954  0.00  0.00    +0.000 A 
ATOM     17  C   UNL     1       7.139   5.116  14.393  0.00  0.00    +0.000 A 
BRANCH  12  19
ATOM     18  C   UNL     1       7.356   7.090  17.520  0.00  0.00    +0.000 C 
ATOM     19  O   UNL     1       7.784   6.589  16.260  0.00  0.00    +0.000 OA
ENDBRANCH  12  19
BRANCH  16  20
ATOM     20  O   UNL     1       6.334   3.527  12.695  0.00  0.00    +0.000 OA
ATOM     21  C   UNL     1       5.069   3.292  12.087  0.00  0.00    +0.000 C 
ENDBRANCH  16  20
ENDBRANCH   1  14
TORSDOF 3
ENDMDL
MODEL 5
REMARK VINA RESULT:      -7.2      1.731      6.792
REMARK  Name = 
REMARK  5 active torsions:
REMARK  status: ('A' for Active; 'I' for Inactive)
REMARK    1  A    between atoms: C_1  and  O_2
REMARK    2  A    between atoms: O_2  and  C_3
REMARK    3  A    between atoms: C_5  and  C_6
REMARK    4  A    between atoms: C_18  and  O_19
REMARK    5  A    between atoms: O_19  and  C_20
REMARK                            x       y       z     vdW  Elec       q    Type
REMARK                         _______ _______ _______ _____ _____    ______ ____
ROOT
ATOM      1  C   UNL     1       2.910   7.913  18.110  0.00  0.00    +0.000 C 
ATOM      2  C   UNL     1       2.850   6.604  17.832  0.00  0.00    +0.000 C 
ATOM      3  O   UNL     1       1.742   5.803  18.090  0.00  0.00    +0.000 OA
ATOM      4  C   UNL     1       2.182   4.512  17.970  0.00  0.00    +0.000 A 
ATOM      5  C   UNL     1       1.435   3.397  18.282  0.00  0.00    +0.000 A 
ATOM      6  C   UNL     1       2.079   2.160  18.234  0.00  0.00    +0.000 A 
ATOM      7  C   UNL     1       3.436   2.064  17.859  0.00  0.00    +0.000 A 
ATOM      8  C   UNL     1       4.171   3.202  17.512  0.00  0.00    +0.000 A 
ATOM      9  C   UNL     1       3.516   4.416  17.578  0.00  0.00    +0.000 A 
ATOM     10  C   UNL     1       4.013   5.780  17.397  0.00  0.00    +0.000 C 
ATOM     11  O   UNL     1       5.117   6.134  17.049  0.00  0.00    +0.000 OA
ENDROOT
BRANCH   1  14
ATOM     12  C   UNL     1      -0.091  10.077  18.750  0.00  0.00    +0.000 A 
ATOM     13  C   UNL     1       0.928   9.376  18.103  0.00  0.00    +0.000 A 
ATOM     14  C   UNL     1       1.807   8.559  18.824  0.00  0.00    +0.000 A 
ATOM     15  C   UNL     1       1.659   8.450  20.207  0.00  0.00    +0.000 A 
ATOM     16  C   UNL     1       0.631   9.134  20.864  0.00  0.00    +0.000 A 
ATOM     17  C   UNL     1      -0.236   9.955  20.133  0.00  0.00    +0.000 A 
BRANCH  12  19
ATOM     18  C   UNL     1      -1.961  10.200  17.280  0.00  0.00    +0.000 C 
ATOM     19  O   UNL     1      -0.869  10.844  17.925  0.00  0.00    +0.000 OA
ENDBRANCH  12  19
BRANCH  16  20
ATOM     20  O   UNL     1       0.578   8.928  22.217  0.00  0.00    +0.000 OA
ATOM     21  C   UNL     1      -0.343   9.722  22.955  0.00  0.00    +0.000 C 
ENDBRANCH  16  20
ENDBRANCH   1  14
TORSDOF 3
ENDMDL
MODEL 6
REMARK VINA RESULT:      -7.2      1.705      6.547
REMARK  Name = 
REMARK  5 active torsions:
REMARK  status: ('A' for Active; 'I' for Inactive)
REMARK    1  A    between atoms: C_1  and  O_2
REMARK    2  A    between atoms: O_2  and  C_3
REMARK    3  A    between atoms: C_5  and  C_6
REMARK    4  A    between atoms: C_18  and  O_19
REMARK    5  A    between atoms: O_19  and  C_20
REMARK                            x       y       z     vdW  Elec       q    Type
REMARK                         _______ _______ _______ _____ _____    ______ ____
ROOT
ATOM      1  C   UNL     1       3.017   7.807  17.992  0.00  0.00    +0.000 C 
ATOM      2  C   UNL     1       2.883   6.492  17.780  0.00  0.00    +0.000 C 
ATOM      3  O   UNL     1       1.741   5.764  18.099  0.00  0.00    +0.000 OA
ATOM      4  C   UNL     1       2.110   4.447  18.034  0.00  0.00    +0.000 A 
ATOM      5  C   UNL     1       1.313   3.390  18.415  0.00  0.00    +0.000 A 
ATOM      6  C   UNL     1       1.890   2.120  18.415  0.00  0.00    +0.000 A 
ATOM      7  C   UNL     1       3.232   1.934  18.019  0.00  0.00    +0.000 A 
ATOM      8  C   UNL     1       4.017   3.013  17.602  0.00  0.00    +0.000 A 
ATOM      9  C   UNL     1       3.428   4.262  17.621  0.00  0.00    +0.000 A 
ATOM     10  C   UNL     1       3.992   5.588  17.364  0.00  0.00    +0.000 C 
ATOM     11  O   UNL     1       5.104   5.865  16.976  0.00  0.00    +0.000 OA
ENDROOT
BRANCH   1  14
ATOM     12  C   UNL     1       0.786   8.975  20.779  0.00  0.00    +0.000 A 
ATOM     13  C   UNL     1       1.822   8.358  20.076  0.00  0.00    +0.000 A 
ATOM     14  C   UNL     1       1.966   8.545  18.696  0.00  0.00    +0.000 A 
ATOM     15  C   UNL     1       1.057   9.359  18.019  0.00  0.00    +0.000 A 
ATOM     16  C   UNL     1       0.025   9.997  18.716  0.00  0.00    +0.000 A 
ATOM     17  C   UNL     1      -0.113   9.795  20.094  0.00  0.00    +0.000 A 
BRANCH  12  19
ATOM     18  C   UNL     1      -0.040   9.539  22.940  0.00  0.00    +0.000 C 
ATOM     19  O   UNL     1       0.760   8.697  22.119  0.00  0.00    +0.000 OA
ENDBRANCH  12  19
BRANCH  16  20
ATOM     20  O   UNL     1      -0.787  10.785  17.943  0.00  0.00    +0.000 OA
ATOM     21  C   UNL     1      -2.073  10.267  17.623  0.00  0.00    +0.000 C 
ENDBRANCH  16  20
ENDBRANCH   1  14
TORSDOF 3
ENDMDL
MODEL 7
REMARK VINA RESULT:      -7.1      3.356      5.367
REMARK  Name = 
REMARK  5 active torsions:
REMARK  status: ('A' for Active; 'I' for Inactive)
REMARK    1  A    between atoms: C_1  and  O_2
REMARK    2  A    between atoms: O_2  and  C_3
REMARK    3  A    between atoms: C_5  and  C_6
REMARK    4  A    between atoms: C_18  and  O_19
REMARK    5  A    between atoms: O_19  and  C_20
REMARK                            x       y       z     vdW  Elec       q    Type
REMARK                         _______ _______ _______ _____ _____    ______ ____
ROOT
ATOM      1  C   UNL     1       4.181   3.512  16.793  0.00  0.00    +0.000 C 
ATOM      2  C   UNL     1       3.364   4.270  17.535  0.00  0.00    +0.000 C 
ATOM      3  O   UNL     1       3.353   5.661  17.509  0.00  0.00    +0.000 OA
ATOM      4  C   UNL     1       2.635   6.047  18.609  0.00  0.00    +0.000 A 
ATOM      5  C   UNL     1       2.498   7.349  19.038  0.00  0.00    +0.000 A 
ATOM      6  C   UNL     1       1.846   7.557  20.254  0.00  0.00    +0.000 A 
ATOM      7  C   UNL     1       1.334   6.472  20.997  0.00  0.00    +0.000 A 
ATOM      8  C   UNL     1       1.451   5.159  20.530  0.00  0.00    +0.000 A 
ATOM      9  C   UNL     1       2.108   4.977  19.329  0.00  0.00    +0.000 A 
ATOM     10  C   UNL     1       2.497   3.751  18.631  0.00  0.00    +0.000 C 
ATOM     11  O   UNL     1       2.231   2.607  18.923  0.00  0.00    +0.000 OA
ENDROOT
BRANCH   1  14
ATOM     12  C   UNL     1       6.405   4.214  13.849  0.00  0.00    +0.000 A 
ATOM     13  C   UNL     1       5.384   3.702  14.650  0.00  0.00    +0.000 A 
ATOM     14  C   UNL     1       5.214   4.144  15.968  0.00  0.00    +0.000 A 
ATOM     15  C   UNL     1       6.080   5.108  16.481  0.00  0.00    +0.000 A 
ATOM     16  C   UNL     1       7.097   5.643  15.682  0.00  0.00    +0.000 A 
ATOM     17  C   UNL     1       7.262   5.187  14.369  0.00  0.00    +0.000 A 
BRANCH  12  19
ATOM     18  C   UNL     1       5.265   3.117  12.068  0.00  0.00    +0.000 C 
ATOM     19  O   UNL     1       6.461   3.686  12.587  0.00  0.00    +0.000 OA
ENDBRANCH  12  19
BRANCH  16  20
ATOM     20  O   UNL     1       7.866   6.597  16.294  0.00  0.00    +0.000 OA
ATOM     21  C   UNL     1       7.337   7.191  17.474  0.00  0.00    +0.000 C 
ENDBRANCH  16  20
ENDBRANCH   1  14
TORSDOF 3
ENDMDL
MODEL 8
REMARK VINA RESULT:      -7.1      2.728      4.421
REMARK  Name = 
REMARK  5 active torsions:
REMARK  status: ('A' for Active; 'I' for Inactive)
REMARK    1  A    between atoms: C_1  and  O_2
REMARK    2  A    between atoms: O_2  and  C_3
REMARK    3  A    between atoms: C_5  and  C_6
REMARK    4  A    between atoms: C_18  and  O_19
REMARK    5  A    between atoms: O_19  and  C_20
REMARK                            x       y       z     vdW  Elec       q    Type
REMARK                         _______ _______ _______ _____ _____    ______ ____
ROOT
ATOM      1  C   UNL     1       4.029   4.969  18.552  0.00  0.00    +0.000 C 
ATOM      2  C   UNL     1       3.104   5.894  18.839  0.00  0.00    +0.000 C 
ATOM      3  O   UNL     1       2.872   7.029  18.070  0.00  0.00    +0.000 OA
ATOM      4  C   UNL     1       2.104   7.854  18.848  0.00  0.00    +0.000 A 
ATOM      5  C   UNL     1       1.763   9.148  18.520  0.00  0.00    +0.000 A 
ATOM      6  C   UNL     1       1.089   9.897  19.485  0.00  0.00    +0.000 A 
ATOM      7  C   UNL     1       0.758   9.336  20.737  0.00  0.00    +0.000 A 
ATOM      8  C   UNL     1       1.081   8.010  21.041  0.00  0.00    +0.000 A 
ATOM      9  C   UNL     1       1.756   7.291  20.075  0.00  0.00    +0.000 A 
ATOM     10  C   UNL     1       2.333   5.947  20.114  0.00  0.00    +0.000 C 
ATOM     11  O   UNL     1       2.253   5.124  20.997  0.00  0.00    +0.000 OA
ENDROOT
BRANCH   1  14
ATOM     12  C   UNL     1       5.657   4.527  15.197  0.00  0.00    +0.000 A 
ATOM     13  C   UNL     1       4.764   4.423  16.264  0.00  0.00    +0.000 A 
ATOM     14  C   UNL     1       4.946   5.179  17.429  0.00  0.00    +0.000 A 
ATOM     15  C   UNL     1       6.037   6.043  17.518  0.00  0.00    +0.000 A 
ATOM     16  C   UNL     1       6.929   6.169  16.448  0.00  0.00    +0.000 A 
ATOM     17  C   UNL     1       6.741   5.402  15.293  0.00  0.00    +0.000 A 
BRANCH  12  19
ATOM     18  C   UNL     1       6.306   3.696  13.061  0.00  0.00    +0.000 C 
ATOM     19  O   UNL     1       5.364   3.725  14.127  0.00  0.00    +0.000 OA
ENDBRANCH  12  19
BRANCH  16  20
ATOM     20  O   UNL     1       7.945   7.065  16.651  0.00  0.00    +0.000 OA
ATOM     21  C   UNL     1       7.733   8.066  17.639  0.00  0.00    +0.000 C 
ENDBRANCH  16  20
ENDBRANCH   1  14
TORSDOF 3
ENDMDL
MODEL 9
REMARK VINA RESULT:      -6.9      1.208      1.420
REMARK  Name = 
REMARK  5 active torsions:
REMARK  status: ('A' for Active; 'I' for Inactive)
REMARK    1  A    between atoms: C_1  and  O_2
REMARK    2  A    between atoms: O_2  and  C_3
REMARK    3  A    between atoms: C_5  and  C_6
REMARK    4  A    between atoms: C_18  and  O_19
REMARK    5  A    between atoms: O_19  and  C_20
REMARK                            x       y       z     vdW  Elec       q    Type
REMARK                         _______ _______ _______ _____ _____    ______ ____
ROOT
ATOM      1  C   UNL     1       1.906   8.389  17.915  0.00  0.00    +0.000 C 
ATOM      2  C   UNL     1       1.545   8.976  19.064  0.00  0.00    +0.000 C 
ATOM      3  O   UNL     1       1.824   8.458  20.324  0.00  0.00    +0.000 OA
ATOM      4  C   UNL     1       1.032   9.157  21.196  0.00  0.00    +0.000 A 
ATOM      5  C   UNL     1       0.893   8.866  22.535  0.00  0.00    +0.000 A 
ATOM      6  C   UNL     1      -0.059   9.590  23.253  0.00  0.00    +0.000 A 
ATOM      7  C   UNL     1      -0.831  10.592  22.627  0.00  0.00    +0.000 A 
ATOM      8  C   UNL     1      -0.654  10.899  21.274  0.00  0.00    +0.000 A 
ATOM      9  C   UNL     1       0.287  10.162  20.581  0.00  0.00    +0.000 A 
ATOM     10  C   UNL     1       0.631  10.148  19.159  0.00  0.00    +0.000 C 
ATOM     11  O   UNL     1       0.215  10.871  18.282  0.00  0.00    +0.000 OA
ENDROOT
BRANCH   1  14
ATOM     12  C   UNL     1       4.563   5.747  17.653  0.00  0.00    +0.000 A 
ATOM     13  C   UNL     1       3.923   6.985  17.720  0.00  0.00    +0.000 A 
ATOM     14  C   UNL     1       2.542   7.069  17.938  0.00  0.00    +0.000 A 
ATOM     15  C   UNL     1       1.802   5.897  18.087  0.00  0.00    +0.000 A 
ATOM     16  C   UNL     1       2.436   4.650  18.039  0.00  0.00    +0.000 A 
ATOM     17  C   UNL     1       3.815   4.579  17.812  0.00  0.00    +0.000 A 
BRANCH  12  19
ATOM     18  C   UNL     1       6.591   4.585  17.194  0.00  0.00    +0.000 C 
ATOM     19  O   UNL     1       5.911   5.813  17.426  0.00  0.00    +0.000 OA
ENDBRANCH  12  19
BRANCH  16  20
ATOM     20  O   UNL     1       1.604   3.577  18.221  0.00  0.00    +0.000 OA
ATOM     21  C   UNL     1       1.212   3.284  19.557  0.00  0.00    +0.000 C 
ENDBRANCH  16  20
ENDBRANCH   1  14
TORSDOF 3
ENDMDL
