MODEL 1
REMARK VINA RESULT:      -7.6      0.000      0.000
REMARK  Name = 
REMARK  12 active torsions:
REMARK  status: ('A' for Active; 'I' for Inactive)
REMARK    1  A    between atoms: C_1  and  O_2
REMARK    2  A    between atoms: O_2  and  C_3
REMARK    3  A    between atoms: C_9  and  N_10
REMARK    4  A    between atoms: C_13  and  O_14
REMARK    5  A    between atoms: O_14  and  C_15
REMARK    6  A    between atoms: C_17  and  O_18
REMARK    7  A    between atoms: C_19  and  C_20
REMARK    8  A    between atoms: C_20  and  O_21
REMARK    9  A    between atoms: O_21  and  S_22
REMARK   10  A    between atoms: S_22  and  N_23
REMARK   11  A    between atoms: C_30  and  O_31
REMARK   12  A    between atoms: O_31  and  C_32
REMARK                            x       y       z     vdW  Elec       q    Type
REMARK                         _______ _______ _______ _____ _____    ______ ____
ROOT
ATOM      1  N   UNL     1       0.006  11.655  20.367  0.00  0.00    +0.000 N 
ATOM      2  C   UNL     1       0.523  10.375  20.446  0.00  0.00    +0.000 A 
ATOM      3  C   UNL     1       0.864   9.716  19.274  0.00  0.00    +0.000 A 
ATOM      4  C   UNL     1       1.545   8.522  19.403  0.00  0.00    +0.000 A 
ATOM      5  N   UNL     1       1.758   7.925  20.584  0.00  0.00    +0.000 NA
ATOM      6  C   UNL     1       1.313   8.605  21.649  0.00  0.00    +0.000 A 
ATOM      7  N   UNL     1       0.751   9.824  21.646  0.00  0.00    +0.000 NA
ATOM      8  H   UNL     1      -0.784  11.776  19.746  0.00  0.00    +0.000 HD
ENDROOT
BRANCH   1  15
ATOM      9  C   UNL     1      -3.656  13.025  21.924  0.00  0.00    +0.000 A 
ATOM     10  C   UNL     1      -3.831  14.392  21.733  0.00  0.00    +0.000 A 
ATOM     11  C   UNL     1      -2.717  15.221  21.599  0.00  0.00    +0.000 A 
ATOM     12  C   UNL     1      -1.418  14.686  21.591  0.00  0.00    +0.000 A 
ATOM     13  C   UNL     1      -1.243  13.296  21.649  0.00  0.00    +0.000 A 
ATOM     14  C   UNL     1      -2.371  12.484  21.870  0.00  0.00    +0.000 A 
ATOM     15  C   UNL     1       0.120  12.623  21.470  0.00  0.00    +0.000 C 
ATOM     16  C   UNL     1       1.301  13.628  21.186  0.00  0.00    +0.000 C 
ATOM     17  C   UNL     1       1.074  14.980  21.876  0.00  0.00    +0.000 C 
ATOM     18  C   UNL     1      -0.245  15.615  21.445  0.00  0.00    +0.000 C 
BRANCH   9  20
ATOM     19  C   UNL     1      -5.930  12.801  21.418  0.00  0.00    +0.000 C 
ATOM     20  O   UNL     1      -4.791  12.282  22.102  0.00  0.00    +0.000 OA
ENDBRANCH   9  20
BRANCH  16  21
ATOM     21  O   UNL     1       1.481  13.818  19.763  0.00  0.00    +0.000 OA
ATOM     22  C   UNL     1       2.832  13.913  19.340  0.00  0.00    +0.000 C 
ENDBRANCH  16  21
ENDBRANCH   1  15
BRANCH   4  23
ATOM     23  O   UNL     1       2.064   7.945  18.250  0.00  0.00    +0.000 OA
BRANCH  23  24
ATOM     24  C   UNL     1       2.753   6.708  18.490  0.00  0.00    +0.000 C 
ATOM     25  C   UNL     1       1.897   5.494  18.103  0.00  0.00    +0.000 C 
ATOM     26  C   UNL     1       2.899   4.367  17.788  0.00  0.00    +0.000 C 
ATOM     27  C   UNL     1       4.288   5.032  17.664  0.00  0.00    +0.000 C 
ATOM     28  C   UNL     1       3.958   6.524  17.561  0.00  0.00    +0.000 C 
BRANCH  26  29
ATOM     29  O   UNL     1       2.804   3.298  18.713  0.00  0.00    +0.000 OA
ATOM     30  H   UNL     1       1.873   3.079  18.883  0.00  0.00    +0.000 HD
ENDBRANCH  26  29
BRANCH  27  31
ATOM     31  C   UNL     1       5.293   4.765  18.790  0.00  0.00    +0.000 C 
BRANCH  31  32
ATOM     32  O   UNL     1       6.081   5.923  19.016  0.00  0.00    +0.000 OA
BRANCH  32  33
ATOM     33  S   UNL     1       7.707   5.725  18.970  0.00  0.00    +0.000 S 
ATOM     34  O   UNL     1       7.982   4.545  18.190  0.00  0.00    +0.000 OA
ATOM     35  O   UNL     1       8.295   7.017  18.693  0.00  0.00    +0.000 OA
BRANCH  33  36
ATOM     36  N   UNL     1       8.055   5.359  20.559  0.00  0.00    +0.000 NA
ATOM     37  H   UNL     1       8.428   6.169  21.049  0.00  0.00    +0.000 HD
ATOM     38  H   UNL     1       8.630   4.522  20.631  0.00  0.00    +0.000 HD
ENDBRANCH  33  36
ENDBRANCH  32  33
ENDBRANCH  31  32
ENDBRANCH  27  31
ENDBRANCH  23  24
ENDBRANCH   4  23
TORSDOF 10
ENDMDL
MODEL 2
REMARK VINA RESULT:      -7.3      2.353      3.258
REMARK  Name = 
REMARK  12 active torsions:
REMARK  status: ('A' for Active; 'I' for Inactive)
REMARK    1  A    between atoms: C_1  and  O_2
REMARK    2  A    between atoms: O_2  and  C_3
REMARK    3  A    between atoms: C_9  and  N_10
REMARK    4  A    between atoms: C_13  and  O_14
REMARK    5  A    between atoms: O_14  and  C_15
REMARK    6  A    between atoms: C_17  and  O_18
REMARK    7  A    between atoms: C_19  and  C_20
REMARK    8  A    between atoms: C_20  and  O_21
REMARK    9  A    between atoms: O_21  and  S_22
REMARK   10  A    between atoms: S_22  and  N_23
REMARK   11  A    between atoms: C_30  and  O_31
REMARK   12  A    between atoms: O_31  and  C_32
REMARK                            x       y       z     vdW  Elec       q    Type
REMARK                         _______ _______ _______ _____ _____    ______ ____
ROOT
ATOM      1  N   UNL     1       0.199  10.724  20.317  0.00  0.00    +0.000 N 
ATOM      2  C   UNL     1       1.055   9.874  19.642  0.00  0.00    +0.000 A 
ATOM      3  C   UNL     1       1.258   8.595  20.138  0.00  0.00    +0.000 A 
ATOM      4  C   UNL     1       1.969   7.721  19.342  0.00  0.00    +0.000 A 
ATOM      5  N   UNL     1       2.573   8.093  18.204  0.00  0.00    +0.000 NA
ATOM      6  C   UNL     1       2.385   9.373  17.858  0.00  0.00    +0.000 A 
ATOM      7  N   UNL     1       1.615  10.272  18.491  0.00  0.00    +0.000 NA
ATOM      8  H   UNL     1       0.377  10.841  21.305  0.00  0.00    +0.000 HD
ENDROOT
BRANCH   1  15
ATOM      9  C   UNL     1      -1.296  13.701  22.890  0.00  0.00    +0.000 A 
ATOM     10  C   UNL     1      -2.683  13.784  22.850  0.00  0.00    +0.000 A 
ATOM     11  C   UNL     1      -3.370  13.366  21.709  0.00  0.00    +0.000 A 
ATOM     12  C   UNL     1      -2.682  12.804  20.620  0.00  0.00    +0.000 A 
ATOM     13  C   UNL     1      -1.298  12.596  20.710  0.00  0.00    +0.000 A 
ATOM     14  C   UNL     1      -0.613  13.101  21.832  0.00  0.00    +0.000 A 
ATOM     15  C   UNL     1      -0.503  11.833  19.648  0.00  0.00    +0.000 C 
ATOM     16  C   UNL     1      -1.382  11.279  18.462  0.00  0.00    +0.000 C 
ATOM     17  C   UNL     1      -2.584  12.188  18.173  0.00  0.00    +0.000 C 
ATOM     18  C   UNL     1      -3.460  12.369  19.410  0.00  0.00    +0.000 C 
BRANCH   9  20
ATOM     19  C   UNL     1      -1.525  15.014  24.814  0.00  0.00    +0.000 C 
ATOM     20  O   UNL     1      -0.687  14.178  24.019  0.00  0.00    +0.000 OA
ENDBRANCH   9  20
BRANCH  16  21
ATOM     21  O   UNL     1      -1.830   9.932  18.743  0.00  0.00    +0.000 OA
ATOM     22  C   UNL     1      -2.825   9.438  17.859  0.00  0.00    +0.000 C 
ENDBRANCH  16  21
ENDBRANCH   1  15
BRANCH   4  23
ATOM     23  O   UNL     1       2.019   6.387  19.728  0.00  0.00    +0.000 OA
BRANCH  23  24
ATOM     24  C   UNL     1       3.033   5.631  19.047  0.00  0.00    +0.000 C 
ATOM     25  C   UNL     1       3.583   4.497  19.924  0.00  0.00    +0.000 C 
ATOM     26  C   UNL     1       4.114   3.437  18.941  0.00  0.00    +0.000 C 
ATOM     27  C   UNL     1       3.559   3.808  17.547  0.00  0.00    +0.000 C 
ATOM     28  C   UNL     1       2.470   4.837  17.864  0.00  0.00    +0.000 C 
BRANCH  26  29
ATOM     29  O   UNL     1       5.520   3.287  19.028  0.00  0.00    +0.000 OA
ATOM     30  H   UNL     1       5.879   3.863  19.724  0.00  0.00    +0.000 HD
ENDBRANCH  26  29
BRANCH  27  31
ATOM     31  C   UNL     1       4.558   4.358  16.523  0.00  0.00    +0.000 C 
BRANCH  31  32
ATOM     32  O   UNL     1       5.508   5.186  17.174  0.00  0.00    +0.000 OA
BRANCH  32  33
ATOM     33  S   UNL     1       7.020   5.205  16.544  0.00  0.00    +0.000 S 
ATOM     34  O   UNL     1       6.998   4.425  15.332  0.00  0.00    +0.000 OA
ATOM     35  O   UNL     1       7.501   6.568  16.604  0.00  0.00    +0.000 OA
BRANCH  33  36
ATOM     36  N   UNL     1       7.878   4.333  17.677  0.00  0.00    +0.000 NA
ATOM     37  H   UNL     1       7.673   4.654  18.620  0.00  0.00    +0.000 HD
ATOM     38  H   UNL     1       8.869   4.300  17.449  0.00  0.00    +0.000 HD
ENDBRANCH  33  36
ENDBRANCH  32  33
ENDBRANCH  31  32
ENDBRANCH  27  31
ENDBRANCH  23  24
ENDBRANCH   4  23
TORSDOF 10
ENDMDL
MODEL 3
REMARK VINA RESULT:      -7.2      2.040      4.127
REMARK  Name = 
REMARK  12 active torsions:
REMARK  status: ('A' for Active; 'I' for Inactive)
REMARK    1  A    between atoms: C_1  and  O_2
REMARK    2  A    between atoms: O_2  and  C_3
REMARK    3  A    between atoms: C_9  and  N_10
REMARK    4  A    between atoms: C_13  and  O_14
REMARK    5  A    between atoms: O_14  and  C_15
REMARK    6  A    between atoms: C_17  and  O_18
REMARK    7  A    between atoms: C_19  and  C_20
REMARK    8  A    between atoms: C_20  and  O_21
REMARK    9  A    between atoms: O_21  and  S_22
REMARK   10  A    between atoms: S_22  and  N_23
REMARK   11  A    between atoms: C_30  and  O_31
REMARK   12  A    between atoms: O_31  and  C_32
REMARK                            x       y       z     vdW  Elec       q    Type
REMARK                         _______ _______ _______ _____ _____    ______ ____
ROOT
ATOM      1  N   UNL     1       0.851  10.827  20.864  0.00  0.00    +0.000 N 
ATOM      2  C   UNL     1       1.356   9.949  19.922  0.00  0.00    +0.000 A 
ATOM      3  C   UNL     1       1.597   8.634  20.293  0.00  0.00    +0.000 A 
ATOM      4  C   UNL     1       1.922   7.750  19.285  0.00  0.00    +0.000 A 
ATOM      5  N   UNL     1       2.144   8.132  18.019  0.00  0.00    +0.000 NA
ATOM      6  C   UNL     1       1.965   9.438  17.785  0.00  0.00    +0.000 A 
ATOM      7  N   UNL     1       1.534  10.360  18.659  0.00  0.00    +0.000 NA
ATOM      8  H   UNL     1       1.359  10.880  21.737  0.00  0.00    +0.000 HD
ENDROOT
BRANCH   1  15
ATOM      9  C   UNL     1       3.064  14.395  20.568  0.00  0.00    +0.000 A 
ATOM     10  C   UNL     1       2.665  15.342  21.506  0.00  0.00    +0.000 A 
ATOM     11  C   UNL     1       1.368  15.304  22.019  0.00  0.00    +0.000 A 
ATOM     12  C   UNL     1       0.475  14.285  21.647  0.00  0.00    +0.000 A 
ATOM     13  C   UNL     1       0.916  13.254  20.806  0.00  0.00    +0.000 A 
ATOM     14  C   UNL     1       2.197  13.355  20.232  0.00  0.00    +0.000 A 
ATOM     15  C   UNL     1       0.069  12.018  20.494  0.00  0.00    +0.000 C 
ATOM     16  C   UNL     1      -1.328  11.995  21.226  0.00  0.00    +0.000 C 
ATOM     17  C   UNL     1      -1.884  13.410  21.433  0.00  0.00    +0.000 C 
ATOM     18  C   UNL     1      -0.913  14.284  22.223  0.00  0.00    +0.000 C 
BRANCH   9  20
ATOM     19  C   UNL     1       4.379  15.093  18.762  0.00  0.00    +0.000 C 
ATOM     20  O   UNL     1       4.331  14.525  20.069  0.00  0.00    +0.000 OA
ENDBRANCH   9  20
BRANCH  16  21
ATOM     21  O   UNL     1      -1.229  11.306  22.494  0.00  0.00    +0.000 OA
ATOM     22  C   UNL     1      -2.311  11.537  23.384  0.00  0.00    +0.000 C 
ENDBRANCH  16  21
ENDBRANCH   1  15
BRANCH   4  23
ATOM     23  O   UNL     1       1.978   6.398  19.604  0.00  0.00    +0.000 OA
BRANCH  23  24
ATOM     24  C   UNL     1       3.070   5.707  18.976  0.00  0.00    +0.000 C 
ATOM     25  C   UNL     1       3.655   4.619  19.889  0.00  0.00    +0.000 C 
ATOM     26  C   UNL     1       4.299   3.590  18.940  0.00  0.00    +0.000 C 
ATOM     27  C   UNL     1       3.786   3.914  17.520  0.00  0.00    +0.000 C 
ATOM     28  C   UNL     1       2.617   4.870  17.776  0.00  0.00    +0.000 C 
BRANCH  26  29
ATOM     29  O   UNL     1       5.707   3.536  19.093  0.00  0.00    +0.000 OA
ATOM     30  H   UNL     1       5.948   2.921  19.805  0.00  0.00    +0.000 HD
ENDBRANCH  26  29
BRANCH  27  31
ATOM     31  C   UNL     1       4.792   4.523  16.536  0.00  0.00    +0.000 C 
BRANCH  31  32
ATOM     32  O   UNL     1       5.529   5.551  17.178  0.00  0.00    +0.000 OA
BRANCH  32  33
ATOM     33  S   UNL     1       7.108   5.691  16.762  0.00  0.00    +0.000 S 
ATOM     34  O   UNL     1       7.473   7.080  16.893  0.00  0.00    +0.000 OA
ATOM     35  O   UNL     1       7.827   4.616  17.410  0.00  0.00    +0.000 OA
BRANCH  33  36
ATOM     36  N   UNL     1       7.068   5.343  15.132  0.00  0.00    +0.000 NA
ATOM     37  H   UNL     1       6.898   6.182  14.582  0.00  0.00    +0.000 HD
ATOM     38  H   UNL     1       6.436   4.572  14.931  0.00  0.00    +0.000 HD
ENDBRANCH  33  36
ENDBRANCH  32  33
ENDBRANCH  31  32
ENDBRANCH  27  31
ENDBRANCH  23  24
ENDBRANCH   4  23
TORSDOF 10
ENDMDL
MODEL 4
REMARK VINA RESULT:      -7.1      1.027      1.164
REMARK  Name = 
REMARK  12 active torsions:
REMARK  status: ('A' for Active; 'I' for Inactive)
REMARK    1  A    between atoms: C_1  and  O_2
REMARK    2  A    between atoms: O_2  and  C_3
REMARK    3  A    between atoms: C_9  and  N_10
REMARK    4  A    between atoms: C_13  and  O_14
REMARK    5  A    between atoms: O_14  and  C_15
REMARK    6  A    between atoms: C_17  and  O_18
REMARK    7  A    between atoms: C_19  and  C_20
REMARK    8  A    between atoms: C_20  and  O_21
REMARK    9  A    between atoms: O_21  and  S_22
REMARK   10  A    between atoms: S_22  and  N_23
REMARK   11  A    between atoms: C_30  and  O_31
REMARK   12  A    between atoms: O_31  and  C_32
REMARK                            x       y       z     vdW  Elec       q    Type
REMARK                         _______ _______ _______ _____ _____    ______ ____
ROOT
ATOM      1  N   UNL     1       0.757  11.709  19.755  0.00  0.00    +0.000 N 
ATOM      2  C   UNL     1       1.006  10.357  19.904  0.00  0.00    +0.000 A 
ATOM      3  C   UNL     1       1.320   9.605  18.782  0.00  0.00    +0.000 A 
ATOM      4  C   UNL     1       1.741   8.309  18.995  0.00  0.00    +0.000 A 
ATOM      5  N   UNL     1       1.724   7.723  20.201  0.00  0.00    +0.000 NA
ATOM      6  C   UNL     1       1.324   8.512  21.206  0.00  0.00    +0.000 A 
ATOM      7  N   UNL     1       1.011   9.815  21.129  0.00  0.00    +0.000 NA
ATOM      8  H   UNL     1       0.067  11.958  19.059  0.00  0.00    +0.000 HD
ENDROOT
BRANCH   1  15
ATOM      9  C   UNL     1      -2.767  13.454  21.254  0.00  0.00    +0.000 A 
ATOM     10  C   UNL     1      -2.805  14.828  21.046  0.00  0.00    +0.000 A 
ATOM     11  C   UNL     1      -1.612  15.542  20.915  0.00  0.00    +0.000 A 
ATOM     12  C   UNL     1      -0.372  14.881  20.929  0.00  0.00    +0.000 A 
ATOM     13  C   UNL     1      -0.337  13.482  21.005  0.00  0.00    +0.000 A 
ATOM     14  C   UNL     1      -1.542  12.788  21.221  0.00  0.00    +0.000 A 
ATOM     15  C   UNL     1       0.955  12.675  20.848  0.00  0.00    +0.000 C 
ATOM     16  C   UNL     1       2.233  13.555  20.567  0.00  0.00    +0.000 C 
ATOM     17  C   UNL     1       2.133  14.931  21.240  0.00  0.00    +0.000 C 
ATOM     18  C   UNL     1       0.888  15.688  20.786  0.00  0.00    +0.000 C 
BRANCH   9  20
ATOM     19  C   UNL     1      -4.635  12.510  20.204  0.00  0.00    +0.000 C 
ATOM     20  O   UNL     1      -3.973  12.829  21.426  0.00  0.00    +0.000 OA
ENDBRANCH   9  20
BRANCH  16  21
ATOM     21  O   UNL     1       2.445  13.708  19.144  0.00  0.00    +0.000 OA
ATOM     22  C   UNL     1       3.660  14.350  18.789  0.00  0.00    +0.000 C 
ENDBRANCH  16  21
ENDBRANCH   1  15
BRANCH   4  23
ATOM     23  O   UNL     1       2.242   7.604  17.907  0.00  0.00    +0.000 OA
BRANCH  23  24
ATOM     24  C   UNL     1       2.844   6.350  18.266  0.00  0.00    +0.000 C 
ATOM     25  C   UNL     1       1.957   5.159  17.874  0.00  0.00    +0.000 C 
ATOM     26  C   UNL     1       2.919   3.969  17.700  0.00  0.00    +0.000 C 
ATOM     27  C   UNL     1       4.348   4.557  17.655  0.00  0.00    +0.000 C 
ATOM     28  C   UNL     1       4.106   6.055  17.449  0.00  0.00    +0.000 C 
BRANCH  26  29
ATOM     29  O   UNL     1       2.695   2.959  18.668  0.00  0.00    +0.000 OA
ATOM     30  H   UNL     1       2.866   2.082  18.289  0.00  0.00    +0.000 HD
ENDBRANCH  26  29
BRANCH  27  31
ATOM     31  C   UNL     1       5.245   4.304  18.872  0.00  0.00    +0.000 C 
BRANCH  31  32
ATOM     32  O   UNL     1       5.954   5.488  19.200  0.00  0.00    +0.000 OA
BRANCH  32  33
ATOM     33  S   UNL     1       7.589   5.399  19.161  0.00  0.00    +0.000 S 
ATOM     34  O   UNL     1       8.055   5.322  20.523  0.00  0.00    +0.000 OA
ATOM     35  O   UNL     1       7.951   4.438  18.142  0.00  0.00    +0.000 OA
BRANCH  33  36
ATOM     36  N   UNL     1       8.004   6.907  18.583  0.00  0.00    +0.000 NA
ATOM     37  H   UNL     1       8.649   7.377  19.213  0.00  0.00    +0.000 HD
ATOM     38  H   UNL     1       7.180   7.452  18.340  0.00  0.00    +0.000 HD
ENDBRANCH  33  36
ENDBRANCH  32  33
ENDBRANCH  31  32
ENDBRANCH  27  31
ENDBRANCH  23  24
ENDBRANCH   4  23
TORSDOF 10
ENDMDL
MODEL 5
REMARK VINA RESULT:      -7.1      2.442      3.528
REMARK  Name = 
REMARK  12 active torsions:
REMARK  status: ('A' for Active; 'I' for Inactive)
REMARK    1  A    between atoms: C_1  and  O_2
REMARK    2  A    between atoms: O_2  and  C_3
REMARK    3  A    between atoms: C_9  and  N_10
REMARK    4  A    between atoms: C_13  and  O_14
REMARK    5  A    between atoms: O_14  and  C_15
REMARK    6  A    between atoms: C_17  and  O_18
REMARK    7  A    between atoms: C_19  and  C_20
REMARK    8  A    between atoms: C_20  and  O_21
REMARK    9  A    between atoms: O_21  and  S_22
REMARK   10  A    between atoms: S_22  and  N_23
REMARK   11  A    between atoms: C_30  and  O_31
REMARK   12  A    between atoms: O_31  and  C_32
REMARK                            x       y       z     vdW  Elec       q    Type
REMARK                         _______ _______ _______ _____ _____    ______ ____
ROOT
ATOM      1  N   UNL     1      -0.575  10.726  20.056  0.00  0.00    +0.000 N 
ATOM      2  C   UNL     1       0.517  10.059  19.532  0.00  0.00    +0.000 A 
ATOM      3  C   UNL     1       0.850   8.813  20.041  0.00  0.00    +0.000 A 
ATOM      4  C   UNL     1       1.825   8.103  19.371  0.00  0.00    +0.000 A 
ATOM      5  N   UNL     1       2.540   8.617  18.360  0.00  0.00    +0.000 NA
ATOM      6  C   UNL     1       2.195   9.860  18.000  0.00  0.00    +0.000 A 
ATOM      7  N   UNL     1       1.186  10.591  18.500  0.00  0.00    +0.000 NA
ATOM      8  H   UNL     1      -0.589  10.830  21.062  0.00  0.00    +0.000 HD
ENDROOT
BRANCH   1  15
ATOM      9  C   UNL     1      -2.684  13.532  22.377  0.00  0.00    +0.000 A 
ATOM     10  C   UNL     1      -4.060  13.441  22.193  0.00  0.00    +0.000 A 
ATOM     11  C   UNL     1      -4.567  12.923  21.000  0.00  0.00    +0.000 A 
ATOM     12  C   UNL     1      -3.705  12.434  20.004  0.00  0.00    +0.000 A 
ATOM     13  C   UNL     1      -2.323  12.402  20.241  0.00  0.00    +0.000 A 
ATOM     14  C   UNL     1      -1.826  13.005  21.411  0.00  0.00    +0.000 A 
ATOM     15  C   UNL     1      -1.334  11.727  19.288  0.00  0.00    +0.000 C 
ATOM     16  C   UNL     1      -2.008  11.048  18.035  0.00  0.00    +0.000 C 
ATOM     17  C   UNL     1      -3.276  11.796  17.599  0.00  0.00    +0.000 C 
ATOM     18  C   UNL     1      -4.293  11.886  18.734  0.00  0.00    +0.000 C 
BRANCH   9  20
ATOM     19  C   UNL     1      -0.902  14.531  23.519  0.00  0.00    +0.000 C 
ATOM     20  O   UNL     1      -2.261  14.099  23.548  0.00  0.00    +0.000 OA
ENDBRANCH   9  20
BRANCH  16  21
ATOM     21  O   UNL     1      -2.315   9.661  18.307  0.00  0.00    +0.000 OA
ATOM     22  C   UNL     1      -3.443   9.152  17.611  0.00  0.00    +0.000 C 
ENDBRANCH  16  21
ENDBRANCH   1  15
BRANCH   4  23
ATOM     23  O   UNL     1       2.037   6.781  19.746  0.00  0.00    +0.000 OA
BRANCH  23  24
ATOM     24  C   UNL     1       3.095   6.142  19.015  0.00  0.00    +0.000 C 
ATOM     25  C   UNL     1       3.798   5.066  19.855  0.00  0.00    +0.000 C 
ATOM     26  C   UNL     1       4.395   4.075  18.838  0.00  0.00    +0.000 C 
ATOM     27  C   UNL     1       3.748   4.397  17.473  0.00  0.00    +0.000 C 
ATOM     28  C   UNL     1       2.570   5.303  17.846  0.00  0.00    +0.000 C 
BRANCH  26  29
ATOM     29  O   UNL     1       5.812   4.074  18.867  0.00  0.00    +0.000 OA
ATOM     30  H   UNL     1       6.142   4.851  19.347  0.00  0.00    +0.000 HD
ENDBRANCH  26  29
BRANCH  27  31
ATOM     31  C   UNL     1       4.640   5.058  16.416  0.00  0.00    +0.000 C 
BRANCH  31  32
ATOM     32  O   UNL     1       5.747   4.219  16.128  0.00  0.00    +0.000 OA
BRANCH  32  33
ATOM     33  S   UNL     1       7.217   4.939  16.064  0.00  0.00    +0.000 S 
ATOM     34  O   UNL     1       8.090   4.232  16.967  0.00  0.00    +0.000 OA
ATOM     35  O   UNL     1       7.531   5.167  14.671  0.00  0.00    +0.000 OA
BRANCH  33  36
ATOM     36  N   UNL     1       6.903   6.428  16.746  0.00  0.00    +0.000 NA
ATOM     37  H   UNL     1       6.275   6.974  16.161  0.00  0.00    +0.000 HD
ATOM     38  H   UNL     1       7.762   6.908  17.004  0.00  0.00    +0.000 HD
ENDBRANCH  33  36
ENDBRANCH  32  33
ENDBRANCH  31  32
ENDBRANCH  27  31
ENDBRANCH  23  24
ENDBRANCH   4  23
TORSDOF 10
ENDMDL
MODEL 6
REMARK VINA RESULT:      -7.1      1.423      1.618
REMARK  Name = 
REMARK  12 active torsions:
REMARK  status: ('A' for Active; 'I' for Inactive)
REMARK    1  A    between atoms: C_1  and  O_2
REMARK    2  A    between atoms: O_2  and  C_3
REMARK    3  A    between atoms: C_9  and  N_10
REMARK    4  A    between atoms: C_13  and  O_14
REMARK    5  A    between atoms: O_14  and  C_15
REMARK    6  A    between atoms: C_17  and  O_18
REMARK    7  A    between atoms: C_19  and  C_20
REMARK    8  A    between atoms: C_20  and  O_21
REMARK    9  A    between atoms: O_21  and  S_22
REMARK   10  A    between atoms: S_22  and  N_23
REMARK   11  A    between atoms: C_30  and  O_31
REMARK   12  A    between atoms: O_31  and  C_32
REMARK                            x       y       z     vdW  Elec       q    Type
REMARK                         _______ _______ _______ _____ _____    ______ ____
ROOT
ATOM      1  N   UNL     1      -1.138  11.901  21.618  0.00  0.00    +0.000 N 
ATOM      2  C   UNL     1      -0.311  10.794  21.557  0.00  0.00    +0.000 A 
ATOM      3  C   UNL     1      -0.094  10.185  20.330  0.00  0.00    +0.000 A 
ATOM      4  C   UNL     1       0.875   9.205  20.281  0.00  0.00    +0.000 A 
ATOM      5  N   UNL     1       1.497   8.735  21.371  0.00  0.00    +0.000 NA
ATOM      6  C   UNL     1       1.153   9.334  22.519  0.00  0.00    +0.000 A 
ATOM      7  N   UNL     1       0.317  10.374  22.664  0.00  0.00    +0.000 NA
ATOM      8  H   UNL     1      -2.053  11.794  21.202  0.00  0.00    +0.000 HD
ENDROOT
BRANCH   1  15
ATOM      9  C   UNL     1      -4.763  12.994  23.455  0.00  0.00    +0.000 A 
ATOM     10  C   UNL     1      -5.082  14.330  23.238  0.00  0.00    +0.000 A 
ATOM     11  C   UNL     1      -4.066  15.252  22.978  0.00  0.00    +0.000 A 
ATOM     12  C   UNL     1      -2.728  14.836  22.870  0.00  0.00    +0.000 A 
ATOM     13  C   UNL     1      -2.419  13.472  22.956  0.00  0.00    +0.000 A 
ATOM     14  C   UNL     1      -3.443  12.570  23.303  0.00  0.00    +0.000 A 
ATOM     15  C   UNL     1      -1.020  12.919  22.676  0.00  0.00    +0.000 C 
ATOM     16  C   UNL     1       0.033  14.015  22.255  0.00  0.00    +0.000 C 
ATOM     17  C   UNL     1      -0.259  15.367  22.921  0.00  0.00    +0.000 C 
ATOM     18  C   UNL     1      -1.665  15.862  22.591  0.00  0.00    +0.000 C 
BRANCH   9  20
ATOM     19  C   UNL     1      -7.010  12.842  24.091  0.00  0.00    +0.000 C 
ATOM     20  O   UNL     1      -5.804  12.159  23.757  0.00  0.00    +0.000 OA
ENDBRANCH   9  20
BRANCH  16  21
ATOM     21  O   UNL     1       0.070  14.163  20.817  0.00  0.00    +0.000 OA
ATOM     22  C   UNL     1       1.100  15.011  20.331  0.00  0.00    +0.000 C 
ENDBRANCH  16  21
ENDBRANCH   1  15
BRANCH   4  23
ATOM     23  O   UNL     1       1.242   8.720  19.031  0.00  0.00    +0.000 OA
BRANCH  23  24
ATOM     24  C   UNL     1       2.345   7.801  19.076  0.00  0.00    +0.000 C 
ATOM     25  C   UNL     1       1.902   6.400  19.522  0.00  0.00    +0.000 C 
ATOM     26  C   UNL     1       2.940   5.431  18.926  0.00  0.00    +0.000 C 
ATOM     27  C   UNL     1       3.747   6.233  17.881  0.00  0.00    +0.000 C 
ATOM     28  C   UNL     1       2.907   7.499  17.683  0.00  0.00    +0.000 C 
BRANCH  26  29
ATOM     29  O   UNL     1       3.699   4.782  19.931  0.00  0.00    +0.000 OA
ATOM     30  H   UNL     1       3.766   3.831  19.745  0.00  0.00    +0.000 HD
ENDBRANCH  26  29
BRANCH  27  31
ATOM     31  C   UNL     1       5.197   6.582  18.237  0.00  0.00    +0.000 C 
BRANCH  31  32
ATOM     32  O   UNL     1       5.930   5.394  18.484  0.00  0.00    +0.000 OA
BRANCH  32  33
ATOM     33  S   UNL     1       7.559   5.543  18.578  0.00  0.00    +0.000 S 
ATOM     34  O   UNL     1       8.141   4.365  17.984  0.00  0.00    +0.000 OA
ATOM     35  O   UNL     1       7.899   6.888  18.172  0.00  0.00    +0.000 OA
BRANCH  33  36
ATOM     36  N   UNL     1       7.821   5.446  20.222  0.00  0.00    +0.000 NA
ATOM     37  H   UNL     1       7.873   6.372  20.640  0.00  0.00    +0.000 HD
ATOM     38  H   UNL     1       8.611   4.842  20.439  0.00  0.00    +0.000 HD
ENDBRANCH  33  36
ENDBRANCH  32  33
ENDBRANCH  31  32
ENDBRANCH  27  31
ENDBRANCH  23  24
ENDBRANCH   4  23
TORSDOF 10
ENDMDL
MODEL 7
REMARK VINA RESULT:      -7.0      1.097      1.133
REMARK  Name = 
REMARK  12 active torsions:
REMARK  status: ('A' for Active; 'I' for Inactive)
REMARK    1  A    between atoms: C_1  and  O_2
REMARK    2  A    between atoms: O_2  and  C_3
REMARK    3  A    between atoms: C_9  and  N_10
REMARK    4  A    between atoms: C_13  and  O_14
REMARK    5  A    between atoms: O_14  and  C_15
REMARK    6  A    between atoms: C_17  and  O_18
REMARK    7  A    between atoms: C_19  and  C_20
REMARK    8  A    between atoms: C_20  and  O_21
REMARK    9  A    between atoms: O_21  and  S_22
REMARK   10  A    between atoms: S_22  and  N_23
REMARK   11  A    between atoms: C_30  and  O_31
REMARK   12  A    between atoms: O_31  and  C_32
REMARK                            x       y       z     vdW  Elec       q    Type
REMARK                         _______ _______ _______ _____ _____    ______ ____
ROOT
ATOM      1  N   UNL     1       0.379  11.848  20.401  0.00  0.00    +0.000 N 
ATOM      2  C   UNL     1       0.759  10.534  20.602  0.00  0.00    +0.000 A 
ATOM      3  C   UNL     1       0.950   9.713  19.501  0.00  0.00    +0.000 A 
ATOM      4  C   UNL     1       1.505   8.472  19.733  0.00  0.00    +0.000 A 
ATOM      5  N   UNL     1       1.729   7.989  20.964  0.00  0.00    +0.000 NA
ATOM      6  C   UNL     1       1.431   8.830  21.962  0.00  0.00    +0.000 A 
ATOM      7  N   UNL     1       1.004  10.097  21.846  0.00  0.00    +0.000 NA
ATOM      8  H   UNL     1      -0.432  11.989  19.812  0.00  0.00    +0.000 HD
ENDROOT
BRANCH   1  15
ATOM      9  C   UNL     1      -2.806  12.830  22.971  0.00  0.00    +0.000 A 
ATOM     10  C   UNL     1      -3.243  14.138  22.792  0.00  0.00    +0.000 A 
ATOM     11  C   UNL     1      -2.366  15.098  22.283  0.00  0.00    +0.000 A 
ATOM     12  C   UNL     1      -1.063  14.748  21.891  0.00  0.00    +0.000 A 
ATOM     13  C   UNL     1      -0.663  13.406  21.945  0.00  0.00    +0.000 A 
ATOM     14  C   UNL     1      -1.530  12.468  22.539  0.00  0.00    +0.000 A 
ATOM     15  C   UNL     1       0.669  12.913  21.374  0.00  0.00    +0.000 C 
ATOM     16  C   UNL     1       1.535  14.043  20.697  0.00  0.00    +0.000 C 
ATOM     17  C   UNL     1       1.319  15.405  21.371  0.00  0.00    +0.000 C 
ATOM     18  C   UNL     1      -0.152  15.814  21.350  0.00  0.00    +0.000 C 
BRANCH   9  20
ATOM     19  C   UNL     1      -4.344  12.456  24.694  0.00  0.00    +0.000 C 
ATOM     20  O   UNL     1      -3.702  11.956  23.523  0.00  0.00    +0.000 OA
ENDBRANCH   9  20
BRANCH  16  21
ATOM     21  O   UNL     1       1.243  14.133  19.283  0.00  0.00    +0.000 OA
ATOM     22  C   UNL     1       2.375  14.339  18.452  0.00  0.00    +0.000 C 
ENDBRANCH  16  21
ENDBRANCH   1  15
BRANCH   4  23
ATOM     23  O   UNL     1       1.882   7.714  18.631  0.00  0.00    +0.000 OA
BRANCH  23  24
ATOM     24  C   UNL     1       2.693   6.578  18.968  0.00  0.00    +0.000 C 
ATOM     25  C   UNL     1       1.838   5.346  19.299  0.00  0.00    +0.000 C 
ATOM     26  C   UNL     1       2.735   4.130  19.000  0.00  0.00    +0.000 C 
ATOM     27  C   UNL     1       3.941   4.657  18.192  0.00  0.00    +0.000 C 
ATOM     28  C   UNL     1       3.497   6.062  17.771  0.00  0.00    +0.000 C 
BRANCH  26  29
ATOM     29  O   UNL     1       3.047   3.400  20.174  0.00  0.00    +0.000 OA
ATOM     30  H   UNL     1       2.783   3.899  20.964  0.00  0.00    +0.000 HD
ENDBRANCH  26  29
BRANCH  27  31
ATOM     31  C   UNL     1       5.297   4.697  18.907  0.00  0.00    +0.000 C 
BRANCH  31  32
ATOM     32  O   UNL     1       5.956   5.920  18.618  0.00  0.00    +0.000 OA
BRANCH  32  33
ATOM     33  S   UNL     1       7.471   5.809  18.003  0.00  0.00    +0.000 S 
ATOM     34  O   UNL     1       7.927   4.457  18.206  0.00  0.00    +0.000 OA
ATOM     35  O   UNL     1       7.467   6.462  16.713  0.00  0.00    +0.000 OA
BRANCH  33  36
ATOM     36  N   UNL     1       8.338   6.783  19.043  0.00  0.00    +0.000 NA
ATOM     37  H   UNL     1       8.781   7.550  18.543  0.00  0.00    +0.000 HD
ATOM     38  H   UNL     1       8.971   6.237  19.624  0.00  0.00    +0.000 HD
ENDBRANCH  33  36
ENDBRANCH  32  33
ENDBRANCH  31  32
ENDBRANCH  27  31
ENDBRANCH  23  24
ENDBRANCH   4  23
TORSDOF 10
ENDMDL
MODEL 8
REMARK VINA RESULT:      -7.0      2.106      4.232
REMARK  Name = 
REMARK  12 active torsions:
REMARK  status: ('A' for Active; 'I' for Inactive)
REMARK    1  A    between atoms: C_1  and  O_2
REMARK    2  A    between atoms: O_2  and  C_3
REMARK    3  A    between atoms: C_9  and  N_10
REMARK    4  A    between atoms: C_13  and  O_14
REMARK    5  A    between atoms: O_14  and  C_15
REMARK    6  A    between atoms: C_17  and  O_18
REMARK    7  A    between atoms: C_19  and  C_20
REMARK    8  A    between atoms: C_20  and  O_21
REMARK    9  A    between atoms: O_21  and  S_22
REMARK   10  A    between atoms: S_22  and  N_23
REMARK   11  A    between atoms: C_30  and  O_31
REMARK   12  A    between atoms: O_31  and  C_32
REMARK                            x       y       z     vdW  Elec       q    Type
REMARK                         _______ _______ _______ _____ _____    ______ ____
ROOT
ATOM      1  N   UNL     1       0.708  10.741  20.297  0.00  0.00    +0.000 N 
ATOM      2  C   UNL     1       1.314   9.721  19.586  0.00  0.00    +0.000 A 
ATOM      3  C   UNL     1       1.616   8.535  20.239  0.00  0.00    +0.000 A 
ATOM      4  C   UNL     1       2.046   7.483  19.458  0.00  0.00    +0.000 A 
ATOM      5  N   UNL     1       2.309   7.603  18.148  0.00  0.00    +0.000 NA
ATOM      6  C   UNL     1       2.063   8.814  17.632  0.00  0.00    +0.000 A 
ATOM      7  N   UNL     1       1.531   9.867  18.272  0.00  0.00    +0.000 NA
ATOM      8  H   UNL     1       1.166  11.013  21.158  0.00  0.00    +0.000 HD
ENDROOT
BRANCH   1  15
ATOM      9  C   UNL     1       2.791  14.136  18.939  0.00  0.00    +0.000 A 
ATOM     10  C   UNL     1       2.398  15.295  19.599  0.00  0.00    +0.000 A 
ATOM     11  C   UNL     1       1.122  15.373  20.161  0.00  0.00    +0.000 A 
ATOM     12  C   UNL     1       0.250  14.272  20.122  0.00  0.00    +0.000 A 
ATOM     13  C   UNL     1       0.692  13.060  19.575  0.00  0.00    +0.000 A 
ATOM     14  C   UNL     1       1.947  13.025  18.939  0.00  0.00    +0.000 A 
ATOM     15  C   UNL     1      -0.126  11.768  19.652  0.00  0.00    +0.000 C 
ATOM     16  C   UNL     1      -1.493  11.917  20.424  0.00  0.00    +0.000 C 
ATOM     17  C   UNL     1      -2.086  13.323  20.261  0.00  0.00    +0.000 C 
ATOM     18  C   UNL     1      -1.116  14.400  20.738  0.00  0.00    +0.000 C 
BRANCH   9  20
ATOM     19  C   UNL     1       4.353  15.379  17.717  0.00  0.00    +0.000 C 
ATOM     20  O   UNL     1       4.035  14.151  18.367  0.00  0.00    +0.000 OA
ENDBRANCH   9  20
BRANCH  16  21
ATOM     21  O   UNL     1      -1.324  11.605  21.827  0.00  0.00    +0.000 OA
ATOM     22  C   UNL     1      -2.389  12.031  22.663  0.00  0.00    +0.000 C 
ENDBRANCH  16  21
ENDBRANCH   1  15
BRANCH   4  23
ATOM     23  O   UNL     1       2.168   6.236  20.061  0.00  0.00    +0.000 OA
BRANCH  23  24
ATOM     24  C   UNL     1       3.070   5.355  19.373  0.00  0.00    +0.000 C 
ATOM     25  C   UNL     1       3.487   4.168  20.254  0.00  0.00    +0.000 C 
ATOM     26  C   UNL     1       3.866   3.041  19.273  0.00  0.00    +0.000 C 
ATOM     27  C   UNL     1       3.342   3.468  17.884  0.00  0.00    +0.000 C 
ATOM     28  C   UNL     1       2.394   4.628  18.205  0.00  0.00    +0.000 C 
BRANCH  26  29
ATOM     29  O   UNL     1       5.244   2.718  19.343  0.00  0.00    +0.000 OA
ATOM     30  H   UNL     1       5.756   3.481  19.658  0.00  0.00    +0.000 HD
ENDBRANCH  26  29
BRANCH  27  31
ATOM     31  C   UNL     1       4.386   3.881  16.841  0.00  0.00    +0.000 C 
BRANCH  31  32
ATOM     32  O   UNL     1       5.435   4.600  17.469  0.00  0.00    +0.000 OA
BRANCH  32  33
ATOM     33  S   UNL     1       6.824   4.769  16.615  0.00  0.00    +0.000 S 
ATOM     34  O   UNL     1       7.917   4.410  17.484  0.00  0.00    +0.000 OA
ATOM     35  O   UNL     1       6.612   4.172  15.315  0.00  0.00    +0.000 OA
BRANCH  33  36
ATOM     36  N   UNL     1       6.893   6.420  16.391  0.00  0.00    +0.000 NA
ATOM     37  H   UNL     1       7.768   6.693  15.948  0.00  0.00    +0.000 HD
ATOM     38  H   UNL     1       6.682   6.922  17.251  0.00  0.00    +0.000 HD
ENDBRANCH  33  36
ENDBRANCH  32  33
ENDBRANCH  31  32
ENDBRANCH  27  31
ENDBRANCH  23  24
ENDBRANCH   4  23
TORSDOF 10
ENDMDL
MODEL 9
REMARK VINA RESULT:      -7.0      0.955      1.060
REMARK  Name = 
REMARK  12 active torsions:
REMARK  status: ('A' for Active; 'I' for Inactive)
REMARK    1  A    between atoms: C_1  and  O_2
REMARK    2  A    between atoms: O_2  and  C_3
REMARK    3  A    between atoms: C_9  and  N_10
REMARK    4  A    between atoms: C_13  and  O_14
REMARK    5  A    between atoms: O_14  and  C_15
REMARK    6  A    between atoms: C_17  and  O_18
REMARK    7  A    between atoms: C_19  and  C_20
REMARK    8  A    between atoms: C_20  and  O_21
REMARK    9  A    between atoms: O_21  and  S_22
REMARK   10  A    between atoms: S_22  and  N_23
REMARK   11  A    between atoms: C_30  and  O_31
REMARK   12  A    between atoms: O_31  and  C_32
REMARK                            x       y       z     vdW  Elec       q    Type
REMARK                         _______ _______ _______ _____ _____    ______ ____
ROOT
ATOM      1  N   UNL     1      -0.727  11.426  20.375  0.00  0.00    +0.000 N 
ATOM      2  C   UNL     1       0.020  10.267  20.473  0.00  0.00    +0.000 A 
ATOM      3  C   UNL     1       0.555   9.713  19.320  0.00  0.00    +0.000 A 
ATOM      4  C   UNL     1       1.442   8.669  19.480  0.00  0.00    +0.000 A 
ATOM      5  N   UNL     1       1.691   8.095  20.666  0.00  0.00    +0.000 NA
ATOM      6  C   UNL     1       1.058   8.652  21.706  0.00  0.00    +0.000 A 
ATOM      7  N   UNL     1       0.273   9.741  21.680  0.00  0.00    +0.000 NA
ATOM      8  H   UNL     1      -1.485  11.410  19.705  0.00  0.00    +0.000 HD
ENDROOT
BRANCH   1  15
ATOM      9  C   UNL     1      -4.602  12.978  20.914  0.00  0.00    +0.000 A 
ATOM     10  C   UNL     1      -4.650  14.355  20.721  0.00  0.00    +0.000 A 
ATOM     11  C   UNL     1      -3.501  15.122  20.919  0.00  0.00    +0.000 A 
ATOM     12  C   UNL     1      -2.278  14.515  21.251  0.00  0.00    +0.000 A 
ATOM     13  C   UNL     1      -2.195  13.118  21.315  0.00  0.00    +0.000 A 
ATOM     14  C   UNL     1      -3.380  12.367  21.197  0.00  0.00    +0.000 A 
ATOM     15  C   UNL     1      -0.871  12.372  21.494  0.00  0.00    +0.000 C 
ATOM     16  C   UNL     1       0.392  13.313  21.572  0.00  0.00    +0.000 C 
ATOM     17  C   UNL     1       0.052  14.666  22.212  0.00  0.00    +0.000 C 
ATOM     18  C   UNL     1      -1.065  15.380  21.456  0.00  0.00    +0.000 C 
BRANCH   9  20
ATOM     19  C   UNL     1      -6.659  12.403  21.871  0.00  0.00    +0.000 C 
ATOM     20  O   UNL     1      -5.778  12.298  20.754  0.00  0.00    +0.000 OA
ENDBRANCH   9  20
BRANCH  16  21
ATOM     21  O   UNL     1       0.963  13.511  20.257  0.00  0.00    +0.000 OA
ATOM     22  C   UNL     1       2.357  13.779  20.248  0.00  0.00    +0.000 C 
ENDBRANCH  16  21
ENDBRANCH   1  15
BRANCH   4  23
ATOM     23  O   UNL     1       2.134   8.229  18.357  0.00  0.00    +0.000 OA
BRANCH  23  24
ATOM     24  C   UNL     1       2.734   6.936  18.526  0.00  0.00    +0.000 C 
ATOM     25  C   UNL     1       1.793   5.808  18.076  0.00  0.00    +0.000 C 
ATOM     26  C   UNL     1       2.712   4.632  17.695  0.00  0.00    +0.000 C 
ATOM     27  C   UNL     1       4.145   5.203  17.601  0.00  0.00    +0.000 C 
ATOM     28  C   UNL     1       3.922   6.718  17.583  0.00  0.00    +0.000 C 
BRANCH  26  29
ATOM     29  O   UNL     1       2.542   3.523  18.560  0.00  0.00    +0.000 OA
ATOM     30  H   UNL     1       1.602   3.399  18.770  0.00  0.00    +0.000 HD
ENDBRANCH  26  29
BRANCH  27  31
ATOM     31  C   UNL     1       5.129   4.803  18.706  0.00  0.00    +0.000 C 
BRANCH  31  32
ATOM     32  O   UNL     1       5.914   5.924  19.080  0.00  0.00    +0.000 OA
BRANCH  32  33
ATOM     33  S   UNL     1       7.539   5.711  19.091  0.00  0.00    +0.000 S 
ATOM     34  O   UNL     1       8.132   6.840  18.419  0.00  0.00    +0.000 OA
ATOM     35  O   UNL     1       7.915   5.293  20.424  0.00  0.00    +0.000 OA
BRANCH  33  36
ATOM     36  N   UNL     1       7.722   4.389  18.092  0.00  0.00    +0.000 NA
ATOM     37  H   UNL     1       7.493   3.526  18.580  0.00  0.00    +0.000 HD
ATOM     38  H   UNL     1       8.633   4.388  17.639  0.00  0.00    +0.000 HD
ENDBRANCH  33  36
ENDBRANCH  32  33
ENDBRANCH  31  32
ENDBRANCH  27  31
ENDBRANCH  23  24
ENDBRANCH   4  23
TORSDOF 10
ENDMDL
