MODEL 1
REMARK VINA RESULT:      -7.0      0.000      0.000
REMARK  Name = 
REMARK  7 active torsions:
REMARK  status: ('A' for Active; 'I' for Inactive)
REMARK    1  A    between atoms: C_5  and  O_6
REMARK    2  A    between atoms: O_6  and  C_7
REMARK    3  A    between atoms: C_7  and  C_8
REMARK    4  A    between atoms: C_8  and  N_9
REMARK    5  A    between atoms: N_9  and  C_10
REMARK    6  A    between atoms: C_10  and  C_11
REMARK    7  A    between atoms: C_11  and  C_12
REMARK                            x       y       z     vdW  Elec       q    Type
REMARK                         _______ _______ _______ _____ _____    ______ ____
ROOT
ATOM      1  C   UNL     1       7.547   5.326  17.816  0.00  0.00    +0.000 C 
ENDROOT
BRANCH   1   2
ATOM      2  N   UNL     1       6.781   4.243  18.443  0.00  0.00    +0.000 NA
ATOM      3  H   UNL     1       7.173   4.045  19.366  0.00  0.00    +0.000 HD
BRANCH   2   4
ATOM      4  C   UNL     1       5.363   4.596  18.611  0.00  0.00    +0.000 C 
BRANCH   4   5
ATOM      5  C   UNL     1       4.403   3.593  17.958  0.00  0.00    +0.000 C 
BRANCH   5   6
ATOM      6  C   UNL     1       3.102   3.476  18.707  0.00  0.00    +0.000 A 
ATOM      7  C   UNL     1       2.085   2.635  18.233  0.00  0.00    +0.000 A 
ATOM      8  C   UNL     1       0.888   2.514  18.933  0.00  0.00    +0.000 A 
ATOM      9  C   UNL     1       0.693   3.237  20.109  0.00  0.00    +0.000 A 
ATOM     10  C   UNL     1       1.695   4.083  20.582  0.00  0.00    +0.000 A 
ATOM     11  C   UNL     1       2.894   4.205  19.882  0.00  0.00    +0.000 A 
ENDBRANCH   5   6
ENDBRANCH   4   5
ENDBRANCH   2   4
ENDBRANCH   1   2
BRANCH   1  12
ATOM     12  C   UNL     1       6.808   5.938  16.624  0.00  0.00    +0.000 C 
BRANCH  12  13
ATOM     13  O   UNL     1       7.642   5.764  15.473  0.00  0.00    +0.000 OA
BRANCH  13  18
ATOM     14 CL   UNL     1       4.984   2.596  11.305  0.00  0.00    +0.000 Cl
ATOM     15  C   UNL     1       5.791   3.519  12.511  0.00  0.00    +0.000 A 
ATOM     16  C   UNL     1       5.220   3.663  13.773  0.00  0.00    +0.000 A 
ATOM     17  C   UNL     1       5.877   4.421  14.745  0.00  0.00    +0.000 A 
ATOM     18  C   UNL     1       7.106   5.020  14.461  0.00  0.00    +0.000 A 
ATOM     19  C   UNL     1       7.668   4.879  13.192  0.00  0.00    +0.000 A 
ATOM     20  C   UNL     1       7.010   4.127  12.215  0.00  0.00    +0.000 A 
ENDBRANCH  13  18
ENDBRANCH  12  13
ENDBRANCH   1  12
TORSDOF 7
ENDMDL
MODEL 2
REMARK VINA RESULT:      -6.7      3.761      5.435
REMARK  Name = 
REMARK  7 active torsions:
REMARK  status: ('A' for Active; 'I' for Inactive)
REMARK    1  A    between atoms: C_5  and  O_6
REMARK    2  A    between atoms: O_6  and  C_7
REMARK    3  A    between atoms: C_7  and  C_8
REMARK    4  A    between atoms: C_8  and  N_9
REMARK    5  A    between atoms: N_9  and  C_10
REMARK    6  A    between atoms: C_10  and  C_11
REMARK    7  A    between atoms: C_11  and  C_12
REMARK                            x       y       z     vdW  Elec       q    Type
REMARK                         _______ _______ _______ _____ _____    ______ ____
ROOT
ATOM      1  C   UNL     1       5.897   4.761  16.854  0.00  0.00    +0.000 C 
ENDROOT
BRANCH   1   2
ATOM      2  N   UNL     1       5.372   3.650  17.655  0.00  0.00    +0.000 NA
ATOM      3  H   UNL     1       5.173   3.982  18.600  0.00  0.00    +0.000 HD
BRANCH   2   4
ATOM      4  C   UNL     1       4.130   3.101  17.088  0.00  0.00    +0.000 C 
BRANCH   4   5
ATOM      5  C   UNL     1       3.556   1.930  17.896  0.00  0.00    +0.000 C 
BRANCH   5   6
ATOM      6  C   UNL     1       2.745   2.393  19.077  0.00  0.00    +0.000 A 
ATOM      7  C   UNL     1       3.315   2.426  20.357  0.00  0.00    +0.000 A 
ATOM      8  C   UNL     1       2.571   2.870  21.448  0.00  0.00    +0.000 A 
ATOM      9  C   UNL     1       1.251   3.278  21.271  0.00  0.00    +0.000 A 
ATOM     10  C   UNL     1       0.673   3.239  20.002  0.00  0.00    +0.000 A 
ATOM     11  C   UNL     1       1.416   2.796  18.910  0.00  0.00    +0.000 A 
ENDBRANCH   5   6
ENDBRANCH   4   5
ENDBRANCH   2   4
ENDBRANCH   1   2
BRANCH   1  12
ATOM     12  C   UNL     1       5.553   6.123  17.461  0.00  0.00    +0.000 C 
BRANCH  12  13
ATOM     13  O   UNL     1       4.260   6.493  16.968  0.00  0.00    +0.000 OA
BRANCH  13  18
ATOM     14 CL   UNL     1       0.684   8.329  21.247  0.00  0.00    +0.000 Cl
ATOM     15  C   UNL     1       1.715   7.809  19.973  0.00  0.00    +0.000 A 
ATOM     16  C   UNL     1       2.410   6.607  20.088  0.00  0.00    +0.000 A 
ATOM     17  C   UNL     1       3.252   6.196  19.053  0.00  0.00    +0.000 A 
ATOM     18  C   UNL     1       3.387   6.974  17.901  0.00  0.00    +0.000 A 
ATOM     19  C   UNL     1       2.695   8.181  17.796  0.00  0.00    +0.000 A 
ATOM     20  C   UNL     1       1.857   8.599  18.833  0.00  0.00    +0.000 A 
ENDBRANCH  13  18
ENDBRANCH  12  13
ENDBRANCH   1  12
TORSDOF 7
ENDMDL
MODEL 3
REMARK VINA RESULT:      -6.7      1.281      1.363
REMARK  Name = 
REMARK  7 active torsions:
REMARK  status: ('A' for Active; 'I' for Inactive)
REMARK    1  A    between atoms: C_5  and  O_6
REMARK    2  A    between atoms: O_6  and  C_7
REMARK    3  A    between atoms: C_7  and  C_8
REMARK    4  A    between atoms: C_8  and  N_9
REMARK    5  A    between atoms: N_9  and  C_10
REMARK    6  A    between atoms: C_10  and  C_11
REMARK    7  A    between atoms: C_11  and  C_12
REMARK                            x       y       z     vdW  Elec       q    Type
REMARK                         _______ _______ _______ _____ _____    ______ ____
ROOT
ATOM      1  C   UNL     1       7.047   6.235  17.801  0.00  0.00    +0.000 C 
ENDROOT
BRANCH   1   2
ATOM      2  N   UNL     1       5.726   6.046  18.412  0.00  0.00    +0.000 NA
ATOM      3  H   UNL     1       5.592   6.744  19.146  0.00  0.00    +0.000 HD
BRANCH   2   4
ATOM      4  C   UNL     1       4.640   6.192  17.433  0.00  0.00    +0.000 C 
BRANCH   4   5
ATOM      5  C   UNL     1       3.332   6.715  18.043  0.00  0.00    +0.000 C 
BRANCH   5   6
ATOM      6  C   UNL     1       2.513   5.616  18.666  0.00  0.00    +0.000 A 
ATOM      7  C   UNL     1       1.993   4.584  17.873  0.00  0.00    +0.000 A 
ATOM      8  C   UNL     1       1.249   3.558  18.450  0.00  0.00    +0.000 A 
ATOM      9  C   UNL     1       1.012   3.559  19.823  0.00  0.00    +0.000 A 
ATOM     10  C   UNL     1       1.517   4.586  20.619  0.00  0.00    +0.000 A 
ATOM     11  C   UNL     1       2.262   5.614  20.042  0.00  0.00    +0.000 A 
ENDBRANCH   5   6
ENDBRANCH   4   5
ENDBRANCH   2   4
ENDBRANCH   1   2
BRANCH   1  12
ATOM     12  C   UNL     1       7.400   5.103  16.833  0.00  0.00    +0.000 C 
BRANCH  12  13
ATOM     13  O   UNL     1       7.539   5.686  15.532  0.00  0.00    +0.000 OA
BRANCH  13  18
ATOM     14 CL   UNL     1       5.033   2.527  11.266  0.00  0.00    +0.000 Cl
ATOM     15  C   UNL     1       5.795   3.449  12.501  0.00  0.00    +0.000 A 
ATOM     16  C   UNL     1       5.214   3.532  13.764  0.00  0.00    +0.000 A 
ATOM     17  C   UNL     1       5.835   4.290  14.760  0.00  0.00    +0.000 A 
ATOM     18  C   UNL     1       7.039   4.950  14.498  0.00  0.00    +0.000 A 
ATOM     19  C   UNL     1       7.609   4.870  13.227  0.00  0.00    +0.000 A 
ATOM     20  C   UNL     1       6.988   4.117  12.227  0.00  0.00    +0.000 A 
ENDBRANCH  13  18
ENDBRANCH  12  13
ENDBRANCH   1  12
TORSDOF 7
ENDMDL
MODEL 4
REMARK VINA RESULT:      -6.6      4.812      8.086
REMARK  Name = 
REMARK  7 active torsions:
REMARK  status: ('A' for Active; 'I' for Inactive)
REMARK    1  A    between atoms: C_5  and  O_6
REMARK    2  A    between atoms: O_6  and  C_7
REMARK    3  A    between atoms: C_7  and  C_8
REMARK    4  A    between atoms: C_8  and  N_9
REMARK    5  A    between atoms: N_9  and  C_10
REMARK    6  A    between atoms: C_10  and  C_11
REMARK    7  A    between atoms: C_11  and  C_12
REMARK                            x       y       z     vdW  Elec       q    Type
REMARK                         _______ _______ _______ _____ _____    ______ ____
ROOT
ATOM      1  C   UNL     1       7.627   6.523  17.372  0.00  0.00    +0.000 C 
ENDROOT
BRANCH   1   2
ATOM      2  N   UNL     1       7.370   7.968  17.367  0.00  0.00    +0.000 NA
ATOM      3  H   UNL     1       6.443   8.146  17.758  0.00  0.00    +0.000 HD
BRANCH   2   4
ATOM      4  C   UNL     1       8.357   8.706  18.169  0.00  0.00    +0.000 C 
BRANCH   4   5
ATOM      5  C   UNL     1       8.455  10.193  17.800  0.00  0.00    +0.000 C 
BRANCH   5   6
ATOM      6  C   UNL     1       9.554  10.897  18.552  0.00  0.00    +0.000 A 
ATOM      7  C   UNL     1      10.623  11.482  17.859  0.00  0.00    +0.000 A 
ATOM      8  C   UNL     1      11.631  12.148  18.551  0.00  0.00    +0.000 A 
ATOM      9  C   UNL     1      11.583  12.229  19.942  0.00  0.00    +0.000 A 
ATOM     10  C   UNL     1      10.528  11.642  20.640  0.00  0.00    +0.000 A 
ATOM     11  C   UNL     1       9.519  10.976  19.948  0.00  0.00    +0.000 A 
ENDBRANCH   5   6
ENDBRANCH   4   5
ENDBRANCH   2   4
ENDBRANCH   1   2
BRANCH   1  12
ATOM     12  C   UNL     1       7.638   5.945  18.789  0.00  0.00    +0.000 C 
BRANCH  12  13
ATOM     13  O   UNL     1       7.012   4.659  18.728  0.00  0.00    +0.000 OA
BRANCH  13  18
ATOM     14 CL   UNL     1       1.267   4.377  17.550  0.00  0.00    +0.000 Cl
ATOM     15  C   UNL     1       2.944   4.487  17.912  0.00  0.00    +0.000 A 
ATOM     16  C   UNL     1       3.877   3.884  17.071  0.00  0.00    +0.000 A 
ATOM     17  C   UNL     1       5.237   3.970  17.376  0.00  0.00    +0.000 A 
ATOM     18  C   UNL     1       5.664   4.667  18.509  0.00  0.00    +0.000 A 
ATOM     19  C   UNL     1       4.724   5.260  19.352  0.00  0.00    +0.000 A 
ATOM     20  C   UNL     1       3.362   5.170  19.053  0.00  0.00    +0.000 A 
ENDBRANCH  13  18
ENDBRANCH  12  13
ENDBRANCH   1  12
TORSDOF 7
ENDMDL
MODEL 5
REMARK VINA RESULT:      -6.6      3.788      5.122
REMARK  Name = 
REMARK  7 active torsions:
REMARK  status: ('A' for Active; 'I' for Inactive)
REMARK    1  A    between atoms: C_5  and  O_6
REMARK    2  A    between atoms: O_6  and  C_7
REMARK    3  A    between atoms: C_7  and  C_8
REMARK    4  A    between atoms: C_8  and  N_9
REMARK    5  A    between atoms: N_9  and  C_10
REMARK    6  A    between atoms: C_10  and  C_11
REMARK    7  A    between atoms: C_11  and  C_12
REMARK                            x       y       z     vdW  Elec       q    Type
REMARK                         _______ _______ _______ _____ _____    ______ ____
ROOT
ATOM      1  C   UNL     1       2.291   3.311  17.459  0.00  0.00    +0.000 C 
ENDROOT
BRANCH   1   2
ATOM      2  N   UNL     1       1.765   4.568  18.003  0.00  0.00    +0.000 NA
ATOM      3  H   UNL     1       0.744   4.538  17.992  0.00  0.00    +0.000 HD
BRANCH   2   4
ATOM      4  C   UNL     1       2.205   4.797  19.387  0.00  0.00    +0.000 C 
BRANCH   4   5
ATOM      5  C   UNL     1       3.129   6.012  19.542  0.00  0.00    +0.000 C 
BRANCH   5   6
ATOM      6  C   UNL     1       2.403   7.314  19.328  0.00  0.00    +0.000 A 
ATOM      7  C   UNL     1       2.447   7.952  18.080  0.00  0.00    +0.000 A 
ATOM      8  C   UNL     1       1.763   9.147  17.875  0.00  0.00    +0.000 A 
ATOM      9  C   UNL     1       1.035   9.719  18.917  0.00  0.00    +0.000 A 
ATOM     10  C   UNL     1       0.993   9.097  20.163  0.00  0.00    +0.000 A 
ATOM     11  C   UNL     1       1.677   7.900  20.369  0.00  0.00    +0.000 A 
ENDBRANCH   5   6
ENDBRANCH   4   5
ENDBRANCH   2   4
ENDBRANCH   1   2
BRANCH   1  12
ATOM     12  C   UNL     1       3.706   3.015  17.960  0.00  0.00    +0.000 C 
BRANCH  12  13
ATOM     13  O   UNL     1       4.610   3.350  16.901  0.00  0.00    +0.000 OA
BRANCH  13  18
ATOM     14 CL   UNL     1       7.805   8.214  17.671  0.00  0.00    +0.000 Cl
ATOM     15  C   UNL     1       6.844   6.807  17.436  0.00  0.00    +0.000 A 
ATOM     16  C   UNL     1       7.146   5.637  18.128  0.00  0.00    +0.000 A 
ATOM     17  C   UNL     1       6.366   4.496  17.925  0.00  0.00    +0.000 A 
ATOM     18  C   UNL     1       5.281   4.529  17.046  0.00  0.00    +0.000 A 
ATOM     19  C   UNL     1       4.991   5.703  16.349  0.00  0.00    +0.000 A 
ATOM     20  C   UNL     1       5.772   6.844  16.545  0.00  0.00    +0.000 A 
ENDBRANCH  13  18
ENDBRANCH  12  13
ENDBRANCH   1  12
TORSDOF 7
ENDMDL
MODEL 6
REMARK VINA RESULT:      -6.6      2.856      4.347
REMARK  Name = 
REMARK  7 active torsions:
REMARK  status: ('A' for Active; 'I' for Inactive)
REMARK    1  A    between atoms: C_5  and  O_6
REMARK    2  A    between atoms: O_6  and  C_7
REMARK    3  A    between atoms: C_7  and  C_8
REMARK    4  A    between atoms: C_8  and  N_9
REMARK    5  A    between atoms: N_9  and  C_10
REMARK    6  A    between atoms: C_10  and  C_11
REMARK    7  A    between atoms: C_11  and  C_12
REMARK                            x       y       z     vdW  Elec       q    Type
REMARK                         _______ _______ _______ _____ _____    ______ ____
ROOT
ATOM      1  C   UNL     1       1.769   6.133  20.497  0.00  0.00    +0.000 C 
ENDROOT
BRANCH   1   2
ATOM      2  N   UNL     1       2.405   5.122  21.348  0.00  0.00    +0.000 NA
ATOM      3  H   UNL     1       2.521   5.500  22.290  0.00  0.00    +0.000 HD
BRANCH   2   4
ATOM      4  C   UNL     1       1.601   3.894  21.440  0.00  0.00    +0.000 C 
BRANCH   4   5
ATOM      5  C   UNL     1       0.883   3.534  20.132  0.00  0.00    +0.000 C 
BRANCH   5   6
ATOM      6  C   UNL     1       1.838   3.066  19.066  0.00  0.00    +0.000 A 
ATOM      7  C   UNL     1       2.748   2.035  19.335  0.00  0.00    +0.000 A 
ATOM      8  C   UNL     1       3.621   1.589  18.345  0.00  0.00    +0.000 A 
ATOM      9  C   UNL     1       3.596   2.174  17.080  0.00  0.00    +0.000 A 
ATOM     10  C   UNL     1       2.699   3.207  16.807  0.00  0.00    +0.000 A 
ATOM     11  C   UNL     1       1.826   3.653  17.797  0.00  0.00    +0.000 A 
ENDBRANCH   5   6
ENDBRANCH   4   5
ENDBRANCH   2   4
ENDBRANCH   1   2
BRANCH   1  12
ATOM     12  C   UNL     1       2.740   6.710  19.463  0.00  0.00    +0.000 C 
BRANCH  12  13
ATOM     13  O   UNL     1       3.968   5.983  19.584  0.00  0.00    +0.000 OA
BRANCH  13  18
ATOM     14 CL   UNL     1       7.084   4.849  14.739  0.00  0.00    +0.000 Cl
ATOM     15  C   UNL     1       6.164   5.210  16.146  0.00  0.00    +0.000 A 
ATOM     16  C   UNL     1       6.436   4.550  17.342  0.00  0.00    +0.000 A 
ATOM     17  C   UNL     1       5.679   4.843  18.479  0.00  0.00    +0.000 A 
ATOM     18  C   UNL     1       4.664   5.801  18.424  0.00  0.00    +0.000 A 
ATOM     19  C   UNL     1       4.391   6.451  17.220  0.00  0.00    +0.000 A 
ATOM     20  C   UNL     1       5.142   6.157  16.080  0.00  0.00    +0.000 A 
ENDBRANCH  13  18
ENDBRANCH  12  13
ENDBRANCH   1  12
TORSDOF 7
ENDMDL
MODEL 7
REMARK VINA RESULT:      -6.5      4.877      8.141
REMARK  Name = 
REMARK  7 active torsions:
REMARK  status: ('A' for Active; 'I' for Inactive)
REMARK    1  A    between atoms: C_5  and  O_6
REMARK    2  A    between atoms: O_6  and  C_7
REMARK    3  A    between atoms: C_7  and  C_8
REMARK    4  A    between atoms: C_8  and  N_9
REMARK    5  A    between atoms: N_9  and  C_10
REMARK    6  A    between atoms: C_10  and  C_11
REMARK    7  A    between atoms: C_11  and  C_12
REMARK                            x       y       z     vdW  Elec       q    Type
REMARK                         _______ _______ _______ _____ _____    ______ ____
ROOT
ATOM      1  C   UNL     1       6.348   7.435  17.335  0.00  0.00    +0.000 C 
ENDROOT
BRANCH   1   2
ATOM      2  N   UNL     1       7.760   7.773  17.126  0.00  0.00    +0.000 NA
ATOM      3  H   UNL     1       7.851   8.320  16.268  0.00  0.00    +0.000 HD
BRANCH   2   4
ATOM      4  C   UNL     1       8.308   8.565  18.238  0.00  0.00    +0.000 C 
BRANCH   4   5
ATOM      5  C   UNL     1       8.321  10.075  17.964  0.00  0.00    +0.000 C 
BRANCH   5   6
ATOM      6  C   UNL     1       9.480  10.767  18.632  0.00  0.00    +0.000 A 
ATOM      7  C   UNL     1      10.562  11.230  17.871  0.00  0.00    +0.000 A 
ATOM      8  C   UNL     1      11.627  11.884  18.485  0.00  0.00    +0.000 A 
ATOM      9  C   UNL     1      11.623  12.076  19.865  0.00  0.00    +0.000 A 
ATOM     10  C   UNL     1      10.556  11.610  20.631  0.00  0.00    +0.000 A 
ATOM     11  C   UNL     1       9.489  10.955  20.018  0.00  0.00    +0.000 A 
ENDBRANCH   5   6
ENDBRANCH   4   5
ENDBRANCH   2   4
ENDBRANCH   1   2
BRANCH   1  12
ATOM     12  C   UNL     1       6.131   5.927  17.475  0.00  0.00    +0.000 C 
BRANCH  12  13
ATOM     13  O   UNL     1       5.070   5.566  16.584  0.00  0.00    +0.000 OA
BRANCH  13  18
ATOM     14 CL   UNL     1       0.707   2.487  19.023  0.00  0.00    +0.000 Cl
ATOM     15  C   UNL     1       1.967   3.415  18.309  0.00  0.00    +0.000 A 
ATOM     16  C   UNL     1       2.953   2.783  17.555  0.00  0.00    +0.000 A 
ATOM     17  C   UNL     1       3.977   3.543  16.985  0.00  0.00    +0.000 A 
ATOM     18  C   UNL     1       4.007   4.929  17.156  0.00  0.00    +0.000 A 
ATOM     19  C   UNL     1       3.021   5.554  17.920  0.00  0.00    +0.000 A 
ATOM     20  C   UNL     1       1.999   4.796  18.497  0.00  0.00    +0.000 A 
ENDBRANCH  13  18
ENDBRANCH  12  13
ENDBRANCH   1  12
TORSDOF 7
ENDMDL
MODEL 8
REMARK VINA RESULT:      -6.5      0.678      1.297
REMARK  Name = 
REMARK  7 active torsions:
REMARK  status: ('A' for Active; 'I' for Inactive)
REMARK    1  A    between atoms: C_5  and  O_6
REMARK    2  A    between atoms: O_6  and  C_7
REMARK    3  A    between atoms: C_7  and  C_8
REMARK    4  A    between atoms: C_8  and  N_9
REMARK    5  A    between atoms: N_9  and  C_10
REMARK    6  A    between atoms: C_10  and  C_11
REMARK    7  A    between atoms: C_11  and  C_12
REMARK                            x       y       z     vdW  Elec       q    Type
REMARK                         _______ _______ _______ _____ _____    ______ ____
ROOT
ATOM      1  C   UNL     1       7.403   6.228  18.141  0.00  0.00    +0.000 C 
ENDROOT
BRANCH   1   2
ATOM      2  N   UNL     1       7.108   4.890  18.665  0.00  0.00    +0.000 NA
ATOM      3  H   UNL     1       7.812   4.638  19.360  0.00  0.00    +0.000 HD
BRANCH   2   4
ATOM      4  C   UNL     1       5.785   4.827  19.305  0.00  0.00    +0.000 C 
BRANCH   4   5
ATOM      5  C   UNL     1       4.752   4.030  18.497  0.00  0.00    +0.000 C 
BRANCH   5   6
ATOM      6  C   UNL     1       3.425   3.934  19.202  0.00  0.00    +0.000 A 
ATOM      7  C   UNL     1       2.675   2.751  19.141  0.00  0.00    +0.000 A 
ATOM      8  C   UNL     1       1.455   2.655  19.806  0.00  0.00    +0.000 A 
ATOM      9  C   UNL     1       0.972   3.742  20.533  0.00  0.00    +0.000 A 
ATOM     10  C   UNL     1       1.707   4.925  20.592  0.00  0.00    +0.000 A 
ATOM     11  C   UNL     1       2.928   5.022  19.926  0.00  0.00    +0.000 A 
ENDBRANCH   5   6
ENDBRANCH   4   5
ENDBRANCH   2   4
ENDBRANCH   1   2
BRANCH   1  12
ATOM     12  C   UNL     1       6.814   6.443  16.745  0.00  0.00    +0.000 C 
BRANCH  12  13
ATOM     13  O   UNL     1       7.647   5.736  15.820  0.00  0.00    +0.000 OA
BRANCH  13  18
ATOM     14 CL   UNL     1       5.167   2.668  11.472  0.00  0.00    +0.000 Cl
ATOM     15  C   UNL     1       5.865   3.568  12.761  0.00  0.00    +0.000 A 
ATOM     16  C   UNL     1       7.029   4.303  12.544  0.00  0.00    +0.000 A 
ATOM     17  C   UNL     1       7.594   5.024  13.597  0.00  0.00    +0.000 A 
ATOM     18  C   UNL     1       6.991   5.024  14.858  0.00  0.00    +0.000 A 
ATOM     19  C   UNL     1       5.832   4.278  15.070  0.00  0.00    +0.000 A 
ATOM     20  C   UNL     1       5.267   3.550  14.020  0.00  0.00    +0.000 A 
ENDBRANCH  13  18
ENDBRANCH  12  13
ENDBRANCH   1  12
TORSDOF 7
ENDMDL
MODEL 9
REMARK VINA RESULT:      -6.5      4.221      6.026
REMARK  Name = 
REMARK  7 active torsions:
REMARK  status: ('A' for Active; 'I' for Inactive)
REMARK    1  A    between atoms: C_5  and  O_6
REMARK    2  A    between atoms: O_6  and  C_7
REMARK    3  A    between atoms: C_7  and  C_8
REMARK    4  A    between atoms: C_8  and  N_9
REMARK    5  A    between atoms: N_9  and  C_10
REMARK    6  A    between atoms: C_10  and  C_11
REMARK    7  A    between atoms: C_11  and  C_12
REMARK                            x       y       z     vdW  Elec       q    Type
REMARK                         _______ _______ _______ _____ _____    ______ ____
ROOT
ATOM      1  C   UNL     1       5.370   5.225  18.407  0.00  0.00    +0.000 C 
ENDROOT
BRANCH   1   2
ATOM      2  N   UNL     1       5.569   3.954  17.702  0.00  0.00    +0.000 NA
ATOM      3  H   UNL     1       5.922   3.257  18.359  0.00  0.00    +0.000 HD
BRANCH   2   4
ATOM      4  C   UNL     1       4.318   3.446  17.119  0.00  0.00    +0.000 C 
BRANCH   4   5
ATOM      5  C   UNL     1       3.769   2.206  17.836  0.00  0.00    +0.000 C 
BRANCH   5   6
ATOM      6  C   UNL     1       2.888   2.563  19.004  0.00  0.00    +0.000 A 
ATOM      7  C   UNL     1       3.398   2.535  20.309  0.00  0.00    +0.000 A 
ATOM      8  C   UNL     1       2.589   2.882  21.389  0.00  0.00    +0.000 A 
ATOM      9  C   UNL     1       1.263   3.253  21.174  0.00  0.00    +0.000 A 
ATOM     10  C   UNL     1       0.745   3.274  19.880  0.00  0.00    +0.000 A 
ATOM     11  C   UNL     1       1.554   2.928  18.798  0.00  0.00    +0.000 A 
ENDBRANCH   5   6
ENDBRANCH   4   5
ENDBRANCH   2   4
ENDBRANCH   1   2
BRANCH   1  12
ATOM     12  C   UNL     1       4.471   6.185  17.623  0.00  0.00    +0.000 C 
BRANCH  12  13
ATOM     13  O   UNL     1       3.126   5.953  18.055  0.00  0.00    +0.000 OA
BRANCH  13  18
ATOM     14 CL   UNL     1       0.414  10.575  20.454  0.00  0.00    +0.000 Cl
ATOM     15  C   UNL     1       1.219   9.212  19.780  0.00  0.00    +0.000 A 
ATOM     16  C   UNL     1       1.591   9.219  18.438  0.00  0.00    +0.000 A 
ATOM     17  C   UNL     1       2.237   8.106  17.897  0.00  0.00    +0.000 A 
ATOM     18  C   UNL     1       2.522   6.996  18.696  0.00  0.00    +0.000 A 
ATOM     19  C   UNL     1       2.137   6.992  20.037  0.00  0.00    +0.000 A 
ATOM     20  C   UNL     1       1.486   8.102  20.581  0.00  0.00    +0.000 A 
ENDBRANCH  13  18
ENDBRANCH  12  13
ENDBRANCH   1  12
TORSDOF 7
ENDMDL
