MODEL 1
REMARK VINA RESULT:      -8.3      0.000      0.000
REMARK  Name = 
REMARK  5 active torsions:
REMARK  status: ('A' for Active; 'I' for Inactive)
REMARK    1  A    between atoms: C_1  and  C_2
REMARK    2  A    between atoms: C_4  and  N_5
REMARK    3  A    between atoms: N_8  and  C_9
REMARK    4  A    between atoms: C_15  and  C_16
REMARK    5  A    between atoms: C_16  and  O_18
REMARK                            x       y       z     vdW  Elec       q    Type
REMARK                         _______ _______ _______ _____ _____    ______ ____
ROOT
ATOM      1  N   UNL     1       2.618   7.467  17.915  0.00  0.00    +0.000 N 
ATOM      2  C   UNL     1       2.153   7.944  19.132  0.00  0.00    +0.000 C 
ATOM      3  O   UNL     1       2.433   7.459  20.231  0.00  0.00    +0.000 OA
ATOM      4  N   UNL     1       1.294   9.035  19.017  0.00  0.00    +0.000 N 
ATOM      5  H   UNL     1       2.138   7.800  17.094  0.00  0.00    +0.000 HD
ATOM      6  H   UNL     1       1.537   9.716  18.298  0.00  0.00    +0.000 HD
ENDROOT
BRANCH   1  10
ATOM      7  C   UNL     1       7.217   5.755  17.161  0.00  0.00    +0.000 C 
ATOM      8  C   UNL     1       5.755   5.521  17.398  0.00  0.00    +0.000 A 
ATOM      9  C   UNL     1       4.878   6.587  17.520  0.00  0.00    +0.000 A 
ATOM     10  C   UNL     1       3.520   6.359  17.759  0.00  0.00    +0.000 A 
ATOM     11  C   UNL     1       3.068   5.007  17.829  0.00  0.00    +0.000 A 
ATOM     12  C   UNL     1       1.731   4.590  18.058  0.00  0.00    +0.000 A 
ATOM     13  C   UNL     1       1.387   3.236  18.131  0.00  0.00    +0.000 A 
ATOM     14  C   UNL     1       2.367   2.265  17.982  0.00  0.00    +0.000 A 
ATOM     15  C   UNL     1       3.685   2.657  17.763  0.00  0.00    +0.000 A 
ATOM     16  C   UNL     1       4.050   3.992  17.686  0.00  0.00    +0.000 A 
ATOM     17  N   UNL     1       5.349   4.241  17.479  0.00  0.00    +0.000 NA
ENDBRANCH   1  10
BRANCH   4  18
ATOM     18  C   UNL     1       0.666   9.558  20.192  0.00  0.00    +0.000 A 
ATOM     19  C   UNL     1       0.137   8.658  21.131  0.00  0.00    +0.000 A 
ATOM     20  C   UNL     1      -0.500   9.115  22.286  0.00  0.00    +0.000 A 
ATOM     21  C   UNL     1      -0.614  10.480  22.511  0.00  0.00    +0.000 A 
ATOM     22  F   UNL     1      -1.227  10.920  23.616  0.00  0.00    +0.000 F 
ATOM     23  C   UNL     1      -0.100  11.398  21.611  0.00  0.00    +0.000 A 
ATOM     24  C   UNL     1       0.555  10.942  20.454  0.00  0.00    +0.000 A 
BRANCH  24  25
ATOM     25  C   UNL     1       1.163  11.932  19.536  0.00  0.00    +0.000 C 
ATOM     26  O   UNL     1       1.948  12.772  19.946  0.00  0.00    +0.000 OA
BRANCH  25  27
ATOM     27  O   UNL     1       0.778  11.832  18.256  0.00  0.00    +0.000 OA
ATOM     28  H   UNL     1       0.953  10.982  17.820  0.00  0.00    +0.000 HD
ENDBRANCH  25  27
ENDBRANCH  24  25
ENDBRANCH   4  18
TORSDOF 4
ENDMDL
MODEL 2
REMARK VINA RESULT:      -8.1      2.004      2.603
REMARK  Name = 
REMARK  5 active torsions:
REMARK  status: ('A' for Active; 'I' for Inactive)
REMARK    1  A    between atoms: C_1  and  C_2
REMARK    2  A    between atoms: C_4  and  N_5
REMARK    3  A    between atoms: N_8  and  C_9
REMARK    4  A    between atoms: C_15  and  C_16
REMARK    5  A    between atoms: C_16  and  O_18
REMARK                            x       y       z     vdW  Elec       q    Type
REMARK                         _______ _______ _______ _____ _____    ______ ____
ROOT
ATOM      1  N   UNL     1       2.701   6.912  19.795  0.00  0.00    +0.000 N 
ATOM      2  C   UNL     1       1.842   7.973  19.548  0.00  0.00    +0.000 C 
ATOM      3  O   UNL     1       1.314   8.212  18.459  0.00  0.00    +0.000 OA
ATOM      4  N   UNL     1       1.632   8.796  20.652  0.00  0.00    +0.000 N 
ATOM      5  H   UNL     1       3.238   6.963  20.647  0.00  0.00    +0.000 HD
ATOM      6  H   UNL     1       1.557   8.320  21.551  0.00  0.00    +0.000 HD
ENDROOT
BRANCH   1  10
ATOM      7  C   UNL     1       5.499   5.524  15.936  0.00  0.00    +0.000 C 
ATOM      8  C   UNL     1       4.439   5.236  16.955  0.00  0.00    +0.000 A 
ATOM      9  C   UNL     1       4.054   6.202  17.871  0.00  0.00    +0.000 A 
ATOM     10  C   UNL     1       3.076   5.917  18.828  0.00  0.00    +0.000 A 
ATOM     11  C   UNL     1       2.467   4.627  18.803  0.00  0.00    +0.000 A 
ATOM     12  C   UNL     1       1.460   4.168  19.691  0.00  0.00    +0.000 A 
ATOM     13  C   UNL     1       0.936   2.874  19.601  0.00  0.00    +0.000 A 
ATOM     14  C   UNL     1       1.408   2.004  18.626  0.00  0.00    +0.000 A 
ATOM     15  C   UNL     1       2.400   2.436  17.752  0.00  0.00    +0.000 A 
ATOM     16  C   UNL     1       2.934   3.714  17.820  0.00  0.00    +0.000 A 
ATOM     17  N   UNL     1       3.887   4.008  16.929  0.00  0.00    +0.000 NA
ENDBRANCH   1  10
BRANCH   4  18
ATOM     18  C   UNL     1       0.846   9.982  20.503  0.00  0.00    +0.000 A 
ATOM     19  C   UNL     1       0.997  10.747  19.334  0.00  0.00    +0.000 A 
ATOM     20  C   UNL     1       0.267  11.922  19.144  0.00  0.00    +0.000 A 
ATOM     21  C   UNL     1      -0.622  12.341  20.124  0.00  0.00    +0.000 A 
ATOM     22  F   UNL     1      -1.321  13.469  19.945  0.00  0.00    +0.000 F 
ATOM     23  C   UNL     1      -0.803  11.611  21.286  0.00  0.00    +0.000 A 
ATOM     24  C   UNL     1      -0.080  10.421  21.476  0.00  0.00    +0.000 A 
BRANCH  24  25
ATOM     25  C   UNL     1      -0.335   9.611  22.689  0.00  0.00    +0.000 C 
ATOM     26  O   UNL     1      -0.056  10.034  23.799  0.00  0.00    +0.000 OA
BRANCH  25  27
ATOM     27  O   UNL     1      -0.873   8.404  22.463  0.00  0.00    +0.000 OA
ATOM     28  H   UNL     1      -0.248   7.667  22.364  0.00  0.00    +0.000 HD
ENDBRANCH  25  27
ENDBRANCH  24  25
ENDBRANCH   4  18
TORSDOF 4
ENDMDL
MODEL 3
REMARK VINA RESULT:      -8.0      1.598      1.652
REMARK  Name = 
REMARK  5 active torsions:
REMARK  status: ('A' for Active; 'I' for Inactive)
REMARK    1  A    between atoms: C_1  and  C_2
REMARK    2  A    between atoms: C_4  and  N_5
REMARK    3  A    between atoms: N_8  and  C_9
REMARK    4  A    between atoms: C_15  and  C_16
REMARK    5  A    between atoms: C_16  and  O_18
REMARK                            x       y       z     vdW  Elec       q    Type
REMARK                         _______ _______ _______ _____ _____    ______ ____
ROOT
ATOM      1  N   UNL     1       3.091   7.833  17.342  0.00  0.00    +0.000 N 
ATOM      2  C   UNL     1       2.311   8.548  18.238  0.00  0.00    +0.000 C 
ATOM      3  O   UNL     1       2.163   8.260  19.429  0.00  0.00    +0.000 OA
ATOM      4  N   UNL     1       1.660   9.640  17.670  0.00  0.00    +0.000 N 
ATOM      5  H   UNL     1       2.944   8.033  16.365  0.00  0.00    +0.000 HD
ATOM      6  H   UNL     1       2.196  10.165  16.979  0.00  0.00    +0.000 HD
ENDROOT
BRANCH   1  10
ATOM      7  C   UNL     1       7.497   5.749  18.289  0.00  0.00    +0.000 C 
ATOM      8  C   UNL     1       6.008   5.654  18.143  0.00  0.00    +0.000 A 
ATOM      9  C   UNL     1       5.258   6.766  17.793  0.00  0.00    +0.000 A 
ATOM     10  C   UNL     1       3.868   6.671  17.676  0.00  0.00    +0.000 A 
ATOM     11  C   UNL     1       3.262   5.396  17.888  0.00  0.00    +0.000 A 
ATOM     12  C   UNL     1       1.873   5.115  17.806  0.00  0.00    +0.000 A 
ATOM     13  C   UNL     1       1.369   3.834  18.051  0.00  0.00    +0.000 A 
ATOM     14  C   UNL     1       2.236   2.803  18.387  0.00  0.00    +0.000 A 
ATOM     15  C   UNL     1       3.599   3.063  18.477  0.00  0.00    +0.000 A 
ATOM     16  C   UNL     1       4.124   4.324  18.238  0.00  0.00    +0.000 A 
ATOM     17  N   UNL     1       5.450   4.449  18.363  0.00  0.00    +0.000 NA
ENDBRANCH   1  10
BRANCH   4  18
ATOM     18  C   UNL     1       0.744  10.402  18.465  0.00  0.00    +0.000 A 
ATOM     19  C   UNL     1      -0.433   9.782  18.915  0.00  0.00    +0.000 A 
ATOM     20  C   UNL     1      -1.367  10.484  19.680  0.00  0.00    +0.000 A 
ATOM     21  C   UNL     1      -1.130  11.813  20.000  0.00  0.00    +0.000 A 
ATOM     22  F   UNL     1      -2.027  12.488  20.730  0.00  0.00    +0.000 F 
ATOM     23  C   UNL     1       0.021  12.457  19.579  0.00  0.00    +0.000 A 
ATOM     24  C   UNL     1       0.971  11.750  18.821  0.00  0.00    +0.000 A 
BRANCH  24  25
ATOM     25  C   UNL     1       2.231  12.427  18.439  0.00  0.00    +0.000 C 
ATOM     26  O   UNL     1       2.840  13.122  19.236  0.00  0.00    +0.000 OA
BRANCH  25  27
ATOM     27  O   UNL     1       2.625  12.222  17.174  0.00  0.00    +0.000 OA
ATOM     28  H   UNL     1       2.168  11.514  16.691  0.00  0.00    +0.000 HD
ENDBRANCH  25  27
ENDBRANCH  24  25
ENDBRANCH   4  18
TORSDOF 4
ENDMDL
MODEL 4
REMARK VINA RESULT:      -8.0      0.924      1.194
REMARK  Name = 
REMARK  5 active torsions:
REMARK  status: ('A' for Active; 'I' for Inactive)
REMARK    1  A    between atoms: C_1  and  C_2
REMARK    2  A    between atoms: C_4  and  N_5
REMARK    3  A    between atoms: N_8  and  C_9
REMARK    4  A    between atoms: C_15  and  C_16
REMARK    5  A    between atoms: C_16  and  O_18
REMARK                            x       y       z     vdW  Elec       q    Type
REMARK                         _______ _______ _______ _____ _____    ______ ____
ROOT
ATOM      1  N   UNL     1       2.840   7.347  17.856  0.00  0.00    +0.000 N 
ATOM      2  C   UNL     1       2.265   7.823  19.025  0.00  0.00    +0.000 C 
ATOM      3  O   UNL     1       2.362   7.279  20.129  0.00  0.00    +0.000 OA
ATOM      4  N   UNL     1       1.518   8.986  18.852  0.00  0.00    +0.000 N 
ATOM      5  H   UNL     1       2.497   7.746  16.996  0.00  0.00    +0.000 HD
ATOM      6  H   UNL     1       1.904   9.667  18.199  0.00  0.00    +0.000 HD
ENDROOT
BRANCH   1  10
ATOM      7  C   UNL     1       7.322   5.279  17.324  0.00  0.00    +0.000 C 
ATOM      8  C   UNL     1       5.839   5.161  17.512  0.00  0.00    +0.000 A 
ATOM      9  C   UNL     1       5.040   6.291  17.572  0.00  0.00    +0.000 A 
ATOM     10  C   UNL     1       3.661   6.171  17.764  0.00  0.00    +0.000 A 
ATOM     11  C   UNL     1       3.107   4.859  17.855  0.00  0.00    +0.000 A 
ATOM     12  C   UNL     1       1.735   4.549  18.044  0.00  0.00    +0.000 A 
ATOM     13  C   UNL     1       1.289   3.227  18.142  0.00  0.00    +0.000 A 
ATOM     14  C   UNL     1       2.199   2.182  18.057  0.00  0.00    +0.000 A 
ATOM     15  C   UNL     1       3.548   2.469  17.878  0.00  0.00    +0.000 A 
ATOM     16  C   UNL     1       4.015   3.770  17.777  0.00  0.00    +0.000 A 
ATOM     17  N   UNL     1       5.335   3.917  17.613  0.00  0.00    +0.000 NA
ENDBRANCH   1  10
BRANCH   4  18
ATOM     18  C   UNL     1       0.790   9.523  19.961  0.00  0.00    +0.000 A 
ATOM     19  C   UNL     1       1.163   9.140  21.260  0.00  0.00    +0.000 A 
ATOM     20  C   UNL     1       0.477   9.622  22.377  0.00  0.00    +0.000 A 
ATOM     21  C   UNL     1      -0.590  10.492  22.202  0.00  0.00    +0.000 A 
ATOM     22  F   UNL     1      -1.250  10.952  23.271  0.00  0.00    +0.000 F 
ATOM     23  C   UNL     1      -0.983  10.897  20.938  0.00  0.00    +0.000 A 
ATOM     24  C   UNL     1      -0.286  10.425  19.811  0.00  0.00    +0.000 A 
BRANCH  24  25
ATOM     25  C   UNL     1      -0.670  10.922  18.471  0.00  0.00    +0.000 C 
ATOM     26  O   UNL     1      -1.200  10.187  17.654  0.00  0.00    +0.000 OA
BRANCH  25  27
ATOM     27  O   UNL     1      -0.381  12.211  18.238  0.00  0.00    +0.000 OA
ATOM     28  H   UNL     1       0.084  12.403  17.407  0.00  0.00    +0.000 HD
ENDBRANCH  25  27
ENDBRANCH  24  25
ENDBRANCH   4  18
TORSDOF 4
ENDMDL
MODEL 5
REMARK VINA RESULT:      -7.9      2.329      3.295
REMARK  Name = 
REMARK  5 active torsions:
REMARK  status: ('A' for Active; 'I' for Inactive)
REMARK    1  A    between atoms: C_1  and  C_2
REMARK    2  A    between atoms: C_4  and  N_5
REMARK    3  A    between atoms: N_8  and  C_9
REMARK    4  A    between atoms: C_15  and  C_16
REMARK    5  A    between atoms: C_16  and  O_18
REMARK                            x       y       z     vdW  Elec       q    Type
REMARK                         _______ _______ _______ _____ _____    ______ ____
ROOT
ATOM      1  N   UNL     1       2.240   7.935  17.944  0.00  0.00    +0.000 N 
ATOM      2  C   UNL     1       1.555   8.907  18.658  0.00  0.00    +0.000 C 
ATOM      3  O   UNL     1       1.380   8.892  19.879  0.00  0.00    +0.000 OA
ATOM      4  N   UNL     1       1.035   9.926  17.863  0.00  0.00    +0.000 N 
ATOM      5  H   UNL     1       2.113   7.943  16.945  0.00  0.00    +0.000 HD
ATOM      6  H   UNL     1       1.626  10.230  17.089  0.00  0.00    +0.000 HD
ENDROOT
BRANCH   1  10
ATOM      7  C   UNL     1       2.166   4.183  21.195  0.00  0.00    +0.000 C 
ATOM      8  C   UNL     1       2.841   4.955  20.102  0.00  0.00    +0.000 A 
ATOM      9  C   UNL     1       2.245   6.081  19.558  0.00  0.00    +0.000 A 
ATOM     10  C   UNL     1       2.875   6.785  18.527  0.00  0.00    +0.000 A 
ATOM     11  C   UNL     1       4.156   6.331  18.089  0.00  0.00    +0.000 A 
ATOM     12  C   UNL     1       4.939   6.922  17.064  0.00  0.00    +0.000 A 
ATOM     13  C   UNL     1       6.178   6.392  16.690  0.00  0.00    +0.000 A 
ATOM     14  C   UNL     1       6.665   5.258  17.325  0.00  0.00    +0.000 A 
ATOM     15  C   UNL     1       5.906   4.662  18.328  0.00  0.00    +0.000 A 
ATOM     16  C   UNL     1       4.676   5.170  18.718  0.00  0.00    +0.000 A 
ATOM     17  N   UNL     1       4.040   4.504  19.689  0.00  0.00    +0.000 NA
ENDBRANCH   1  10
BRANCH   4  18
ATOM     18  C   UNL     1       0.221  10.938  18.464  0.00  0.00    +0.000 A 
ATOM     19  C   UNL     1      -1.118  10.636  18.763  0.00  0.00    +0.000 A 
ATOM     20  C   UNL     1      -1.960  11.591  19.336  0.00  0.00    +0.000 A 
ATOM     21  C   UNL     1      -1.469  12.858  19.614  0.00  0.00    +0.000 A 
ATOM     22  F   UNL     1      -2.276  13.776  20.160  0.00  0.00    +0.000 F 
ATOM     23  C   UNL     1      -0.154  13.192  19.340  0.00  0.00    +0.000 A 
ATOM     24  C   UNL     1       0.702  12.230  18.776  0.00  0.00    +0.000 A 
BRANCH  24  25
ATOM     25  C   UNL     1       2.124  12.575  18.555  0.00  0.00    +0.000 C 
ATOM     26  O   UNL     1       2.765  13.181  19.399  0.00  0.00    +0.000 OA
BRANCH  25  27
ATOM     27  O   UNL     1       2.627  12.185  17.374  0.00  0.00    +0.000 OA
ATOM     28  H   UNL     1       3.553  12.424  17.202  0.00  0.00    +0.000 HD
ENDBRANCH  25  27
ENDBRANCH  24  25
ENDBRANCH   4  18
TORSDOF 4
ENDMDL
MODEL 6
REMARK VINA RESULT:      -7.9      2.456      3.118
REMARK  Name = 
REMARK  5 active torsions:
REMARK  status: ('A' for Active; 'I' for Inactive)
REMARK    1  A    between atoms: C_1  and  C_2
REMARK    2  A    between atoms: C_4  and  N_5
REMARK    3  A    between atoms: N_8  and  C_9
REMARK    4  A    between atoms: C_15  and  C_16
REMARK    5  A    between atoms: C_16  and  O_18
REMARK                            x       y       z     vdW  Elec       q    Type
REMARK                         _______ _______ _______ _____ _____    ______ ____
ROOT
ATOM      1  N   UNL     1       1.835   7.800  19.580  0.00  0.00    +0.000 N 
ATOM      2  C   UNL     1       1.569   9.039  19.017  0.00  0.00    +0.000 C 
ATOM      3  O   UNL     1       1.933   9.394  17.892  0.00  0.00    +0.000 OA
ATOM      4  N   UNL     1       0.858   9.897  19.853  0.00  0.00    +0.000 N 
ATOM      5  H   UNL     1       1.688   7.722  20.574  0.00  0.00    +0.000 HD
ATOM      6  H   UNL     1       0.127   9.461  20.416  0.00  0.00    +0.000 HD
ENDROOT
BRANCH   1  10
ATOM      7  C   UNL     1       5.189   6.305  16.239  0.00  0.00    +0.000 C 
ATOM      8  C   UNL     1       4.180   6.005  17.306  0.00  0.00    +0.000 A 
ATOM      9  C   UNL     1       3.472   7.026  17.919  0.00  0.00    +0.000 A 
ATOM     10  C   UNL     1       2.545   6.736  18.925  0.00  0.00    +0.000 A 
ATOM     11  C   UNL     1       2.327   5.367  19.263  0.00  0.00    +0.000 A 
ATOM     12  C   UNL     1       1.426   4.890  20.250  0.00  0.00    +0.000 A 
ATOM     13  C   UNL     1       1.295   3.525  20.527  0.00  0.00    +0.000 A 
ATOM     14  C   UNL     1       2.063   2.603  19.829  0.00  0.00    +0.000 A 
ATOM     15  C   UNL     1       2.956   3.054  18.862  0.00  0.00    +0.000 A 
ATOM     16  C   UNL     1       3.103   4.401  18.569  0.00  0.00    +0.000 A 
ATOM     17  N   UNL     1       3.999   4.710  17.625  0.00  0.00    +0.000 NA
ENDBRANCH   1  10
BRANCH   4  18
ATOM     18  C   UNL     1       0.607  11.240  19.429  0.00  0.00    +0.000 A 
ATOM     19  C   UNL     1       1.507  12.247  19.814  0.00  0.00    +0.000 A 
ATOM     20  C   UNL     1       1.301  13.577  19.440  0.00  0.00    +0.000 A 
ATOM     21  C   UNL     1       0.190  13.910  18.679  0.00  0.00    +0.000 A 
ATOM     22  F   UNL     1      -0.011  15.185  18.324  0.00  0.00    +0.000 F 
ATOM     23  C   UNL     1      -0.717  12.945  18.276  0.00  0.00    +0.000 A 
ATOM     24  C   UNL     1      -0.506  11.603  18.638  0.00  0.00    +0.000 A 
BRANCH  24  25
ATOM     25  C   UNL     1      -1.443  10.570  18.140  0.00  0.00    +0.000 C 
ATOM     26  O   UNL     1      -2.559  10.449  18.617  0.00  0.00    +0.000 OA
BRANCH  25  27
ATOM     27  O   UNL     1      -0.964   9.795  17.156  0.00  0.00    +0.000 OA
ATOM     28  H   UNL     1      -0.110   9.365  17.326  0.00  0.00    +0.000 HD
ENDBRANCH  25  27
ENDBRANCH  24  25
ENDBRANCH   4  18
TORSDOF 4
ENDMDL
MODEL 7
REMARK VINA RESULT:      -7.9      1.915      2.976
REMARK  Name = 
REMARK  5 active torsions:
REMARK  status: ('A' for Active; 'I' for Inactive)
REMARK    1  A    between atoms: C_1  and  C_2
REMARK    2  A    between atoms: C_4  and  N_5
REMARK    3  A    between atoms: N_8  and  C_9
REMARK    4  A    between atoms: C_15  and  C_16
REMARK    5  A    between atoms: C_16  and  O_18
REMARK                            x       y       z     vdW  Elec       q    Type
REMARK                         _______ _______ _______ _____ _____    ______ ____
ROOT
ATOM      1  N   UNL     1       2.520   7.222  20.411  0.00  0.00    +0.000 N 
ATOM      2  C   UNL     1       1.379   7.893  20.825  0.00  0.00    +0.000 C 
ATOM      3  O   UNL     1       0.269   7.373  20.964  0.00  0.00    +0.000 OA
ATOM      4  N   UNL     1       1.578   9.252  21.055  0.00  0.00    +0.000 N 
ATOM      5  H   UNL     1       3.294   7.798  20.118  0.00  0.00    +0.000 HD
ATOM      6  H   UNL     1       2.464   9.502  21.494  0.00  0.00    +0.000 HD
ENDROOT
BRANCH   1  10
ATOM      7  C   UNL     1       1.396   2.535  21.599  0.00  0.00    +0.000 C 
ATOM      8  C   UNL     1       2.035   3.537  20.685  0.00  0.00    +0.000 A 
ATOM      9  C   UNL     1       2.000   4.890  20.982  0.00  0.00    +0.000 A 
ATOM     10  C   UNL     1       2.585   5.817  20.115  0.00  0.00    +0.000 A 
ATOM     11  C   UNL     1       3.245   5.324  18.950  0.00  0.00    +0.000 A 
ATOM     12  C   UNL     1       3.893   6.116  17.967  0.00  0.00    +0.000 A 
ATOM     13  C   UNL     1       4.497   5.541  16.843  0.00  0.00    +0.000 A 
ATOM     14  C   UNL     1       4.466   4.164  16.671  0.00  0.00    +0.000 A 
ATOM     15  C   UNL     1       3.829   3.373  17.622  0.00  0.00    +0.000 A 
ATOM     16  C   UNL     1       3.224   3.919  18.744  0.00  0.00    +0.000 A 
ATOM     17  N   UNL     1       2.638   3.056  19.582  0.00  0.00    +0.000 NA
ENDBRANCH   1  10
BRANCH   4  18
ATOM     18  C   UNL     1       0.457  10.077  21.390  0.00  0.00    +0.000 A 
ATOM     19  C   UNL     1      -0.031  10.048  22.706  0.00  0.00    +0.000 A 
ATOM     20  C   UNL     1      -1.131  10.821  23.083  0.00  0.00    +0.000 A 
ATOM     21  C   UNL     1      -1.753  11.631  22.142  0.00  0.00    +0.000 A 
ATOM     22  F   UNL     1      -2.810  12.370  22.501  0.00  0.00    +0.000 F 
ATOM     23  C   UNL     1      -1.297  11.691  20.837  0.00  0.00    +0.000 A 
ATOM     24  C   UNL     1      -0.181  10.925  20.457  0.00  0.00    +0.000 A 
BRANCH  24  25
ATOM     25  C   UNL     1       0.342  11.053  19.078  0.00  0.00    +0.000 C 
ATOM     26  O   UNL     1       1.536  11.183  18.866  0.00  0.00    +0.000 OA
BRANCH  25  27
ATOM     27  O   UNL     1      -0.589  11.024  18.113  0.00  0.00    +0.000 OA
ATOM     28  H   UNL     1      -0.802  11.876  17.697  0.00  0.00    +0.000 HD
ENDBRANCH  25  27
ENDBRANCH  24  25
ENDBRANCH   4  18
TORSDOF 4
ENDMDL
MODEL 8
REMARK VINA RESULT:      -7.9      1.026      2.795
REMARK  Name = 
REMARK  5 active torsions:
REMARK  status: ('A' for Active; 'I' for Inactive)
REMARK    1  A    between atoms: C_1  and  C_2
REMARK    2  A    between atoms: C_4  and  N_5
REMARK    3  A    between atoms: N_8  and  C_9
REMARK    4  A    between atoms: C_15  and  C_16
REMARK    5  A    between atoms: C_16  and  O_18
REMARK                            x       y       z     vdW  Elec       q    Type
REMARK                         _______ _______ _______ _____ _____    ______ ____
ROOT
ATOM      1  N   UNL     1       2.781   7.287  18.062  0.00  0.00    +0.000 N 
ATOM      2  C   UNL     1       2.125   7.681  19.219  0.00  0.00    +0.000 C 
ATOM      3  O   UNL     1       1.918   6.953  20.194  0.00  0.00    +0.000 OA
ATOM      4  N   UNL     1       1.676   8.999  19.189  0.00  0.00    +0.000 N 
ATOM      5  H   UNL     1       2.680   7.894  17.264  0.00  0.00    +0.000 HD
ATOM      6  H   UNL     1       2.301   9.670  18.742  0.00  0.00    +0.000 HD
ENDROOT
BRANCH   1  10
ATOM      7  C   UNL     1       2.215   2.361  17.793  0.00  0.00    +0.000 C 
ATOM      8  C   UNL     1       3.073   3.588  17.705  0.00  0.00    +0.000 A 
ATOM      9  C   UNL     1       2.540   4.844  17.944  0.00  0.00    +0.000 A 
ATOM     10  C   UNL     1       3.345   5.983  17.842  0.00  0.00    +0.000 A 
ATOM     11  C   UNL     1       4.725   5.804  17.528  0.00  0.00    +0.000 A 
ATOM     12  C   UNL     1       5.685   6.840  17.390  0.00  0.00    +0.000 A 
ATOM     13  C   UNL     1       7.016   6.567  17.058  0.00  0.00    +0.000 A 
ATOM     14  C   UNL     1       7.422   5.255  16.851  0.00  0.00    +0.000 A 
ATOM     15  C   UNL     1       6.492   4.228  16.977  0.00  0.00    +0.000 A 
ATOM     16  C   UNL     1       5.167   4.473  17.306  0.00  0.00    +0.000 A 
ATOM     17  N   UNL     1       4.369   3.403  17.390  0.00  0.00    +0.000 NA
ENDBRANCH   1  10
BRANCH   4  18
ATOM     18  C   UNL     1       0.896   9.499  20.280  0.00  0.00    +0.000 A 
ATOM     19  C   UNL     1       1.133   8.988  21.566  0.00  0.00    +0.000 A 
ATOM     20  C   UNL     1       0.391   9.429  22.664  0.00  0.00    +0.000 A 
ATOM     21  C   UNL     1      -0.597  10.386  22.481  0.00  0.00    +0.000 A 
ATOM     22  F   UNL     1      -1.313  10.807  23.532  0.00  0.00    +0.000 F 
ATOM     23  C   UNL     1      -0.856  10.918  21.230  0.00  0.00    +0.000 A 
ATOM     24  C   UNL     1      -0.102  10.487  20.124  0.00  0.00    +0.000 A 
BRANCH  24  25
ATOM     25  C   UNL     1      -0.338  11.116  18.805  0.00  0.00    +0.000 C 
ATOM     26  O   UNL     1      -0.356  12.329  18.679  0.00  0.00    +0.000 OA
BRANCH  25  27
ATOM     27  O   UNL     1      -0.535  10.257  17.794  0.00  0.00    +0.000 OA
ATOM     28  H   UNL     1       0.264   9.920  17.356  0.00  0.00    +0.000 HD
ENDBRANCH  25  27
ENDBRANCH  24  25
ENDBRANCH   4  18
TORSDOF 4
ENDMDL
MODEL 9
REMARK VINA RESULT:      -7.8      3.422      7.567
REMARK  Name = 
REMARK  5 active torsions:
REMARK  status: ('A' for Active; 'I' for Inactive)
REMARK    1  A    between atoms: C_1  and  C_2
REMARK    2  A    between atoms: C_4  and  N_5
REMARK    3  A    between atoms: N_8  and  C_9
REMARK    4  A    between atoms: C_15  and  C_16
REMARK    5  A    between atoms: C_16  and  O_18
REMARK                            x       y       z     vdW  Elec       q    Type
REMARK                         _______ _______ _______ _____ _____    ______ ____
ROOT
ATOM      1  N   UNL     1       1.670   9.699  17.794  0.00  0.00    +0.000 N 
ATOM      2  C   UNL     1       2.087   8.504  18.362  0.00  0.00    +0.000 C 
ATOM      3  O   UNL     1       1.835   8.148  19.516  0.00  0.00    +0.000 OA
ATOM      4  N   UNL     1       2.862   7.718  17.513  0.00  0.00    +0.000 N 
ATOM      5  H   UNL     1       2.130   9.970  16.939  0.00  0.00    +0.000 HD
ATOM      6  H   UNL     1       2.575   7.706  16.534  0.00  0.00    +0.000 HD
ENDROOT
BRANCH   1  10
ATOM      7  C   UNL     1       1.294  13.631  20.801  0.00  0.00    +0.000 C 
ATOM      8  C   UNL     1       0.669  12.598  19.912  0.00  0.00    +0.000 A 
ATOM      9  C   UNL     1       1.447  11.631  19.296  0.00  0.00    +0.000 A 
ATOM     10  C   UNL     1       0.857  10.682  18.455  0.00  0.00    +0.000 A 
ATOM     11  C   UNL     1      -0.560  10.720  18.289  0.00  0.00    +0.000 A 
ATOM     12  C   UNL     1      -1.324   9.838  17.483  0.00  0.00    +0.000 A 
ATOM     13  C   UNL     1      -2.712   9.967  17.366  0.00  0.00    +0.000 A 
ATOM     14  C   UNL     1      -3.372  10.981  18.047  0.00  0.00    +0.000 A 
ATOM     15  C   UNL     1      -2.636  11.859  18.838  0.00  0.00    +0.000 A 
ATOM     16  C   UNL     1      -1.260  11.751  18.970  0.00  0.00    +0.000 A 
ATOM     17  N   UNL     1      -0.666  12.659  19.753  0.00  0.00    +0.000 NA
ENDBRANCH   1  10
BRANCH   4  18
ATOM     18  C   UNL     1       3.438   6.506  18.011  0.00  0.00    +0.000 A 
ATOM     19  C   UNL     1       2.670   5.695  18.861  0.00  0.00    +0.000 A 
ATOM     20  C   UNL     1       3.189   4.510  19.388  0.00  0.00    +0.000 A 
ATOM     21  C   UNL     1       4.484   4.129  19.069  0.00  0.00    +0.000 A 
ATOM     22  F   UNL     1       4.984   2.995  19.576  0.00  0.00    +0.000 F 
ATOM     23  C   UNL     1       5.271   4.899  18.229  0.00  0.00    +0.000 A 
ATOM     24  C   UNL     1       4.747   6.085  17.685  0.00  0.00    +0.000 A 
BRANCH  24  25
ATOM     25  C   UNL     1       5.571   6.862  16.732  0.00  0.00    +0.000 C 
ATOM     26  O   UNL     1       6.576   7.449  17.100  0.00  0.00    +0.000 OA
BRANCH  25  27
ATOM     27  O   UNL     1       5.122   6.873  15.469  0.00  0.00    +0.000 OA
ATOM     28  H   UNL     1       5.459   7.583  14.900  0.00  0.00    +0.000 HD
ENDBRANCH  25  27
ENDBRANCH  24  25
ENDBRANCH   4  18
TORSDOF 4
ENDMDL
