MODEL 1
REMARK VINA RESULT:      -7.8      0.000      0.000
REMARK  Name = 
REMARK  6 active torsions:
REMARK  status: ('A' for Active; 'I' for Inactive)
REMARK    1  A    between atoms: C_1  and  C_2
REMARK    2  A    between atoms: C_2  and  C_4
REMARK    3  A    between atoms: C_5  and  O_6
REMARK    4  A    between atoms: N_9  and  C_10
REMARK    5  A    between atoms: C_13  and  C_14
REMARK    6  A    between atoms: C_18  and  C_19
REMARK                            x       y       z     vdW  Elec       q    Type
REMARK                         _______ _______ _______ _____ _____    ______ ____
ROOT
ATOM      1  C   UNL     1       3.708   5.805  18.292  0.00  0.00    +0.000 C 
ATOM      2  C   UNL     1       3.901   6.863  17.497  0.00  0.00    +0.000 C 
ATOM      3  C   UNL     1       2.972   7.924  17.926  0.00  0.00    +0.000 C 
ATOM      4  O   UNL     1       2.946   9.032  17.417  0.00  0.00    +0.000 OA
ATOM      5  N   UNL     1       2.256   7.423  19.022  0.00  0.00    +0.000 N 
ATOM      6  C   UNL     1       2.567   6.014  19.270  0.00  0.00    +0.000 C 
ENDROOT
BRANCH   5   7
ATOM      7  C   UNL     1       1.448   8.253  19.863  0.00  0.00    +0.000 A 
ATOM      8  C   UNL     1       1.562   8.169  21.260  0.00  0.00    +0.000 A 
ATOM      9  C   UNL     1       0.921   9.083  22.107  0.00  0.00    +0.000 A 
ATOM     10  C   UNL     1       0.138  10.111  21.583  0.00  0.00    +0.000 A 
ATOM     11  C   UNL     1      -0.481  11.137  22.483  0.00  0.00    +0.000 C 
ATOM     12  C   UNL     1      -0.059  10.157  20.201  0.00  0.00    +0.000 A 
ATOM     13  C   UNL     1       0.573   9.230  19.362  0.00  0.00    +0.000 A 
ATOM     14  F   UNL     1       0.324   9.325  18.047  0.00  0.00    +0.000 F 
ENDBRANCH   5   7
BRANCH   6  15
ATOM     15  C   UNL     1       1.399   4.976  19.036  0.00  0.00    +0.000 C 
ATOM     16  C   UNL     1       1.459   4.048  17.805  0.00  0.00    +0.000 C 
ATOM     17  C   UNL     1       2.196   2.723  17.994  0.00  0.00    +0.000 C 
ATOM     18  C   UNL     1       1.851   2.001  19.289  0.00  0.00    +0.000 C 
ATOM     19  C   UNL     1       1.853   2.926  20.498  0.00  0.00    +0.000 C 
ATOM     20  C   UNL     1       0.974   4.145  20.264  0.00  0.00    +0.000 C 
ENDBRANCH   6  15
BRANCH   1  22
ATOM     21  C   UNL     1       5.124   3.874  19.293  0.00  0.00    +0.000 C 
ATOM     22  C   UNL     1       4.568   4.608  18.109  0.00  0.00    +0.000 C 
ATOM     23  O   UNL     1       4.794   4.205  16.964  0.00  0.00    +0.000 OA
ENDBRANCH   1  22
BRANCH   2  24
ATOM     24  O   UNL     1       4.810   7.024  16.485  0.00  0.00    +0.000 OA
ATOM     25  H   UNL     1       4.577   7.852  16.010  0.00  0.00    +0.000 HD
ENDBRANCH   2  24
TORSDOF 4
ENDMDL
MODEL 2
REMARK VINA RESULT:      -7.5      3.755      6.826
REMARK  Name = 
REMARK  6 active torsions:
REMARK  status: ('A' for Active; 'I' for Inactive)
REMARK    1  A    between atoms: C_1  and  C_2
REMARK    2  A    between atoms: C_2  and  C_4
REMARK    3  A    between atoms: C_5  and  O_6
REMARK    4  A    between atoms: N_9  and  C_10
REMARK    5  A    between atoms: C_13  and  C_14
REMARK    6  A    between atoms: C_18  and  C_19
REMARK                            x       y       z     vdW  Elec       q    Type
REMARK                         _______ _______ _______ _____ _____    ______ ____
ROOT
ATOM      1  C   UNL     1       3.311   3.030  19.579  0.00  0.00    +0.000 C 
ATOM      2  C   UNL     1       2.499   2.508  18.654  0.00  0.00    +0.000 C 
ATOM      3  C   UNL     1       3.038   2.863  17.328  0.00  0.00    +0.000 C 
ATOM      4  O   UNL     1       2.537   2.486  16.283  0.00  0.00    +0.000 OA
ATOM      5  N   UNL     1       4.213   3.595  17.548  0.00  0.00    +0.000 N 
ATOM      6  C   UNL     1       4.421   3.867  18.972  0.00  0.00    +0.000 C 
ENDROOT
BRANCH   5   7
ATOM      7  C   UNL     1       5.147   3.891  16.504  0.00  0.00    +0.000 A 
ATOM      8  C   UNL     1       4.710   4.000  15.174  0.00  0.00    +0.000 A 
ATOM      9  C   UNL     1       5.556   4.459  14.156  0.00  0.00    +0.000 A 
ATOM     10  C   UNL     1       6.873   4.823  14.436  0.00  0.00    +0.000 A 
ATOM     11  C   UNL     1       7.754   5.392  13.364  0.00  0.00    +0.000 C 
ATOM     12  C   UNL     1       7.351   4.639  15.734  0.00  0.00    +0.000 A 
ATOM     13  C   UNL     1       6.503   4.164  16.743  0.00  0.00    +0.000 A 
ATOM     14  F   UNL     1       7.036   3.996  17.963  0.00  0.00    +0.000 F 
ENDBRANCH   5   7
BRANCH   6  15
ATOM     15  C   UNL     1       4.330   5.378  19.427  0.00  0.00    +0.000 C 
ATOM     16  C   UNL     1       5.209   6.427  18.715  0.00  0.00    +0.000 C 
ATOM     17  C   UNL     1       4.608   7.077  17.470  0.00  0.00    +0.000 C 
ATOM     18  C   UNL     1       3.156   7.504  17.634  0.00  0.00    +0.000 C 
ATOM     19  C   UNL     1       2.296   6.431  18.287  0.00  0.00    +0.000 C 
ATOM     20  C   UNL     1       2.909   5.952  19.595  0.00  0.00    +0.000 C 
ENDBRANCH   6  15
BRANCH   1  22
ATOM     21  C   UNL     1       1.805   3.344  21.669  0.00  0.00    +0.000 C 
ATOM     22  C   UNL     1       3.024   2.766  21.012  0.00  0.00    +0.000 C 
ATOM     23  O   UNL     1       3.788   2.037  21.650  0.00  0.00    +0.000 OA
ENDBRANCH   1  22
BRANCH   2  24
ATOM     24  O   UNL     1       1.384   1.731  18.827  0.00  0.00    +0.000 OA
ATOM     25  H   UNL     1       0.652   2.152  18.325  0.00  0.00    +0.000 HD
ENDBRANCH   2  24
TORSDOF 4
ENDMDL
MODEL 3
REMARK VINA RESULT:      -7.3      1.020      1.388
REMARK  Name = 
REMARK  6 active torsions:
REMARK  status: ('A' for Active; 'I' for Inactive)
REMARK    1  A    between atoms: C_1  and  C_2
REMARK    2  A    between atoms: C_2  and  C_4
REMARK    3  A    between atoms: C_5  and  O_6
REMARK    4  A    between atoms: N_9  and  C_10
REMARK    5  A    between atoms: C_13  and  C_14
REMARK    6  A    between atoms: C_18  and  C_19
REMARK                            x       y       z     vdW  Elec       q    Type
REMARK                         _______ _______ _______ _____ _____    ______ ____
ROOT
ATOM      1  C   UNL     1       3.726   5.564  18.242  0.00  0.00    +0.000 C 
ATOM      2  C   UNL     1       3.958   6.552  17.372  0.00  0.00    +0.000 C 
ATOM      3  C   UNL     1       3.114   7.698  17.757  0.00  0.00    +0.000 C 
ATOM      4  O   UNL     1       3.142   8.770  17.175  0.00  0.00    +0.000 OA
ATOM      5  N   UNL     1       2.407   7.317  18.905  0.00  0.00    +0.000 N 
ATOM      6  C   UNL     1       2.636   5.910  19.238  0.00  0.00    +0.000 C 
ENDROOT
BRANCH   5   7
ATOM      7  C   UNL     1       1.683   8.251  19.713  0.00  0.00    +0.000 A 
ATOM      8  C   UNL     1       1.195   9.443  19.152  0.00  0.00    +0.000 A 
ATOM      9  C   UNL     1       0.336  10.294  19.861  0.00  0.00    +0.000 A 
ATOM     10  C   UNL     1      -0.062   9.980  21.160  0.00  0.00    +0.000 A 
ATOM     11  C   UNL     1      -1.045  10.845  21.889  0.00  0.00    +0.000 C 
ATOM     12  C   UNL     1       0.482   8.846  21.766  0.00  0.00    +0.000 A 
ATOM     13  C   UNL     1       1.352   8.009  21.056  0.00  0.00    +0.000 A 
ATOM     14  F   UNL     1       1.849   6.947  21.707  0.00  0.00    +0.000 F 
ENDBRANCH   5   7
BRANCH   6  15
ATOM     15  C   UNL     1       1.396   4.938  19.109  0.00  0.00    +0.000 C 
ATOM     16  C   UNL     1       1.334   3.960  17.918  0.00  0.00    +0.000 C 
ATOM     17  C   UNL     1       1.999   2.601  18.126  0.00  0.00    +0.000 C 
ATOM     18  C   UNL     1       1.681   1.954  19.467  0.00  0.00    +0.000 C 
ATOM     19  C   UNL     1       1.804   2.924  20.634  0.00  0.00    +0.000 C 
ATOM     20  C   UNL     1       0.988   4.186  20.392  0.00  0.00    +0.000 C 
ENDBRANCH   6  15
BRANCH   1  22
ATOM     21  C   UNL     1       5.030   3.599  19.328  0.00  0.00    +0.000 C 
ATOM     22  C   UNL     1       4.501   4.303  18.113  0.00  0.00    +0.000 C 
ATOM     23  O   UNL     1       4.679   3.824  16.990  0.00  0.00    +0.000 OA
ENDBRANCH   1  22
BRANCH   2  24
ATOM     24  O   UNL     1       4.840   6.587  16.324  0.00  0.00    +0.000 OA
ATOM     25  H   UNL     1       4.459   6.042  15.601  0.00  0.00    +0.000 HD
ENDBRANCH   2  24
TORSDOF 4
ENDMDL
MODEL 4
REMARK VINA RESULT:      -7.1      3.772      5.571
REMARK  Name = 
REMARK  6 active torsions:
REMARK  status: ('A' for Active; 'I' for Inactive)
REMARK    1  A    between atoms: C_1  and  C_2
REMARK    2  A    between atoms: C_2  and  C_4
REMARK    3  A    between atoms: C_5  and  O_6
REMARK    4  A    between atoms: N_9  and  C_10
REMARK    5  A    between atoms: C_13  and  C_14
REMARK    6  A    between atoms: C_18  and  C_19
REMARK                            x       y       z     vdW  Elec       q    Type
REMARK                         _______ _______ _______ _____ _____    ______ ____
ROOT
ATOM      1  C   UNL     1       4.753   3.470  17.897  0.00  0.00    +0.000 C 
ATOM      2  C   UNL     1       5.367   3.284  16.723  0.00  0.00    +0.000 C 
ATOM      3  C   UNL     1       6.202   4.470  16.459  0.00  0.00    +0.000 C 
ATOM      4  O   UNL     1       6.922   4.572  15.480  0.00  0.00    +0.000 OA
ATOM      5  N   UNL     1       6.050   5.330  17.555  0.00  0.00    +0.000 N 
ATOM      6  C   UNL     1       5.038   4.836  18.491  0.00  0.00    +0.000 C 
ENDROOT
BRANCH   5   7
ATOM      7  C   UNL     1       6.900   6.460  17.775  0.00  0.00    +0.000 A 
ATOM      8  C   UNL     1       6.681   7.658  17.075  0.00  0.00    +0.000 A 
ATOM      9  C   UNL     1       7.376   8.833  17.390  0.00  0.00    +0.000 A 
ATOM     10  C   UNL     1       8.319   8.847  18.417  0.00  0.00    +0.000 A 
ATOM     11  C   UNL     1       9.004  10.122  18.810  0.00  0.00    +0.000 C 
ATOM     12  C   UNL     1       8.615   7.647  19.065  0.00  0.00    +0.000 A 
ATOM     13  C   UNL     1       7.926   6.473  18.734  0.00  0.00    +0.000 A 
ATOM     14  F   UNL     1       8.274   5.353  19.386  0.00  0.00    +0.000 F 
ENDBRANCH   5   7
BRANCH   6  15
ATOM     15  C   UNL     1       3.722   5.698  18.636  0.00  0.00    +0.000 C 
ATOM     16  C   UNL     1       2.491   5.331  17.781  0.00  0.00    +0.000 C 
ATOM     17  C   UNL     1       1.531   4.307  18.385  0.00  0.00    +0.000 C 
ATOM     18  C   UNL     1       1.206   4.553  19.852  0.00  0.00    +0.000 C 
ATOM     19  C   UNL     1       2.443   4.858  20.686  0.00  0.00    +0.000 C 
ATOM     20  C   UNL     1       3.256   5.990  20.077  0.00  0.00    +0.000 C 
ENDBRANCH   6  15
BRANCH   1  22
ATOM     21  C   UNL     1       3.964   1.984  19.873  0.00  0.00    +0.000 C 
ATOM     22  C   UNL     1       3.888   2.386  18.430  0.00  0.00    +0.000 C 
ATOM     23  O   UNL     1       3.082   1.839  17.673  0.00  0.00    +0.000 OA
ENDBRANCH   1  22
BRANCH   2  24
ATOM     24  O   UNL     1       5.318   2.198  15.889  0.00  0.00    +0.000 OA
ATOM     25  H   UNL     1       6.051   1.597  16.148  0.00  0.00    +0.000 HD
ENDBRANCH   2  24
TORSDOF 4
ENDMDL
MODEL 5
REMARK VINA RESULT:      -6.9      2.234      4.024
REMARK  Name = 
REMARK  6 active torsions:
REMARK  status: ('A' for Active; 'I' for Inactive)
REMARK    1  A    between atoms: C_1  and  C_2
REMARK    2  A    between atoms: C_2  and  C_4
REMARK    3  A    between atoms: C_5  and  O_6
REMARK    4  A    between atoms: N_9  and  C_10
REMARK    5  A    between atoms: C_13  and  C_14
REMARK    6  A    between atoms: C_18  and  C_19
REMARK                            x       y       z     vdW  Elec       q    Type
REMARK                         _______ _______ _______ _____ _____    ______ ____
ROOT
ATOM      1  C   UNL     1       4.030   4.812  16.931  0.00  0.00    +0.000 C 
ATOM      2  C   UNL     1       3.014   4.125  17.462  0.00  0.00    +0.000 C 
ATOM      3  C   UNL     1       2.236   5.050  18.306  0.00  0.00    +0.000 C 
ATOM      4  O   UNL     1       1.216   4.722  18.888  0.00  0.00    +0.000 OA
ATOM      5  N   UNL     1       2.849   6.306  18.208  0.00  0.00    +0.000 N 
ATOM      6  C   UNL     1       4.093   6.241  17.438  0.00  0.00    +0.000 C 
ENDROOT
BRANCH   5   7
ATOM      7  C   UNL     1       2.232   7.508  18.683  0.00  0.00    +0.000 A 
ATOM      8  C   UNL     1       1.923   8.546  17.789  0.00  0.00    +0.000 A 
ATOM      9  C   UNL     1       1.165   9.656  18.183  0.00  0.00    +0.000 A 
ATOM     10  C   UNL     1       0.691   9.766  19.490  0.00  0.00    +0.000 A 
ATOM     11  C   UNL     1      -0.189  10.911  19.892  0.00  0.00    +0.000 C 
ATOM     12  C   UNL     1       1.062   8.788  20.416  0.00  0.00    +0.000 A 
ATOM     13  C   UNL     1       1.834   7.690  20.017  0.00  0.00    +0.000 A 
ATOM     14  F   UNL     1       2.167   6.799  20.964  0.00  0.00    +0.000 F 
ENDBRANCH   5   7
BRANCH   6  15
ATOM     15  C   UNL     1       5.433   6.523  18.227  0.00  0.00    +0.000 C 
ATOM     16  C   UNL     1       5.917   5.494  19.270  0.00  0.00    +0.000 C 
ATOM     17  C   UNL     1       6.812   4.372  18.746  0.00  0.00    +0.000 C 
ATOM     18  C   UNL     1       7.905   4.844  17.798  0.00  0.00    +0.000 C 
ATOM     19  C   UNL     1       7.393   5.814  16.743  0.00  0.00    +0.000 C 
ATOM     20  C   UNL     1       6.639   6.973  17.377  0.00  0.00    +0.000 C 
ENDBRANCH   6  15
BRANCH   1  22
ATOM     21  C   UNL     1       5.333   4.765  14.686  0.00  0.00    +0.000 C 
ATOM     22  C   UNL     1       4.942   4.121  15.984  0.00  0.00    +0.000 C 
ATOM     23  O   UNL     1       5.401   3.019  16.295  0.00  0.00    +0.000 OA
ENDBRANCH   1  22
BRANCH   2  24
ATOM     24  O   UNL     1       2.665   2.815  17.265  0.00  0.00    +0.000 OA
ATOM     25  H   UNL     1       3.256   2.266  17.825  0.00  0.00    +0.000 HD
ENDBRANCH   2  24
TORSDOF 4
ENDMDL
MODEL 6
REMARK VINA RESULT:      -6.9      2.310      3.998
REMARK  Name = 
REMARK  6 active torsions:
REMARK  status: ('A' for Active; 'I' for Inactive)
REMARK    1  A    between atoms: C_1  and  C_2
REMARK    2  A    between atoms: C_2  and  C_4
REMARK    3  A    between atoms: C_5  and  O_6
REMARK    4  A    between atoms: N_9  and  C_10
REMARK    5  A    between atoms: C_13  and  C_14
REMARK    6  A    between atoms: C_18  and  C_19
REMARK                            x       y       z     vdW  Elec       q    Type
REMARK                         _______ _______ _______ _____ _____    ______ ____
ROOT
ATOM      1  C   UNL     1       2.606   3.861  18.501  0.00  0.00    +0.000 C 
ATOM      2  C   UNL     1       1.937   3.813  19.658  0.00  0.00    +0.000 C 
ATOM      3  C   UNL     1       1.717   5.199  20.110  0.00  0.00    +0.000 C 
ATOM      4  O   UNL     1       1.089   5.479  21.116  0.00  0.00    +0.000 OA
ATOM      5  N   UNL     1       2.277   6.039  19.137  0.00  0.00    +0.000 N 
ATOM      6  C   UNL     1       2.987   5.276  18.109  0.00  0.00    +0.000 C 
ENDROOT
BRANCH   5   7
ATOM      7  C   UNL     1       2.036   7.449  19.102  0.00  0.00    +0.000 A 
ATOM      8  C   UNL     1       2.041   8.138  17.879  0.00  0.00    +0.000 A 
ATOM      9  C   UNL     1       1.638   9.477  17.785  0.00  0.00    +0.000 A 
ATOM     10  C   UNL     1       1.218  10.174  18.918  0.00  0.00    +0.000 A 
ATOM     11  C   UNL     1       0.708  11.579  18.807  0.00  0.00    +0.000 C 
ATOM     12  C   UNL     1       1.289   9.534  20.156  0.00  0.00    +0.000 A 
ATOM     13  C   UNL     1       1.709   8.200  20.243  0.00  0.00    +0.000 A 
ATOM     14  F   UNL     1       1.769   7.655  21.468  0.00  0.00    +0.000 F 
ENDBRANCH   5   7
BRANCH   6  15
ATOM     15  C   UNL     1       4.555   5.462  18.042  0.00  0.00    +0.000 C 
ATOM     16  C   UNL     1       5.433   4.264  17.624  0.00  0.00    +0.000 C 
ATOM     17  C   UNL     1       5.686   4.103  16.126  0.00  0.00    +0.000 C 
ATOM     18  C   UNL     1       6.044   5.400  15.416  0.00  0.00    +0.000 C 
ATOM     19  C   UNL     1       5.129   6.555  15.800  0.00  0.00    +0.000 C 
ATOM     20  C   UNL     1       5.058   6.724  17.311  0.00  0.00    +0.000 C 
ENDBRANCH   6  15
BRANCH   1  22
ATOM     21  C   UNL     1       3.659   1.488  18.485  0.00  0.00    +0.000 C 
ATOM     22  C   UNL     1       2.906   2.588  17.796  0.00  0.00    +0.000 C 
ATOM     23  O   UNL     1       2.499   2.435  16.641  0.00  0.00    +0.000 OA
ENDBRANCH   1  22
BRANCH   2  24
ATOM     24  O   UNL     1       1.462   2.719  20.332  0.00  0.00    +0.000 OA
ATOM     25  H   UNL     1       0.559   2.533  19.993  0.00  0.00    +0.000 HD
ENDBRANCH   2  24
TORSDOF 4
ENDMDL
MODEL 7
REMARK VINA RESULT:      -6.8      5.393      8.046
REMARK  Name = 
REMARK  6 active torsions:
REMARK  status: ('A' for Active; 'I' for Inactive)
REMARK    1  A    between atoms: C_1  and  C_2
REMARK    2  A    between atoms: C_2  and  C_4
REMARK    3  A    between atoms: C_5  and  O_6
REMARK    4  A    between atoms: N_9  and  C_10
REMARK    5  A    between atoms: C_13  and  C_14
REMARK    6  A    between atoms: C_18  and  C_19
REMARK                            x       y       z     vdW  Elec       q    Type
REMARK                         _______ _______ _______ _____ _____    ______ ____
ROOT
ATOM      1  C   UNL     1      -0.542  10.700  19.750  0.00  0.00    +0.000 C 
ATOM      2  C   UNL     1      -0.070  10.056  20.823  0.00  0.00    +0.000 C 
ATOM      3  C   UNL     1      -0.415  10.854  22.014  0.00  0.00    +0.000 C 
ATOM      4  O   UNL     1      -0.157  10.497  23.151  0.00  0.00    +0.000 OA
ATOM      5  N   UNL     1      -1.128  11.973  21.564  0.00  0.00    +0.000 N 
ATOM      6  C   UNL     1      -1.165  12.037  20.102  0.00  0.00    +0.000 C 
ENDROOT
BRANCH   5   7
ATOM      7  C   UNL     1      -1.847  12.840  22.448  0.00  0.00    +0.000 A 
ATOM      8  C   UNL     1      -1.166  13.553  23.449  0.00  0.00    +0.000 A 
ATOM      9  C   UNL     1      -1.803  14.538  24.214  0.00  0.00    +0.000 A 
ATOM     10  C   UNL     1      -3.148  14.841  24.006  0.00  0.00    +0.000 A 
ATOM     11  C   UNL     1      -3.809  15.951  24.767  0.00  0.00    +0.000 C 
ATOM     12  C   UNL     1      -3.864  14.082  23.078  0.00  0.00    +0.000 A 
ATOM     13  C   UNL     1      -3.223  13.088  22.328  0.00  0.00    +0.000 A 
ATOM     14  F   UNL     1      -3.978  12.388  21.468  0.00  0.00    +0.000 F 
ENDBRANCH   5   7
BRANCH   6  15
ATOM     15  C   UNL     1      -0.394  13.238  19.423  0.00  0.00    +0.000 C 
ATOM     16  C   UNL     1      -0.961  14.666  19.566  0.00  0.00    +0.000 C 
ATOM     17  C   UNL     1      -0.503  15.455  20.791  0.00  0.00    +0.000 C 
ATOM     18  C   UNL     1       0.991  15.359  21.066  0.00  0.00    +0.000 C 
ATOM     19  C   UNL     1       1.517  13.934  20.976  0.00  0.00    +0.000 C 
ATOM     20  C   UNL     1       1.130  13.285  19.656  0.00  0.00    +0.000 C 
ENDBRANCH   6  15
BRANCH   1  22
ATOM     21  C   UNL     1      -1.528  10.006  17.451  0.00  0.00    +0.000 C 
ATOM     22  C   UNL     1      -0.378  10.074  18.413  0.00  0.00    +0.000 C 
ATOM     23  O   UNL     1       0.730   9.636  18.090  0.00  0.00    +0.000 OA
ENDBRANCH   1  22
BRANCH   2  24
ATOM     24  O   UNL     1       0.577   8.851  20.887  0.00  0.00    +0.000 OA
ATOM     25  H   UNL     1       0.754   8.663  21.836  0.00  0.00    +0.000 HD
ENDBRANCH   2  24
TORSDOF 4
ENDMDL
MODEL 8
REMARK VINA RESULT:      -6.8      9.983     12.262
REMARK  Name = 
REMARK  6 active torsions:
REMARK  status: ('A' for Active; 'I' for Inactive)
REMARK    1  A    between atoms: C_1  and  C_2
REMARK    2  A    between atoms: C_2  and  C_4
REMARK    3  A    between atoms: C_5  and  O_6
REMARK    4  A    between atoms: N_9  and  C_10
REMARK    5  A    between atoms: C_13  and  C_14
REMARK    6  A    between atoms: C_18  and  C_19
REMARK                            x       y       z     vdW  Elec       q    Type
REMARK                         _______ _______ _______ _____ _____    ______ ____
ROOT
ATOM      1  C   UNL     1      10.661  16.086  19.053  0.00  0.00    +0.000 C 
ATOM      2  C   UNL     1      11.433  15.724  18.023  0.00  0.00    +0.000 C 
ATOM      3  C   UNL     1      11.246  14.278  17.806  0.00  0.00    +0.000 C 
ATOM      4  O   UNL     1      11.786  13.665  16.900  0.00  0.00    +0.000 OA
ATOM      5  N   UNL     1      10.309  13.840  18.752  0.00  0.00    +0.000 N 
ATOM      6  C   UNL     1       9.954  14.905  19.691  0.00  0.00    +0.000 C 
ENDROOT
BRANCH   5   7
ATOM      7  C   UNL     1       9.687  12.553  18.686  0.00  0.00    +0.000 A 
ATOM      8  C   UNL     1       8.628  12.323  17.792  0.00  0.00    +0.000 A 
ATOM      9  C   UNL     1       8.114  11.038  17.574  0.00  0.00    +0.000 A 
ATOM     10  C   UNL     1       8.641   9.937  18.248  0.00  0.00    +0.000 A 
ATOM     11  C   UNL     1       8.148   8.552  17.955  0.00  0.00    +0.000 C 
ATOM     12  C   UNL     1       9.633  10.157  19.206  0.00  0.00    +0.000 A 
ATOM     13  C   UNL     1      10.131  11.447  19.429  0.00  0.00    +0.000 A 
ATOM     14  F   UNL     1      11.071  11.585  20.376  0.00  0.00    +0.000 F 
ENDBRANCH   5   7
BRANCH   6  15
ATOM     15  C   UNL     1      10.394  14.703  21.196  0.00  0.00    +0.000 C 
ATOM     16  C   UNL     1      10.800  15.937  22.028  0.00  0.00    +0.000 C 
ATOM     17  C   UNL     1       9.671  16.655  22.766  0.00  0.00    +0.000 C 
ATOM     18  C   UNL     1       8.711  15.719  23.487  0.00  0.00    +0.000 C 
ATOM     19  C   UNL     1       8.279  14.540  22.627  0.00  0.00    +0.000 C 
ATOM     20  C   UNL     1       9.482  13.804  22.055  0.00  0.00    +0.000 C 
ENDBRANCH   6  15
BRANCH   1  22
ATOM     21  C   UNL     1       9.308  18.240  19.571  0.00  0.00    +0.000 C 
ATOM     22  C   UNL     1      10.618  17.518  19.445  0.00  0.00    +0.000 C 
ATOM     23  O   UNL     1      11.676  18.100  19.696  0.00  0.00    +0.000 OA
ENDBRANCH   1  22
BRANCH   2  24
ATOM     24  O   UNL     1      12.234  16.505  17.233  0.00  0.00    +0.000 OA
ATOM     25  H   UNL     1      13.052  15.992  17.046  0.00  0.00    +0.000 HD
ENDBRANCH   2  24
TORSDOF 4
ENDMDL
MODEL 9
REMARK VINA RESULT:      -6.8      4.174      7.232
REMARK  Name = 
REMARK  6 active torsions:
REMARK  status: ('A' for Active; 'I' for Inactive)
REMARK    1  A    between atoms: C_1  and  C_2
REMARK    2  A    between atoms: C_2  and  C_4
REMARK    3  A    between atoms: C_5  and  O_6
REMARK    4  A    between atoms: N_9  and  C_10
REMARK    5  A    between atoms: C_13  and  C_14
REMARK    6  A    between atoms: C_18  and  C_19
REMARK                            x       y       z     vdW  Elec       q    Type
REMARK                         _______ _______ _______ _____ _____    ______ ____
ROOT
ATOM      1  C   UNL     1       0.790   9.886  20.146  0.00  0.00    +0.000 C 
ATOM      2  C   UNL     1       0.833   9.582  21.448  0.00  0.00    +0.000 C 
ATOM      3  C   UNL     1      -0.040  10.531  22.161  0.00  0.00    +0.000 C 
ATOM      4  O   UNL     1      -0.242  10.475  23.362  0.00  0.00    +0.000 OA
ATOM      5  N   UNL     1      -0.601  11.377  21.195  0.00  0.00    +0.000 N 
ATOM      6  C   UNL     1      -0.038  11.126  19.867  0.00  0.00    +0.000 C 
ENDROOT
BRANCH   5   7
ATOM      7  C   UNL     1      -1.693  12.258  21.478  0.00  0.00    +0.000 A 
ATOM      8  C   UNL     1      -1.689  13.038  22.646  0.00  0.00    +0.000 A 
ATOM      9  C   UNL     1      -2.647  14.036  22.869  0.00  0.00    +0.000 A 
ATOM     10  C   UNL     1      -3.647  14.284  21.929  0.00  0.00    +0.000 A 
ATOM     11  C   UNL     1      -4.623  15.404  22.127  0.00  0.00    +0.000 C 
ATOM     12  C   UNL     1      -3.721  13.460  20.804  0.00  0.00    +0.000 A 
ATOM     13  C   UNL     1      -2.768  12.455  20.596  0.00  0.00    +0.000 A 
ATOM     14  F   UNL     1      -2.911  11.692  19.502  0.00  0.00    +0.000 F 
ENDBRANCH   5   7
BRANCH   6  15
ATOM     15  C   UNL     1       0.835  12.282  19.234  0.00  0.00    +0.000 C 
ATOM     16  C   UNL     1       0.126  13.428  18.482  0.00  0.00    +0.000 C 
ATOM     17  C   UNL     1      -0.308  14.623  19.328  0.00  0.00    +0.000 C 
ATOM     18  C   UNL     1       0.749  15.101  20.314  0.00  0.00    +0.000 C 
ATOM     19  C   UNL     1       1.395  13.958  21.085  0.00  0.00    +0.000 C 
ATOM     20  C   UNL     1       1.924  12.886  20.144  0.00  0.00    +0.000 C 
ENDBRANCH   6  15
BRANCH   1  22
ATOM     21  C   UNL     1       1.834   9.519  17.798  0.00  0.00    +0.000 C 
ATOM     22  C   UNL     1       1.544   9.037  19.189  0.00  0.00    +0.000 C 
ATOM     23  O   UNL     1       1.957   7.936  19.564  0.00  0.00    +0.000 OA
ENDBRANCH   1  22
BRANCH   2  24
ATOM     24  O   UNL     1       1.501   8.560  22.071  0.00  0.00    +0.000 OA
ATOM     25  H   UNL     1       1.436   8.715  23.039  0.00  0.00    +0.000 HD
ENDBRANCH   2  24
TORSDOF 4
ENDMDL
