MODEL 1
REMARK VINA RESULT:      -8.7      0.000      0.000
REMARK  Name = 
REMARK  11 active torsions:
REMARK  status: ('A' for Active; 'I' for Inactive)
REMARK    1  A    between atoms: C_1  and  O_2
REMARK    2  A    between atoms: O_2  and  C_3
REMARK    3  A    between atoms: C_6  and  C_7
REMARK    4  A    between atoms: C_15  and  C_16
REMARK    5  A    between atoms: C_20  and  O_21
REMARK    6  A    between atoms: O_21  and  C_22
REMARK    7  A    between atoms: C_22  and  C_23
REMARK    8  A    between atoms: C_23  and  C_24
REMARK    9  A    between atoms: C_24  and  N_25
REMARK   10  A    between atoms: N_25  and  C_26
REMARK   11  A    between atoms: N_25  and  C_27
REMARK                            x       y       z     vdW  Elec       q    Type
REMARK                         _______ _______ _______ _____ _____    ______ ____
ROOT
ATOM      1  C   UNL     1       1.986   6.639  19.780  0.00  0.00    +0.000 A 
ATOM      2  C   UNL     1       1.413   5.448  20.274  0.00  0.00    +0.000 A 
ATOM      3  C   UNL     1       1.874   4.211  19.764  0.00  0.00    +0.000 A 
ATOM      4  C   UNL     1       1.272   2.992  20.140  0.00  0.00    +0.000 A 
ATOM      5  C   UNL     1       1.716   1.783  19.584  0.00  0.00    +0.000 A 
ATOM      6  C   UNL     1       2.765   1.772  18.663  0.00  0.00    +0.000 A 
ATOM      7  C   UNL     1       3.384   2.962  18.298  0.00  0.00    +0.000 A 
ATOM      8  C   UNL     1       2.939   4.188  18.835  0.00  0.00    +0.000 A 
ATOM      9  C   UNL     1       3.507   5.405  18.432  0.00  0.00    +0.000 A 
ATOM     10  N   UNL     1       2.984   6.558  18.875  0.00  0.00    +0.000 NA
ENDROOT
BRANCH   1  14
ATOM     11  C   UNL     1       0.742  10.523  21.112  0.00  0.00    +0.000 A 
ATOM     12  C   UNL     1       0.975  10.311  19.734  0.00  0.00    +0.000 A 
ATOM     13  C   UNL     1       1.426   9.064  19.272  0.00  0.00    +0.000 A 
ATOM     14  C   UNL     1       1.621   8.014  20.183  0.00  0.00    +0.000 A 
ATOM     15  C   UNL     1       1.394   8.249  21.554  0.00  0.00    +0.000 A 
ATOM     16  C   UNL     1       0.974   9.485  22.010  0.00  0.00    +0.000 A 
BRANCH  11  18
ATOM     17  C   UNL     1      -0.732  11.833  22.528  0.00  0.00    +0.000 C 
ATOM     18  O   UNL     1       0.288  11.695  21.620  0.00  0.00    +0.000 OA
ENDBRANCH  11  18
ENDBRANCH   1  14
BRANCH   9  19
ATOM     19  C   UNL     1       4.658   5.497  17.541  0.00  0.00    +0.000 A 
ATOM     20  C   UNL     1       4.753   4.638  16.440  0.00  0.00    +0.000 A 
ATOM     21  C   UNL     1       5.829   4.741  15.569  0.00  0.00    +0.000 A 
ATOM     22  C   UNL     1       6.810   5.713  15.793  0.00  0.00    +0.000 A 
ATOM     23  C   UNL     1       6.747   6.561  16.911  0.00  0.00    +0.000 A 
ATOM     24  C   UNL     1       5.667   6.427  17.802  0.00  0.00    +0.000 A 
BRANCH  23  25
ATOM     25  O   UNL     1       7.745   7.468  17.082  0.00  0.00    +0.000 OA
BRANCH  25  26
ATOM     26  C   UNL     1       8.236   7.992  18.269  0.00  0.00    +0.000 C 
BRANCH  26  27
ATOM     27  C   UNL     1       8.483   9.498  18.150  0.00  0.00    +0.000 C 
BRANCH  27  28
ATOM     28  C   UNL     1       9.230  10.081  19.364  0.00  0.00    +0.000 C 
BRANCH  28  29
ATOM     29  N   UNL     1       9.764  11.439  19.095  0.00  0.00    +0.000 NA
ATOM     30  C   UNL     1      10.713  11.883  20.132  0.00  0.00    +0.000 C 
ATOM     31  C   UNL     1      10.434  11.463  17.783  0.00  0.00    +0.000 C 
ENDBRANCH  28  29
ENDBRANCH  27  28
ENDBRANCH  26  27
ENDBRANCH  25  26
ENDBRANCH  23  25
ENDBRANCH   9  19
TORSDOF 8
ENDMDL
MODEL 2
REMARK VINA RESULT:      -8.6      3.037      5.230
REMARK  Name = 
REMARK  11 active torsions:
REMARK  status: ('A' for Active; 'I' for Inactive)
REMARK    1  A    between atoms: C_1  and  O_2
REMARK    2  A    between atoms: O_2  and  C_3
REMARK    3  A    between atoms: C_6  and  C_7
REMARK    4  A    between atoms: C_15  and  C_16
REMARK    5  A    between atoms: C_20  and  O_21
REMARK    6  A    between atoms: O_21  and  C_22
REMARK    7  A    between atoms: C_22  and  C_23
REMARK    8  A    between atoms: C_23  and  C_24
REMARK    9  A    between atoms: C_24  and  N_25
REMARK   10  A    between atoms: N_25  and  C_26
REMARK   11  A    between atoms: N_25  and  C_27
REMARK                            x       y       z     vdW  Elec       q    Type
REMARK                         _______ _______ _______ _____ _____    ______ ____
ROOT
ATOM      1  C   UNL     1       2.178   6.928  19.684  0.00  0.00    +0.000 A 
ATOM      2  C   UNL     1       1.488   5.967  20.451  0.00  0.00    +0.000 A 
ATOM      3  C   UNL     1       2.036   4.666  20.561  0.00  0.00    +0.000 A 
ATOM      4  C   UNL     1       1.345   3.632  21.226  0.00  0.00    +0.000 A 
ATOM      5  C   UNL     1       1.888   2.339  21.280  0.00  0.00    +0.000 A 
ATOM      6  C   UNL     1       3.122   2.066  20.688  0.00  0.00    +0.000 A 
ATOM      7  C   UNL     1       3.827   3.079  20.048  0.00  0.00    +0.000 A 
ATOM      8  C   UNL     1       3.287   4.380  19.969  0.00  0.00    +0.000 A 
ATOM      9  C   UNL     1       3.953   5.400  19.273  0.00  0.00    +0.000 A 
ATOM     10  N   UNL     1       3.359   6.593  19.122  0.00  0.00    +0.000 NA
ENDROOT
BRANCH   1  14
ATOM     11  C   UNL     1       1.186  11.028  18.900  0.00  0.00    +0.000 A 
ATOM     12  C   UNL     1       0.775  10.443  20.120  0.00  0.00    +0.000 A 
ATOM     13  C   UNL     1       1.046   9.091  20.387  0.00  0.00    +0.000 A 
ATOM     14  C   UNL     1       1.751   8.324  19.447  0.00  0.00    +0.000 A 
ATOM     15  C   UNL     1       2.141   8.924  18.232  0.00  0.00    +0.000 A 
ATOM     16  C   UNL     1       1.852  10.248  17.960  0.00  0.00    +0.000 A 
BRANCH  11  18
ATOM     17  C   UNL     1       0.843  13.359  19.489  0.00  0.00    +0.000 C 
ATOM     18  O   UNL     1       0.974  12.331  18.589  0.00  0.00    +0.000 OA
ENDBRANCH  11  18
ENDBRANCH   1  14
BRANCH   9  19
ATOM     19  C   UNL     1       5.280   5.240  18.692  0.00  0.00    +0.000 A 
ATOM     20  C   UNL     1       6.413   5.527  19.461  0.00  0.00    +0.000 A 
ATOM     21  C   UNL     1       7.682   5.346  18.925  0.00  0.00    +0.000 A 
ATOM     22  C   UNL     1       7.818   4.869  17.617  0.00  0.00    +0.000 A 
ATOM     23  C   UNL     1       6.691   4.607  16.821  0.00  0.00    +0.000 A 
ATOM     24  C   UNL     1       5.413   4.821  17.366  0.00  0.00    +0.000 A 
BRANCH  23  25
ATOM     25  O   UNL     1       6.895   4.166  15.550  0.00  0.00    +0.000 OA
BRANCH  25  26
ATOM     26  C   UNL     1       6.500   4.759  14.361  0.00  0.00    +0.000 C 
BRANCH  26  27
ATOM     27  C   UNL     1       5.755   3.766  13.466  0.00  0.00    +0.000 C 
BRANCH  27  28
ATOM     28  C   UNL     1       6.531   3.416  12.182  0.00  0.00    +0.000 C 
BRANCH  28  29
ATOM     29  N   UNL     1       5.690   2.690  11.199  0.00  0.00    +0.000 NA
ATOM     30  C   UNL     1       5.880   1.231  11.270  0.00  0.00    +0.000 C 
ATOM     31  C   UNL     1       4.269   3.006  11.424  0.00  0.00    +0.000 C 
ENDBRANCH  28  29
ENDBRANCH  27  28
ENDBRANCH  26  27
ENDBRANCH  25  26
ENDBRANCH  23  25
ENDBRANCH   9  19
TORSDOF 8
ENDMDL
MODEL 3
REMARK VINA RESULT:      -8.5      2.864      4.951
REMARK  Name = 
REMARK  11 active torsions:
REMARK  status: ('A' for Active; 'I' for Inactive)
REMARK    1  A    between atoms: C_1  and  O_2
REMARK    2  A    between atoms: O_2  and  C_3
REMARK    3  A    between atoms: C_6  and  C_7
REMARK    4  A    between atoms: C_15  and  C_16
REMARK    5  A    between atoms: C_20  and  O_21
REMARK    6  A    between atoms: O_21  and  C_22
REMARK    7  A    between atoms: C_22  and  C_23
REMARK    8  A    between atoms: C_23  and  C_24
REMARK    9  A    between atoms: C_24  and  N_25
REMARK   10  A    between atoms: N_25  and  C_26
REMARK   11  A    between atoms: N_25  and  C_27
REMARK                            x       y       z     vdW  Elec       q    Type
REMARK                         _______ _______ _______ _____ _____    ______ ____
ROOT
ATOM      1  C   UNL     1       1.937   7.127  19.979  0.00  0.00    +0.000 A 
ATOM      2  C   UNL     1       1.328   6.044  20.647  0.00  0.00    +0.000 A 
ATOM      3  C   UNL     1       1.905   4.758  20.521  0.00  0.00    +0.000 A 
ATOM      4  C   UNL     1       1.288   3.618  21.079  0.00  0.00    +0.000 A 
ATOM      5  C   UNL     1       1.855   2.348  20.900  0.00  0.00    +0.000 A 
ATOM      6  C   UNL     1       3.041   2.199  20.179  0.00  0.00    +0.000 A 
ATOM      7  C   UNL     1       3.675   3.313  19.642  0.00  0.00    +0.000 A 
ATOM      8  C   UNL     1       3.108   4.596  19.798  0.00  0.00    +0.000 A 
ATOM      9  C   UNL     1       3.697   5.725  19.210  0.00  0.00    +0.000 A 
ATOM     10  N   UNL     1       3.073   6.910  19.282  0.00  0.00    +0.000 NA
ENDROOT
BRANCH   1  14
ATOM     11  C   UNL     1       0.372  11.118  20.150  0.00  0.00    +0.000 A 
ATOM     12  C   UNL     1       0.816  10.606  18.909  0.00  0.00    +0.000 A 
ATOM     13  C   UNL     1       1.374   9.320  18.828  0.00  0.00    +0.000 A 
ATOM     14  C   UNL     1       1.468   8.529  19.983  0.00  0.00    +0.000 A 
ATOM     15  C   UNL     1       1.031   9.062  21.213  0.00  0.00    +0.000 A 
ATOM     16  C   UNL     1       0.504  10.338  21.295  0.00  0.00    +0.000 A 
BRANCH  11  18
ATOM     17  C   UNL     1      -1.285  12.806  19.604  0.00  0.00    +0.000 C 
ATOM     18  O   UNL     1      -0.193  12.342  20.293  0.00  0.00    +0.000 OA
ENDBRANCH  11  18
ENDBRANCH   1  14
BRANCH   9  19
ATOM     19  C   UNL     1       4.975   5.690  18.509  0.00  0.00    +0.000 A 
ATOM     20  C   UNL     1       6.158   5.502  19.233  0.00  0.00    +0.000 A 
ATOM     21  C   UNL     1       7.376   5.435  18.569  0.00  0.00    +0.000 A 
ATOM     22  C   UNL     1       7.411   5.547  17.174  0.00  0.00    +0.000 A 
ATOM     23  C   UNL     1       6.237   5.768  16.436  0.00  0.00    +0.000 A 
ATOM     24  C   UNL     1       5.014   5.863  17.123  0.00  0.00    +0.000 A 
BRANCH  23  25
ATOM     25  O   UNL     1       6.345   5.890  15.086  0.00  0.00    +0.000 OA
BRANCH  25  26
ATOM     26  C   UNL     1       5.748   5.114  14.104  0.00  0.00    +0.000 C 
BRANCH  26  27
ATOM     27  C   UNL     1       6.629   3.920  13.729  0.00  0.00    +0.000 C 
BRANCH  27  28
ATOM     28  C   UNL     1       6.508   3.526  12.245  0.00  0.00    +0.000 C 
BRANCH  28  29
ATOM     29  N   UNL     1       5.399   2.570  12.007  0.00  0.00    +0.000 NA
ATOM     30  C   UNL     1       4.257   3.198  11.319  0.00  0.00    +0.000 C 
ATOM     31  C   UNL     1       5.881   1.432  11.206  0.00  0.00    +0.000 C 
ENDBRANCH  28  29
ENDBRANCH  27  28
ENDBRANCH  26  27
ENDBRANCH  25  26
ENDBRANCH  23  25
ENDBRANCH   9  19
TORSDOF 8
ENDMDL
MODEL 4
REMARK VINA RESULT:      -8.5      1.137      1.661
REMARK  Name = 
REMARK  11 active torsions:
REMARK  status: ('A' for Active; 'I' for Inactive)
REMARK    1  A    between atoms: C_1  and  O_2
REMARK    2  A    between atoms: O_2  and  C_3
REMARK    3  A    between atoms: C_6  and  C_7
REMARK    4  A    between atoms: C_15  and  C_16
REMARK    5  A    between atoms: C_20  and  O_21
REMARK    6  A    between atoms: O_21  and  C_22
REMARK    7  A    between atoms: C_22  and  C_23
REMARK    8  A    between atoms: C_23  and  C_24
REMARK    9  A    between atoms: C_24  and  N_25
REMARK   10  A    between atoms: N_25  and  C_26
REMARK   11  A    between atoms: N_25  and  C_27
REMARK                            x       y       z     vdW  Elec       q    Type
REMARK                         _______ _______ _______ _____ _____    ______ ____
ROOT
ATOM      1  C   UNL     1       1.999   7.079  19.897  0.00  0.00    +0.000 A 
ATOM      2  C   UNL     1       1.673   6.046  20.800  0.00  0.00    +0.000 A 
ATOM      3  C   UNL     1       2.347   4.806  20.683  0.00  0.00    +0.000 A 
ATOM      4  C   UNL     1       1.995   3.701  21.486  0.00  0.00    +0.000 A 
ATOM      5  C   UNL     1       2.645   2.469  21.318  0.00  0.00    +0.000 A 
ATOM      6  C   UNL     1       3.654   2.327  20.364  0.00  0.00    +0.000 A 
ATOM      7  C   UNL     1       4.028   3.412  19.579  0.00  0.00    +0.000 A 
ATOM      8  C   UNL     1       3.373   4.652  19.723  0.00  0.00    +0.000 A 
ATOM      9  C   UNL     1       3.691   5.741  18.898  0.00  0.00    +0.000 A 
ATOM     10  N   UNL     1       2.972   6.870  18.985  0.00  0.00    +0.000 NA
ENDROOT
BRANCH   1  14
ATOM     11  C   UNL     1       0.452  11.074  19.650  0.00  0.00    +0.000 A 
ATOM     12  C   UNL     1       0.367  10.378  20.878  0.00  0.00    +0.000 A 
ATOM     13  C   UNL     1       0.823   9.054  20.979  0.00  0.00    +0.000 A 
ATOM     14  C   UNL     1       1.392   8.427  19.860  0.00  0.00    +0.000 A 
ATOM     15  C   UNL     1       1.457   9.134  18.642  0.00  0.00    +0.000 A 
ATOM     16  C   UNL     1       0.984  10.429  18.537  0.00  0.00    +0.000 A 
BRANCH  11  18
ATOM     17  C   UNL     1       0.780  13.361  18.906  0.00  0.00    +0.000 C 
ATOM     18  O   UNL     1       0.048  12.358  19.490  0.00  0.00    +0.000 OA
ENDBRANCH  11  18
ENDBRANCH   1  14
BRANCH   9  19
ATOM     19  C   UNL     1       4.781   5.722  17.929  0.00  0.00    +0.000 A 
ATOM     20  C   UNL     1       4.782   4.767  16.906  0.00  0.00    +0.000 A 
ATOM     21  C   UNL     1       5.799   4.762  15.961  0.00  0.00    +0.000 A 
ATOM     22  C   UNL     1       6.815   5.722  16.032  0.00  0.00    +0.000 A 
ATOM     23  C   UNL     1       6.846   6.666  17.071  0.00  0.00    +0.000 A 
ATOM     24  C   UNL     1       5.825   6.643  18.039  0.00  0.00    +0.000 A 
BRANCH  23  25
ATOM     25  O   UNL     1       7.873   7.557  17.094  0.00  0.00    +0.000 OA
BRANCH  25  26
ATOM     26  C   UNL     1       7.871   8.858  17.573  0.00  0.00    +0.000 C 
BRANCH  26  27
ATOM     27  C   UNL     1       8.930   9.051  18.662  0.00  0.00    +0.000 C 
BRANCH  27  28
ATOM     28  C   UNL     1       9.018  10.505  19.163  0.00  0.00    +0.000 C 
BRANCH  28  29
ATOM     29  N   UNL     1      10.417  10.999  19.208  0.00  0.00    +0.000 NA
ATOM     30  C   UNL     1      10.804  11.695  17.969  0.00  0.00    +0.000 C 
ATOM     31  C   UNL     1      10.589  11.912  20.351  0.00  0.00    +0.000 C 
ENDBRANCH  28  29
ENDBRANCH  27  28
ENDBRANCH  26  27
ENDBRANCH  25  26
ENDBRANCH  23  25
ENDBRANCH   9  19
TORSDOF 8
ENDMDL
MODEL 5
REMARK VINA RESULT:      -8.4      1.226      1.395
REMARK  Name = 
REMARK  11 active torsions:
REMARK  status: ('A' for Active; 'I' for Inactive)
REMARK    1  A    between atoms: C_1  and  O_2
REMARK    2  A    between atoms: O_2  and  C_3
REMARK    3  A    between atoms: C_6  and  C_7
REMARK    4  A    between atoms: C_15  and  C_16
REMARK    5  A    between atoms: C_20  and  O_21
REMARK    6  A    between atoms: O_21  and  C_22
REMARK    7  A    between atoms: C_22  and  C_23
REMARK    8  A    between atoms: C_23  and  C_24
REMARK    9  A    between atoms: C_24  and  N_25
REMARK   10  A    between atoms: N_25  and  C_26
REMARK   11  A    between atoms: N_25  and  C_27
REMARK                            x       y       z     vdW  Elec       q    Type
REMARK                         _______ _______ _______ _____ _____    ______ ____
ROOT
ATOM      1  C   UNL     1       2.006   7.066  19.895  0.00  0.00    +0.000 A 
ATOM      2  C   UNL     1       1.654   6.015  20.767  0.00  0.00    +0.000 A 
ATOM      3  C   UNL     1       2.345   4.785  20.661  0.00  0.00    +0.000 A 
ATOM      4  C   UNL     1       1.972   3.664  21.432  0.00  0.00    +0.000 A 
ATOM      5  C   UNL     1       2.643   2.441  21.274  0.00  0.00    +0.000 A 
ATOM      6  C   UNL     1       3.692   2.325  20.361  0.00  0.00    +0.000 A 
ATOM      7  C   UNL     1       4.087   3.425  19.608  0.00  0.00    +0.000 A 
ATOM      8  C   UNL     1       3.412   4.656  19.743  0.00  0.00    +0.000 A 
ATOM      9  C   UNL     1       3.753   5.761  18.948  0.00  0.00    +0.000 A 
ATOM     10  N   UNL     1       3.018   6.880  19.021  0.00  0.00    +0.000 NA
ENDROOT
BRANCH   1  14
ATOM     11  C   UNL     1      -0.012  10.852  19.887  0.00  0.00    +0.000 A 
ATOM     12  C   UNL     1       0.695  10.448  18.731  0.00  0.00    +0.000 A 
ATOM     13  C   UNL     1       1.402   9.235  18.718  0.00  0.00    +0.000 A 
ATOM     14  C   UNL     1       1.386   8.407  19.852  0.00  0.00    +0.000 A 
ATOM     15  C   UNL     1       0.684   8.835  20.997  0.00  0.00    +0.000 A 
ATOM     16  C   UNL     1       0.009  10.041  21.018  0.00  0.00    +0.000 A 
BRANCH  11  18
ATOM     17  C   UNL     1      -1.831  12.306  19.198  0.00  0.00    +0.000 C 
ATOM     18  O   UNL     1      -0.730  12.000  19.959  0.00  0.00    +0.000 OA
ENDBRANCH  11  18
ENDBRANCH   1  14
BRANCH   9  19
ATOM     19  C   UNL     1       4.882   5.767  18.026  0.00  0.00    +0.000 A 
ATOM     20  C   UNL     1       4.982   4.774  17.045  0.00  0.00    +0.000 A 
ATOM     21  C   UNL     1       6.037   4.792  16.142  0.00  0.00    +0.000 A 
ATOM     22  C   UNL     1       6.992   5.812  16.214  0.00  0.00    +0.000 A 
ATOM     23  C   UNL     1       6.925   6.797  17.213  0.00  0.00    +0.000 A 
ATOM     24  C   UNL     1       5.867   6.752  18.138  0.00  0.00    +0.000 A 
BRANCH  23  25
ATOM     25  O   UNL     1       7.897   7.747  17.240  0.00  0.00    +0.000 OA
BRANCH  25  26
ATOM     26  C   UNL     1       7.775   9.093  17.554  0.00  0.00    +0.000 C 
BRANCH  26  27
ATOM     27  C   UNL     1       8.913   9.554  18.468  0.00  0.00    +0.000 C 
BRANCH  27  28
ATOM     28  C   UNL     1       9.166  11.072  18.392  0.00  0.00    +0.000 C 
BRANCH  28  29
ATOM     29  N   UNL     1      10.603  11.393  18.210  0.00  0.00    +0.000 NA
ATOM     30  C   UNL     1      10.806  12.606  17.398  0.00  0.00    +0.000 C 
ATOM     31  C   UNL     1      11.247  11.574  19.522  0.00  0.00    +0.000 C 
ENDBRANCH  28  29
ENDBRANCH  27  28
ENDBRANCH  26  27
ENDBRANCH  25  26
ENDBRANCH  23  25
ENDBRANCH   9  19
TORSDOF 8
ENDMDL
MODEL 6
REMARK VINA RESULT:      -8.3      3.179      5.533
REMARK  Name = 
REMARK  11 active torsions:
REMARK  status: ('A' for Active; 'I' for Inactive)
REMARK    1  A    between atoms: C_1  and  O_2
REMARK    2  A    between atoms: O_2  and  C_3
REMARK    3  A    between atoms: C_6  and  C_7
REMARK    4  A    between atoms: C_15  and  C_16
REMARK    5  A    between atoms: C_20  and  O_21
REMARK    6  A    between atoms: O_21  and  C_22
REMARK    7  A    between atoms: C_22  and  C_23
REMARK    8  A    between atoms: C_23  and  C_24
REMARK    9  A    between atoms: C_24  and  N_25
REMARK   10  A    between atoms: N_25  and  C_26
REMARK   11  A    between atoms: N_25  and  C_27
REMARK                            x       y       z     vdW  Elec       q    Type
REMARK                         _______ _______ _______ _____ _____    ______ ____
ROOT
ATOM      1  C   UNL     1       2.263   6.901  19.554  0.00  0.00    +0.000 A 
ATOM      2  C   UNL     1       1.850   6.005  20.562  0.00  0.00    +0.000 A 
ATOM      3  C   UNL     1       2.442   4.720  20.612  0.00  0.00    +0.000 A 
ATOM      4  C   UNL     1       2.001   3.743  21.529  0.00  0.00    +0.000 A 
ATOM      5  C   UNL     1       2.571   2.462  21.526  0.00  0.00    +0.000 A 
ATOM      6  C   UNL     1       3.588   2.143  20.625  0.00  0.00    +0.000 A 
ATOM      7  C   UNL     1       4.050   3.100  19.729  0.00  0.00    +0.000 A 
ATOM      8  C   UNL     1       3.476   4.388  19.707  0.00  0.00    +0.000 A 
ATOM      9  C   UNL     1       3.883   5.348  18.769  0.00  0.00    +0.000 A 
ATOM     10  N   UNL     1       3.239   6.523  18.702  0.00  0.00    +0.000 NA
ENDROOT
BRANCH   1  14
ATOM     11  C   UNL     1       1.004  10.937  18.821  0.00  0.00    +0.000 A 
ATOM     12  C   UNL     1       0.719  10.344  20.073  0.00  0.00    +0.000 A 
ATOM     13  C   UNL     1       1.078   9.011  20.327  0.00  0.00    +0.000 A 
ATOM     14  C   UNL     1       1.748   8.270  19.341  0.00  0.00    +0.000 A 
ATOM     15  C   UNL     1       2.012   8.876  18.096  0.00  0.00    +0.000 A 
ATOM     16  C   UNL     1       1.635  10.181  17.838  0.00  0.00    +0.000 A 
BRANCH  11  18
ATOM     17  C   UNL     1      -0.495  12.846  18.772  0.00  0.00    +0.000 C 
ATOM     18  O   UNL     1       0.702  12.223  18.518  0.00  0.00    +0.000 OA
ENDBRANCH  11  18
ENDBRANCH   1  14
BRANCH   9  19
ATOM     19  C   UNL     1       4.990   5.144  17.841  0.00  0.00    +0.000 A 
ATOM     20  C   UNL     1       6.288   5.506  18.219  0.00  0.00    +0.000 A 
ATOM     21  C   UNL     1       7.351   5.285  17.354  0.00  0.00    +0.000 A 
ATOM     22  C   UNL     1       7.118   4.691  16.109  0.00  0.00    +0.000 A 
ATOM     23  C   UNL     1       5.817   4.352  15.701  0.00  0.00    +0.000 A 
ATOM     24  C   UNL     1       4.746   4.607  16.575  0.00  0.00    +0.000 A 
BRANCH  23  25
ATOM     25  O   UNL     1       5.658   3.798  14.469  0.00  0.00    +0.000 OA
BRANCH  25  26
ATOM     26  C   UNL     1       6.529   3.837  13.391  0.00  0.00    +0.000 C 
BRANCH  26  27
ATOM     27  C   UNL     1       5.770   3.781  12.062  0.00  0.00    +0.000 C 
BRANCH  27  28
ATOM     28  C   UNL     1       5.278   2.364  11.712  0.00  0.00    +0.000 C 
BRANCH  28  29
ATOM     29  N   UNL     1       6.392   1.388  11.628  0.00  0.00    +0.000 NA
ATOM     30  C   UNL     1       5.956   0.086  11.094  0.00  0.00    +0.000 C 
ATOM     31  C   UNL     1       7.467   1.926  10.776  0.00  0.00    +0.000 C 
ENDBRANCH  28  29
ENDBRANCH  27  28
ENDBRANCH  26  27
ENDBRANCH  25  26
ENDBRANCH  23  25
ENDBRANCH   9  19
TORSDOF 8
ENDMDL
MODEL 7
REMARK VINA RESULT:      -8.3      2.681      4.578
REMARK  Name = 
REMARK  11 active torsions:
REMARK  status: ('A' for Active; 'I' for Inactive)
REMARK    1  A    between atoms: C_1  and  O_2
REMARK    2  A    between atoms: O_2  and  C_3
REMARK    3  A    between atoms: C_6  and  C_7
REMARK    4  A    between atoms: C_15  and  C_16
REMARK    5  A    between atoms: C_20  and  O_21
REMARK    6  A    between atoms: O_21  and  C_22
REMARK    7  A    between atoms: C_22  and  C_23
REMARK    8  A    between atoms: C_23  and  C_24
REMARK    9  A    between atoms: C_24  and  N_25
REMARK   10  A    between atoms: N_25  and  C_26
REMARK   11  A    between atoms: N_25  and  C_27
REMARK                            x       y       z     vdW  Elec       q    Type
REMARK                         _______ _______ _______ _____ _____    ______ ____
ROOT
ATOM      1  C   UNL     1       2.000   6.723  19.973  0.00  0.00    +0.000 A 
ATOM      2  C   UNL     1       1.256   5.541  20.169  0.00  0.00    +0.000 A 
ATOM      3  C   UNL     1       1.814   4.311  19.745  0.00  0.00    +0.000 A 
ATOM      4  C   UNL     1       1.080   3.108  19.818  0.00  0.00    +0.000 A 
ATOM      5  C   UNL     1       1.639   1.910  19.348  0.00  0.00    +0.000 A 
ATOM      6  C   UNL     1       2.929   1.893  18.814  0.00  0.00    +0.000 A 
ATOM      7  C   UNL     1       3.674   3.064  18.756  0.00  0.00    +0.000 A 
ATOM      8  C   UNL     1       3.121   4.281  19.208  0.00  0.00    +0.000 A 
ATOM      9  C   UNL     1       3.832   5.485  19.099  0.00  0.00    +0.000 A 
ATOM     10  N   UNL     1       3.234   6.639  19.434  0.00  0.00    +0.000 NA
ENDROOT
BRANCH   1  14
ATOM     11  C   UNL     1       0.569  10.583  21.182  0.00  0.00    +0.000 A 
ATOM     12  C   UNL     1       0.883  10.362  19.822  0.00  0.00    +0.000 A 
ATOM     13  C   UNL     1       1.396   9.124  19.402  0.00  0.00    +0.000 A 
ATOM     14  C   UNL     1       1.573   8.091  20.336  0.00  0.00    +0.000 A 
ATOM     15  C   UNL     1       1.264   8.337  21.690  0.00  0.00    +0.000 A 
ATOM     16  C   UNL     1       0.783   9.565  22.106  0.00  0.00    +0.000 A 
BRANCH  11  18
ATOM     17  C   UNL     1       0.428  13.006  21.250  0.00  0.00    +0.000 C 
ATOM     18  O   UNL     1       0.053  11.747  21.649  0.00  0.00    +0.000 OA
ENDBRANCH  11  18
ENDBRANCH   1  14
BRANCH   9  19
ATOM     19  C   UNL     1       5.212   5.563  18.634  0.00  0.00    +0.000 A 
ATOM     20  C   UNL     1       6.261   5.431  19.551  0.00  0.00    +0.000 A 
ATOM     21  C   UNL     1       7.578   5.471  19.111  0.00  0.00    +0.000 A 
ATOM     22  C   UNL     1       7.847   5.636  17.748  0.00  0.00    +0.000 A 
ATOM     23  C   UNL     1       6.807   5.803  16.820  0.00  0.00    +0.000 A 
ATOM     24  C   UNL     1       5.478   5.788  17.282  0.00  0.00    +0.000 A 
BRANCH  23  25
ATOM     25  O   UNL     1       7.139   5.980  15.513  0.00  0.00    +0.000 OA
BRANCH  25  26
ATOM     26  C   UNL     1       7.286   5.017  14.526  0.00  0.00    +0.000 C 
BRANCH  26  27
ATOM     27  C   UNL     1       6.211   3.934  14.643  0.00  0.00    +0.000 C 
BRANCH  27  28
ATOM     28  C   UNL     1       5.120   4.051  13.562  0.00  0.00    +0.000 C 
BRANCH  28  29
ATOM     29  N   UNL     1       5.324   3.086  12.453  0.00  0.00    +0.000 NA
ATOM     30  C   UNL     1       4.291   3.208  11.409  0.00  0.00    +0.000 C 
ATOM     31  C   UNL     1       6.651   3.291  11.847  0.00  0.00    +0.000 C 
ENDBRANCH  28  29
ENDBRANCH  27  28
ENDBRANCH  26  27
ENDBRANCH  25  26
ENDBRANCH  23  25
ENDBRANCH   9  19
TORSDOF 8
ENDMDL
MODEL 8
REMARK VINA RESULT:      -8.2      0.557      1.195
REMARK  Name = 
REMARK  11 active torsions:
REMARK  status: ('A' for Active; 'I' for Inactive)
REMARK    1  A    between atoms: C_1  and  O_2
REMARK    2  A    between atoms: O_2  and  C_3
REMARK    3  A    between atoms: C_6  and  C_7
REMARK    4  A    between atoms: C_15  and  C_16
REMARK    5  A    between atoms: C_20  and  O_21
REMARK    6  A    between atoms: O_21  and  C_22
REMARK    7  A    between atoms: C_22  and  C_23
REMARK    8  A    between atoms: C_23  and  C_24
REMARK    9  A    between atoms: C_24  and  N_25
REMARK   10  A    between atoms: N_25  and  C_26
REMARK   11  A    between atoms: N_25  and  C_27
REMARK                            x       y       z     vdW  Elec       q    Type
REMARK                         _______ _______ _______ _____ _____    ______ ____
ROOT
ATOM      1  C   UNL     1       1.836   6.710  20.000  0.00  0.00    +0.000 A 
ATOM      2  C   UNL     1       1.286   5.507  20.488  0.00  0.00    +0.000 A 
ATOM      3  C   UNL     1       1.739   4.283  19.940  0.00  0.00    +0.000 A 
ATOM      4  C   UNL     1       1.156   3.052  20.310  0.00  0.00    +0.000 A 
ATOM      5  C   UNL     1       1.591   1.857  19.717  0.00  0.00    +0.000 A 
ATOM      6  C   UNL     1       2.610   1.872  18.764  0.00  0.00    +0.000 A 
ATOM      7  C   UNL     1       3.210   3.073  18.403  0.00  0.00    +0.000 A 
ATOM      8  C   UNL     1       2.774   4.285  18.977  0.00  0.00    +0.000 A 
ATOM      9  C   UNL     1       3.322   5.514  18.581  0.00  0.00    +0.000 A 
ATOM     10  N   UNL     1       2.806   6.655  19.063  0.00  0.00    +0.000 NA
ENDROOT
BRANCH   1  14
ATOM     11  C   UNL     1       0.967  10.766  21.100  0.00  0.00    +0.000 A 
ATOM     12  C   UNL     1       1.128   9.797  22.117  0.00  0.00    +0.000 A 
ATOM     13  C   UNL     1       1.368   8.453  21.788  0.00  0.00    +0.000 A 
ATOM     14  C   UNL     1       1.476   8.075  20.441  0.00  0.00    +0.000 A 
ATOM     15  C   UNL     1       1.301   9.054  19.442  0.00  0.00    +0.000 A 
ATOM     16  C   UNL     1       1.039  10.373  19.767  0.00  0.00    +0.000 A 
BRANCH  11  18
ATOM     17  C   UNL     1      -0.471  12.702  21.376  0.00  0.00    +0.000 C 
ATOM     18  O   UNL     1       0.753  12.081  21.349  0.00  0.00    +0.000 OA
ENDBRANCH  11  18
ENDBRANCH   1  14
BRANCH   9  19
ATOM     19  C   UNL     1       4.443   5.631  17.657  0.00  0.00    +0.000 A 
ATOM     20  C   UNL     1       4.584   4.706  16.616  0.00  0.00    +0.000 A 
ATOM     21  C   UNL     1       5.631   4.829  15.712  0.00  0.00    +0.000 A 
ATOM     22  C   UNL     1       6.536   5.888  15.843  0.00  0.00    +0.000 A 
ATOM     23  C   UNL     1       6.428   6.807  16.900  0.00  0.00    +0.000 A 
ATOM     24  C   UNL     1       5.380   6.654  17.825  0.00  0.00    +0.000 A 
BRANCH  23  25
ATOM     25  O   UNL     1       7.354   7.799  16.981  0.00  0.00    +0.000 OA
BRANCH  25  26
ATOM     26  C   UNL     1       8.162   8.135  18.057  0.00  0.00    +0.000 C 
BRANCH  26  27
ATOM     27  C   UNL     1       8.508   9.626  18.048  0.00  0.00    +0.000 C 
BRANCH  27  28
ATOM     28  C   UNL     1       9.305  10.065  19.291  0.00  0.00    +0.000 C 
BRANCH  28  29
ATOM     29  N   UNL     1       9.662  11.504  19.248  0.00  0.00    +0.000 NA
ATOM     30  C   UNL     1       9.097  12.186  18.071  0.00  0.00    +0.000 C 
ATOM     31  C   UNL     1       9.189  12.175  20.471  0.00  0.00    +0.000 C 
ENDBRANCH  28  29
ENDBRANCH  27  28
ENDBRANCH  26  27
ENDBRANCH  25  26
ENDBRANCH  23  25
ENDBRANCH   9  19
TORSDOF 8
ENDMDL
MODEL 9
REMARK VINA RESULT:      -8.2      3.116      5.246
REMARK  Name = 
REMARK  11 active torsions:
REMARK  status: ('A' for Active; 'I' for Inactive)
REMARK    1  A    between atoms: C_1  and  O_2
REMARK    2  A    between atoms: O_2  and  C_3
REMARK    3  A    between atoms: C_6  and  C_7
REMARK    4  A    between atoms: C_15  and  C_16
REMARK    5  A    between atoms: C_20  and  O_21
REMARK    6  A    between atoms: O_21  and  C_22
REMARK    7  A    between atoms: C_22  and  C_23
REMARK    8  A    between atoms: C_23  and  C_24
REMARK    9  A    between atoms: C_24  and  N_25
REMARK   10  A    between atoms: N_25  and  C_26
REMARK   11  A    between atoms: N_25  and  C_27
REMARK                            x       y       z     vdW  Elec       q    Type
REMARK                         _______ _______ _______ _____ _____    ______ ____
ROOT
ATOM      1  C   UNL     1       2.343   6.943  19.504  0.00  0.00    +0.000 A 
ATOM      2  C   UNL     1       1.718   6.055  20.403  0.00  0.00    +0.000 A 
ATOM      3  C   UNL     1       2.241   4.747  20.538  0.00  0.00    +0.000 A 
ATOM      4  C   UNL     1       1.602   3.779  21.341  0.00  0.00    +0.000 A 
ATOM      5  C   UNL     1       2.114   2.475  21.421  0.00  0.00    +0.000 A 
ATOM      6  C   UNL     1       3.268   2.125  20.716  0.00  0.00    +0.000 A 
ATOM      7  C   UNL     1       3.923   3.072  19.937  0.00  0.00    +0.000 A 
ATOM      8  C   UNL     1       3.411   4.382  19.832  0.00  0.00    +0.000 A 
ATOM      9  C   UNL     1       4.021   5.335  19.002  0.00  0.00    +0.000 A 
ATOM     10  N   UNL     1       3.444   6.535  18.838  0.00  0.00    +0.000 NA
ENDROOT
BRANCH   1  14
ATOM     11  C   UNL     1       0.894  10.918  18.786  0.00  0.00    +0.000 A 
ATOM     12  C   UNL     1       1.677  10.282  17.795  0.00  0.00    +0.000 A 
ATOM     13  C   UNL     1       2.203   8.999  18.018  0.00  0.00    +0.000 A 
ATOM     14  C   UNL     1       1.928   8.334  19.223  0.00  0.00    +0.000 A 
ATOM     15  C   UNL     1       1.154   8.991  20.202  0.00  0.00    +0.000 A 
ATOM     16  C   UNL     1       0.657  10.264  19.991  0.00  0.00    +0.000 A 
BRANCH  11  18
ATOM     17  C   UNL     1       0.311  13.140  19.571  0.00  0.00    +0.000 C 
ATOM     18  O   UNL     1       0.341  12.145  18.626  0.00  0.00    +0.000 OA
ENDBRANCH  11  18
ENDBRANCH   1  14
BRANCH   9  19
ATOM     19  C   UNL     1       5.270   5.096  18.291  0.00  0.00    +0.000 A 
ATOM     20  C   UNL     1       6.484   5.486  18.869  0.00  0.00    +0.000 A 
ATOM     21  C   UNL     1       7.680   5.232  18.212  0.00  0.00    +0.000 A 
ATOM     22  C   UNL     1       7.666   4.578  16.976  0.00  0.00    +0.000 A 
ATOM     23  C   UNL     1       6.455   4.209  16.366  0.00  0.00    +0.000 A 
ATOM     24  C   UNL     1       5.249   4.497  17.029  0.00  0.00    +0.000 A 
BRANCH  23  25
ATOM     25  O   UNL     1       6.511   3.596  15.153  0.00  0.00    +0.000 OA
BRANCH  25  26
ATOM     26  C   UNL     1       6.396   4.169  13.896  0.00  0.00    +0.000 C 
BRANCH  26  27
ATOM     27  C   UNL     1       5.100   3.737  13.205  0.00  0.00    +0.000 C 
BRANCH  27  28
ATOM     28  C   UNL     1       5.332   3.177  11.789  0.00  0.00    +0.000 C 
BRANCH  28  29
ATOM     29  N   UNL     1       6.325   2.075  11.777  0.00  0.00    +0.000 NA
ATOM     30  C   UNL     1       5.817   0.872  11.096  0.00  0.00    +0.000 C 
ATOM     31  C   UNL     1       7.562   2.522  11.113  0.00  0.00    +0.000 C 
ENDBRANCH  28  29
ENDBRANCH  27  28
ENDBRANCH  26  27
ENDBRANCH  25  26
ENDBRANCH  23  25
ENDBRANCH   9  19
TORSDOF 8
ENDMDL
