MODEL 1
REMARK VINA RESULT:      -8.3      0.000      0.000
REMARK  Name = 
REMARK  8 active torsions:
REMARK  status: ('A' for Active; 'I' for Inactive)
REMARK    1  A    between atoms: C_1  and  N_2
REMARK    2  A    between atoms: N_2  and  C_3
REMARK    3  A    between atoms: N_2  and  C_4
REMARK    4  A    between atoms: C_7  and  C_8
REMARK    5  A    between atoms: C_8  and  C_9
REMARK    6  A    between atoms: C_8  and  C_20
REMARK    7  A    between atoms: C_9  and  N_10
REMARK    8  A    between atoms: C_11  and  C_13
REMARK                            x       y       z     vdW  Elec       q    Type
REMARK                         _______ _______ _______ _____ _____    ______ ____
ROOT
ATOM      1  C   UNL     1       3.544   6.258  17.567  0.00  0.00    +0.000 C 
ENDROOT
BRANCH   1   2
ATOM      2  C   UNL     1       3.749   5.185  18.651  0.00  0.00    +0.000 A 
ATOM      3  C   UNL     1       4.969   4.923  19.246  0.00  0.00    +0.000 A 
ATOM      4  N   UNL     1       4.923   3.596  19.555  0.00  0.00    +0.000 N 
ATOM      5  C   UNL     1       3.679   3.377  20.075  0.00  0.00    +0.000 A 
ATOM      6  C   UNL     1       3.262   2.416  21.000  0.00  0.00    +0.000 A 
ATOM      7  C   UNL     1       1.921   2.421  21.358  0.00  0.00    +0.000 A 
ATOM      8  C   UNL     1       1.029   3.289  20.700  0.00  0.00    +0.000 A 
ATOM      9  C   UNL     1       1.472   4.198  19.712  0.00  0.00    +0.000 A 
ATOM     10  C   UNL     1       2.854   4.315  19.430  0.00  0.00    +0.000 A 
ATOM     11  H   UNL     1       5.449   2.867  19.088  0.00  0.00    +0.000 HD
ENDBRANCH   1   2
BRANCH   1  15
ATOM     12  C   UNL     1       1.213   9.641  19.271  0.00  0.00    +0.000 A 
ATOM     13  C   UNL     1       1.540   8.504  20.012  0.00  0.00    +0.000 A 
ATOM     14  C   UNL     1       2.313   7.461  19.483  0.00  0.00    +0.000 A 
ATOM     15  C   UNL     1       2.761   7.447  18.153  0.00  0.00    +0.000 A 
ATOM     16  C   UNL     1       2.513   8.616  17.425  0.00  0.00    +0.000 A 
ATOM     17  C   UNL     1       1.760   9.681  17.976  0.00  0.00    +0.000 A 
BRANCH  12  19
ATOM     18  C   UNL     1      -1.032  10.687  19.456  0.00  0.00    +0.000 C 
ATOM     19  N   UNL     1       0.390  10.639  19.790  0.00  0.00    +0.000 N 
ATOM     20  C   UNL     1       0.853  11.519  20.850  0.00  0.00    +0.000 C 
ENDBRANCH  12  19
ENDBRANCH   1  15
BRANCH   1  21
ATOM     21  C   UNL     1       4.932   6.694  16.920  0.00  0.00    +0.000 C 
BRANCH  21  22
ATOM     22  N   UNL     1       5.244   6.182  15.563  0.00  0.00    +0.000 N 
ATOM     23  C   UNL     1       5.996   5.040  15.353  0.00  0.00    +0.000 C 
ATOM     24  O   UNL     1       6.484   4.403  16.286  0.00  0.00    +0.000 OA
ATOM     25  H   UNL     1       4.795   6.626  14.771  0.00  0.00    +0.000 HD
BRANCH  23  26
ATOM     26  C   UNL     1       6.192   4.521  13.953  0.00  0.00    +0.000 A 
ATOM     27  C   UNL     1       5.214   3.618  13.480  0.00  0.00    +0.000 A 
ATOM     28  C   UNL     1       5.301   3.027  12.215  0.00  0.00    +0.000 A 
ATOM     29  C   UNL     1       6.363   3.332  11.373  0.00  0.00    +0.000 A 
ATOM     30  C   UNL     1       7.364   4.195  11.824  0.00  0.00    +0.000 A 
ATOM     31  C   UNL     1       7.270   4.797  13.085  0.00  0.00    +0.000 A 
ATOM     32 BR   UNL     1       8.758   5.883  13.553  0.00  0.00    +0.000 Br
ENDBRANCH  23  26
ENDBRANCH  21  22
ENDBRANCH   1  21
TORSDOF 6
ENDMDL
MODEL 2
REMARK VINA RESULT:      -8.1      2.799      7.833
REMARK  Name = 
REMARK  8 active torsions:
REMARK  status: ('A' for Active; 'I' for Inactive)
REMARK    1  A    between atoms: C_1  and  N_2
REMARK    2  A    between atoms: N_2  and  C_3
REMARK    3  A    between atoms: N_2  and  C_4
REMARK    4  A    between atoms: C_7  and  C_8
REMARK    5  A    between atoms: C_8  and  C_9
REMARK    6  A    between atoms: C_8  and  C_20
REMARK    7  A    between atoms: C_9  and  N_10
REMARK    8  A    between atoms: C_11  and  C_13
REMARK                            x       y       z     vdW  Elec       q    Type
REMARK                         _______ _______ _______ _____ _____    ______ ____
ROOT
ATOM      1  C   UNL     1       4.461   6.108  17.888  0.00  0.00    +0.000 C 
ENDROOT
BRANCH   1   2
ATOM      2  C   UNL     1       4.207   5.001  18.928  0.00  0.00    +0.000 A 
ATOM      3  C   UNL     1       5.208   4.420  19.685  0.00  0.00    +0.000 A 
ATOM      4  N   UNL     1       4.776   3.147  19.907  0.00  0.00    +0.000 N 
ATOM      5  C   UNL     1       3.450   3.253  20.220  0.00  0.00    +0.000 A 
ATOM      6  C   UNL     1       2.658   2.419  21.015  0.00  0.00    +0.000 A 
ATOM      7  C   UNL     1       1.324   2.768  21.164  0.00  0.00    +0.000 A 
ATOM      8  C   UNL     1       0.801   3.849  20.430  0.00  0.00    +0.000 A 
ATOM      9  C   UNL     1       1.614   4.626  19.574  0.00  0.00    +0.000 A 
ATOM     10  C   UNL     1       3.007   4.383  19.511  0.00  0.00    +0.000 A 
ATOM     11  H   UNL     1       5.167   2.314  19.485  0.00  0.00    +0.000 HD
ENDBRANCH   1   2
BRANCH   1  15
ATOM     12  C   UNL     1       5.919   4.332  14.081  0.00  0.00    +0.000 A 
ATOM     13  C   UNL     1       5.699   5.701  14.236  0.00  0.00    +0.000 A 
ATOM     14  C   UNL     1       5.282   6.261  15.452  0.00  0.00    +0.000 A 
ATOM     15  C   UNL     1       4.990   5.484  16.585  0.00  0.00    +0.000 A 
ATOM     16  C   UNL     1       5.287   4.121  16.469  0.00  0.00    +0.000 A 
ATOM     17  C   UNL     1       5.740   3.567  15.247  0.00  0.00    +0.000 A 
BRANCH  12  19
ATOM     18  C   UNL     1       5.358   2.891  12.137  0.00  0.00    +0.000 C 
ATOM     19  N   UNL     1       6.271   3.784  12.849  0.00  0.00    +0.000 N 
ATOM     20  C   UNL     1       7.440   4.253  12.123  0.00  0.00    +0.000 C 
ENDBRANCH  12  19
ENDBRANCH   1  15
BRANCH   1  21
ATOM     21  C   UNL     1       3.159   6.996  17.663  0.00  0.00    +0.000 C 
BRANCH  21  22
ATOM     22  N   UNL     1       2.621   7.729  18.836  0.00  0.00    +0.000 N 
ATOM     23  C   UNL     1       1.647   8.704  18.721  0.00  0.00    +0.000 C 
ATOM     24  O   UNL     1       1.197   9.047  17.628  0.00  0.00    +0.000 OA
ATOM     25  H   UNL     1       2.900   7.422  19.760  0.00  0.00    +0.000 HD
BRANCH  23  26
ATOM     26  C   UNL     1       1.074   9.339  19.961  0.00  0.00    +0.000 A 
ATOM     27  C   UNL     1       0.624   8.453  20.964  0.00  0.00    +0.000 A 
ATOM     28  C   UNL     1       0.031   8.911  22.146  0.00  0.00    +0.000 A 
ATOM     29  C   UNL     1      -0.119  10.273  22.370  0.00  0.00    +0.000 A 
ATOM     30  C   UNL     1       0.286  11.175  21.382  0.00  0.00    +0.000 A 
ATOM     31  C   UNL     1       0.892  10.717  20.206  0.00  0.00    +0.000 A 
ATOM     32 BR   UNL     1       1.308  12.082  18.951  0.00  0.00    +0.000 Br
ENDBRANCH  23  26
ENDBRANCH  21  22
ENDBRANCH   1  21
TORSDOF 6
ENDMDL
MODEL 3
REMARK VINA RESULT:      -8.0      3.108      8.032
REMARK  Name = 
REMARK  8 active torsions:
REMARK  status: ('A' for Active; 'I' for Inactive)
REMARK    1  A    between atoms: C_1  and  N_2
REMARK    2  A    between atoms: N_2  and  C_3
REMARK    3  A    between atoms: N_2  and  C_4
REMARK    4  A    between atoms: C_7  and  C_8
REMARK    5  A    between atoms: C_8  and  C_9
REMARK    6  A    between atoms: C_8  and  C_20
REMARK    7  A    between atoms: C_9  and  N_10
REMARK    8  A    between atoms: C_11  and  C_13
REMARK                            x       y       z     vdW  Elec       q    Type
REMARK                         _______ _______ _______ _____ _____    ______ ____
ROOT
ATOM      1  C   UNL     1       3.812   6.040  18.132  0.00  0.00    +0.000 C 
ENDROOT
BRANCH   1   2
ATOM      2  C   UNL     1       2.852   4.895  18.503  0.00  0.00    +0.000 A 
ATOM      3  C   UNL     1       2.238   4.080  17.570  0.00  0.00    +0.000 A 
ATOM      4  N   UNL     1       1.052   3.733  18.143  0.00  0.00    +0.000 N 
ATOM      5  C   UNL     1       1.339   3.438  19.446  0.00  0.00    +0.000 A 
ATOM      6  C   UNL     1       0.685   2.566  20.322  0.00  0.00    +0.000 A 
ATOM      7  C   UNL     1       1.199   2.458  21.606  0.00  0.00    +0.000 A 
ATOM      8  C   UNL     1       2.254   3.299  22.008  0.00  0.00    +0.000 A 
ATOM      9  C   UNL     1       2.843   4.225  21.117  0.00  0.00    +0.000 A 
ATOM     10  C   UNL     1       2.436   4.258  19.762  0.00  0.00    +0.000 A 
ATOM     11  H   UNL     1       0.141   4.068  17.854  0.00  0.00    +0.000 HD
ENDBRANCH   1   2
BRANCH   1  15
ATOM     12  C   UNL     1       6.208   4.868  14.574  0.00  0.00    +0.000 A 
ATOM     13  C   UNL     1       5.657   6.141  14.723  0.00  0.00    +0.000 A 
ATOM     14  C   UNL     1       4.940   6.519  15.867  0.00  0.00    +0.000 A 
ATOM     15  C   UNL     1       4.664   5.630  16.918  0.00  0.00    +0.000 A 
ATOM     16  C   UNL     1       5.282   4.378  16.821  0.00  0.00    +0.000 A 
ATOM     17  C   UNL     1       6.033   4.014  15.677  0.00  0.00    +0.000 A 
BRANCH  12  19
ATOM     18  C   UNL     1       6.305   3.453  12.536  0.00  0.00    +0.000 C 
ATOM     19  N   UNL     1       6.862   4.488  13.403  0.00  0.00    +0.000 N 
ATOM     20  C   UNL     1       7.984   5.254  12.885  0.00  0.00    +0.000 C 
ENDBRANCH  12  19
ENDBRANCH   1  15
BRANCH   1  21
ATOM     21  C   UNL     1       3.021   7.402  17.899  0.00  0.00    +0.000 C 
BRANCH  21  22
ATOM     22  N   UNL     1       2.301   7.981  19.060  0.00  0.00    +0.000 N 
ATOM     23  C   UNL     1       1.603   9.172  18.983  0.00  0.00    +0.000 C 
ATOM     24  O   UNL     1       1.572   9.842  17.951  0.00  0.00    +0.000 OA
ATOM     25  H   UNL     1       2.229   7.424  19.903  0.00  0.00    +0.000 HD
BRANCH  23  26
ATOM     26  C   UNL     1       0.812   9.654  20.171  0.00  0.00    +0.000 A 
ATOM     27  C   UNL     1       1.086   9.016  21.402  0.00  0.00    +0.000 A 
ATOM     28  C   UNL     1       0.391   9.337  22.574  0.00  0.00    +0.000 A 
ATOM     29  C   UNL     1      -0.592  10.318  22.556  0.00  0.00    +0.000 A 
ATOM     30  C   UNL     1      -0.909  10.944  21.348  0.00  0.00    +0.000 A 
ATOM     31  C   UNL     1      -0.205  10.632  20.179  0.00  0.00    +0.000 A 
ATOM     32 BR   UNL     1      -0.824  11.530  18.622  0.00  0.00    +0.000 Br
ENDBRANCH  23  26
ENDBRANCH  21  22
ENDBRANCH   1  21
TORSDOF 6
ENDMDL
MODEL 4
REMARK VINA RESULT:      -7.8      3.208      8.183
REMARK  Name = 
REMARK  8 active torsions:
REMARK  status: ('A' for Active; 'I' for Inactive)
REMARK    1  A    between atoms: C_1  and  N_2
REMARK    2  A    between atoms: N_2  and  C_3
REMARK    3  A    between atoms: N_2  and  C_4
REMARK    4  A    between atoms: C_7  and  C_8
REMARK    5  A    between atoms: C_8  and  C_9
REMARK    6  A    between atoms: C_8  and  C_20
REMARK    7  A    between atoms: C_9  and  N_10
REMARK    8  A    between atoms: C_11  and  C_13
REMARK                            x       y       z     vdW  Elec       q    Type
REMARK                         _______ _______ _______ _____ _____    ______ ____
ROOT
ATOM      1  C   UNL     1       3.283   7.333  18.501  0.00  0.00    +0.000 C 
ENDROOT
BRANCH   1   2
ATOM      2  C   UNL     1       2.574   6.253  19.339  0.00  0.00    +0.000 A 
ATOM      3  C   UNL     1       2.120   6.462  20.628  0.00  0.00    +0.000 A 
ATOM      4  N   UNL     1       2.219   5.243  21.230  0.00  0.00    +0.000 N 
ATOM      5  C   UNL     1       1.752   4.339  20.318  0.00  0.00    +0.000 A 
ATOM      6  C   UNL     1       1.144   3.098  20.533  0.00  0.00    +0.000 A 
ATOM      7  C   UNL     1       0.763   2.378  19.411  0.00  0.00    +0.000 A 
ATOM      8  C   UNL     1       1.105   2.852  18.130  0.00  0.00    +0.000 A 
ATOM      9  C   UNL     1       1.790   4.076  17.951  0.00  0.00    +0.000 A 
ATOM     10  C   UNL     1       2.064   4.900  19.068  0.00  0.00    +0.000 A 
ATOM     11  H   UNL     1       2.897   4.993  21.940  0.00  0.00    +0.000 HD
ENDBRANCH   1   2
BRANCH   1  15
ATOM     12  C   UNL     1       5.811   5.392  15.401  0.00  0.00    +0.000 A 
ATOM     13  C   UNL     1       5.110   6.575  15.166  0.00  0.00    +0.000 A 
ATOM     14  C   UNL     1       4.349   7.206  16.161  0.00  0.00    +0.000 A 
ATOM     15  C   UNL     1       4.181   6.665  17.445  0.00  0.00    +0.000 A 
ATOM     16  C   UNL     1       4.946   5.526  17.720  0.00  0.00    +0.000 A 
ATOM     17  C   UNL     1       5.739   4.912  16.720  0.00  0.00    +0.000 A 
BRANCH  12  19
ATOM     18  C   UNL     1       5.883   3.674  13.608  0.00  0.00    +0.000 C 
ATOM     19  N   UNL     1       6.509   4.743  14.384  0.00  0.00    +0.000 N 
ATOM     20  C   UNL     1       7.785   5.250  13.905  0.00  0.00    +0.000 C 
ENDBRANCH  12  19
ENDBRANCH   1  15
BRANCH   1  21
ATOM     21  C   UNL     1       2.234   8.348  17.866  0.00  0.00    +0.000 C 
BRANCH  21  22
ATOM     22  N   UNL     1       1.766   9.470  18.718  0.00  0.00    +0.000 N 
ATOM     23  C   UNL     1       0.506  10.025  18.590  0.00  0.00    +0.000 C 
ATOM     24  O   UNL     1      -0.289   9.644  17.731  0.00  0.00    +0.000 OA
ATOM     25  H   UNL     1       2.353   9.759  19.491  0.00  0.00    +0.000 HD
BRANCH  23  26
ATOM     26  C   UNL     1       0.059  11.094  19.552  0.00  0.00    +0.000 A 
ATOM     27  C   UNL     1       0.035  12.414  19.050  0.00  0.00    +0.000 A 
ATOM     28  C   UNL     1      -0.318  13.506  19.851  0.00  0.00    +0.000 A 
ATOM     29  C   UNL     1      -0.672  13.312  21.180  0.00  0.00    +0.000 A 
ATOM     30  C   UNL     1      -0.625  12.023  21.716  0.00  0.00    +0.000 A 
ATOM     31  C   UNL     1      -0.285  10.929  20.911  0.00  0.00    +0.000 A 
ATOM     32 BR   UNL     1      -0.205   9.267  21.831  0.00  0.00    +0.000 Br
ENDBRANCH  23  26
ENDBRANCH  21  22
ENDBRANCH   1  21
TORSDOF 6
ENDMDL
MODEL 5
REMARK VINA RESULT:      -7.7      3.145      8.175
REMARK  Name = 
REMARK  8 active torsions:
REMARK  status: ('A' for Active; 'I' for Inactive)
REMARK    1  A    between atoms: C_1  and  N_2
REMARK    2  A    between atoms: N_2  and  C_3
REMARK    3  A    between atoms: N_2  and  C_4
REMARK    4  A    between atoms: C_7  and  C_8
REMARK    5  A    between atoms: C_8  and  C_9
REMARK    6  A    between atoms: C_8  and  C_20
REMARK    7  A    between atoms: C_9  and  N_10
REMARK    8  A    between atoms: C_11  and  C_13
REMARK                            x       y       z     vdW  Elec       q    Type
REMARK                         _______ _______ _______ _____ _____    ______ ____
ROOT
ATOM      1  C   UNL     1       3.275   7.434  18.455  0.00  0.00    +0.000 C 
ENDROOT
BRANCH   1   2
ATOM      2  C   UNL     1       2.570   6.371  19.317  0.00  0.00    +0.000 A 
ATOM      3  C   UNL     1       2.119   6.607  20.603  0.00  0.00    +0.000 A 
ATOM      4  N   UNL     1       2.221   5.401  21.229  0.00  0.00    +0.000 N 
ATOM      5  C   UNL     1       1.752   4.477  20.338  0.00  0.00    +0.000 A 
ATOM      6  C   UNL     1       1.145   3.241  20.580  0.00  0.00    +0.000 A 
ATOM      7  C   UNL     1       0.761   2.498  19.474  0.00  0.00    +0.000 A 
ATOM      8  C   UNL     1       1.100   2.945  18.183  0.00  0.00    +0.000 A 
ATOM      9  C   UNL     1       1.783   4.165  17.977  0.00  0.00    +0.000 A 
ATOM     10  C   UNL     1       2.060   5.013  19.076  0.00  0.00    +0.000 A 
ATOM     11  H   UNL     1       2.901   5.166  21.942  0.00  0.00    +0.000 HD
ENDBRANCH   1   2
BRANCH   1  15
ATOM     12  C   UNL     1       5.891   5.430  15.469  0.00  0.00    +0.000 A 
ATOM     13  C   UNL     1       5.144   6.569  15.169  0.00  0.00    +0.000 A 
ATOM     14  C   UNL     1       4.355   7.222  16.127  0.00  0.00    +0.000 A 
ATOM     15  C   UNL     1       4.204   6.747  17.439  0.00  0.00    +0.000 A 
ATOM     16  C   UNL     1       5.013   5.656  17.777  0.00  0.00    +0.000 A 
ATOM     17  C   UNL     1       5.833   5.020  16.813  0.00  0.00    +0.000 A 
BRANCH  12  19
ATOM     18  C   UNL     1       6.066   3.576  13.826  0.00  0.00    +0.000 C 
ATOM     19  N   UNL     1       6.618   4.755  14.491  0.00  0.00    +0.000 N 
ATOM     20  C   UNL     1       7.836   5.321  13.934  0.00  0.00    +0.000 C 
ENDBRANCH  12  19
ENDBRANCH   1  15
BRANCH   1  21
ATOM     21  C   UNL     1       2.222   8.409  17.767  0.00  0.00    +0.000 C 
BRANCH  21  22
ATOM     22  N   UNL     1       1.274   9.128  18.655  0.00  0.00    +0.000 N 
ATOM     23  C   UNL     1       1.261  10.506  18.768  0.00  0.00    +0.000 C 
ATOM     24  O   UNL     1       2.065  11.216  18.164  0.00  0.00    +0.000 OA
ATOM     25  H   UNL     1       0.542   8.592  19.105  0.00  0.00    +0.000 HD
BRANCH  23  26
ATOM     26  C   UNL     1       0.208  11.177  19.611  0.00  0.00    +0.000 A 
ATOM     27  C   UNL     1       0.601  11.555  20.914  0.00  0.00    +0.000 A 
ATOM     28  C   UNL     1      -0.292  12.147  21.815  0.00  0.00    +0.000 A 
ATOM     29  C   UNL     1      -1.605  12.392  21.437  0.00  0.00    +0.000 A 
ATOM     30  C   UNL     1      -2.034  11.999  20.167  0.00  0.00    +0.000 A 
ATOM     31  C   UNL     1      -1.137  11.420  19.261  0.00  0.00    +0.000 A 
ATOM     32 BR   UNL     1      -1.917  10.887  17.612  0.00  0.00    +0.000 Br
ENDBRANCH  23  26
ENDBRANCH  21  22
ENDBRANCH   1  21
TORSDOF 6
ENDMDL
MODEL 6
REMARK VINA RESULT:      -7.7      4.580      9.857
REMARK  Name = 
REMARK  8 active torsions:
REMARK  status: ('A' for Active; 'I' for Inactive)
REMARK    1  A    between atoms: C_1  and  N_2
REMARK    2  A    between atoms: N_2  and  C_3
REMARK    3  A    between atoms: N_2  and  C_4
REMARK    4  A    between atoms: C_7  and  C_8
REMARK    5  A    between atoms: C_8  and  C_9
REMARK    6  A    between atoms: C_8  and  C_20
REMARK    7  A    between atoms: C_9  and  N_10
REMARK    8  A    between atoms: C_11  and  C_13
REMARK                            x       y       z     vdW  Elec       q    Type
REMARK                         _______ _______ _______ _____ _____    ______ ____
ROOT
ATOM      1  C   UNL     1       1.073  10.615  19.149  0.00  0.00    +0.000 C 
ENDROOT
BRANCH   1   2
ATOM      2  C   UNL     1      -0.368  10.643  18.609  0.00  0.00    +0.000 A 
ATOM      3  C   UNL     1      -0.839   9.772  17.644  0.00  0.00    +0.000 A 
ATOM      4  N   UNL     1      -1.787  10.483  16.971  0.00  0.00    +0.000 N 
ATOM      5  C   UNL     1      -2.510  11.137  17.927  0.00  0.00    +0.000 A 
ATOM      6  C   UNL     1      -3.845  11.554  17.898  0.00  0.00    +0.000 A 
ATOM      7  C   UNL     1      -4.328  12.205  19.023  0.00  0.00    +0.000 A 
ATOM      8  C   UNL     1      -3.449  12.525  20.075  0.00  0.00    +0.000 A 
ATOM      9  C   UNL     1      -2.085  12.156  20.038  0.00  0.00    +0.000 A 
ATOM     10  C   UNL     1      -1.596  11.367  18.970  0.00  0.00    +0.000 A 
ATOM     11  H   UNL     1      -1.692  10.838  16.028  0.00  0.00    +0.000 HD
ENDBRANCH   1   2
BRANCH   1  15
ATOM     12  C   UNL     1       2.581   6.438  19.388  0.00  0.00    +0.000 A 
ATOM     13  C   UNL     1       1.875   7.043  20.428  0.00  0.00    +0.000 A 
ATOM     14  C   UNL     1       1.364   8.345  20.330  0.00  0.00    +0.000 A 
ATOM     15  C   UNL     1       1.578   9.162  19.209  0.00  0.00    +0.000 A 
ATOM     16  C   UNL     1       2.210   8.540  18.127  0.00  0.00    +0.000 A 
ATOM     17  C   UNL     1       2.695   7.213  18.220  0.00  0.00    +0.000 A 
BRANCH  12  19
ATOM     18  C   UNL     1       4.421   4.841  18.906  0.00  0.00    +0.000 C 
ATOM     19  N   UNL     1       3.138   5.168  19.525  0.00  0.00    +0.000 N 
ATOM     20  C   UNL     1       2.592   4.205  20.467  0.00  0.00    +0.000 C 
ENDBRANCH  12  19
ENDBRANCH   1  15
BRANCH   1  21
ATOM     21  C   UNL     1       2.026  11.563  18.296  0.00  0.00    +0.000 C 
BRANCH  21  22
ATOM     22  N   UNL     1       1.565  12.952  18.050  0.00  0.00    +0.000 N 
ATOM     23  C   UNL     1       1.517  13.908  19.049  0.00  0.00    +0.000 C 
ATOM     24  O   UNL     1       1.818  13.647  20.213  0.00  0.00    +0.000 OA
ATOM     25  H   UNL     1       1.387  13.234  17.093  0.00  0.00    +0.000 HD
BRANCH  23  26
ATOM     26  C   UNL     1       1.133  15.324  18.710  0.00  0.00    +0.000 A 
ATOM     27  C   UNL     1      -0.237  15.646  18.836  0.00  0.00    +0.000 A 
ATOM     28  C   UNL     1      -0.734  16.914  18.511  0.00  0.00    +0.000 A 
ATOM     29  C   UNL     1       0.127  17.907  18.062  0.00  0.00    +0.000 A 
ATOM     30  C   UNL     1       1.482  17.610  17.894  0.00  0.00    +0.000 A 
ATOM     31  C   UNL     1       1.981  16.346  18.232  0.00  0.00    +0.000 A 
ATOM     32 BR   UNL     1       3.831  16.106  17.869  0.00  0.00    +0.000 Br
ENDBRANCH  23  26
ENDBRANCH  21  22
ENDBRANCH   1  21
TORSDOF 6
ENDMDL
MODEL 7
REMARK VINA RESULT:      -7.7      4.780     10.133
REMARK  Name = 
REMARK  8 active torsions:
REMARK  status: ('A' for Active; 'I' for Inactive)
REMARK    1  A    between atoms: C_1  and  N_2
REMARK    2  A    between atoms: N_2  and  C_3
REMARK    3  A    between atoms: N_2  and  C_4
REMARK    4  A    between atoms: C_7  and  C_8
REMARK    5  A    between atoms: C_8  and  C_9
REMARK    6  A    between atoms: C_8  and  C_20
REMARK    7  A    between atoms: C_9  and  N_10
REMARK    8  A    between atoms: C_11  and  C_13
REMARK                            x       y       z     vdW  Elec       q    Type
REMARK                         _______ _______ _______ _____ _____    ______ ____
ROOT
ATOM      1  C   UNL     1       0.842  10.807  19.211  0.00  0.00    +0.000 C 
ENDROOT
BRANCH   1   2
ATOM      2  C   UNL     1      -0.583  10.791  18.630  0.00  0.00    +0.000 A 
ATOM      3  C   UNL     1      -0.996   9.913  17.645  0.00  0.00    +0.000 A 
ATOM      4  N   UNL     1      -1.948  10.597  16.950  0.00  0.00    +0.000 N 
ATOM      5  C   UNL     1      -2.721  11.218  17.890  0.00  0.00    +0.000 A 
ATOM      6  C   UNL     1      -4.068  11.589  17.826  0.00  0.00    +0.000 A 
ATOM      7  C   UNL     1      -4.606  12.213  18.942  0.00  0.00    +0.000 A 
ATOM      8  C   UNL     1      -3.769  12.553  20.021  0.00  0.00    +0.000 A 
ATOM      9  C   UNL     1      -2.392  12.231  20.021  0.00  0.00    +0.000 A 
ATOM     10  C   UNL     1      -1.846  11.469  18.961  0.00  0.00    +0.000 A 
ATOM     11  H   UNL     1      -1.839  10.964  16.013  0.00  0.00    +0.000 HD
ENDBRANCH   1   2
BRANCH   1  15
ATOM     12  C   UNL     1       2.535   6.702  18.962  0.00  0.00    +0.000 A 
ATOM     13  C   UNL     1       2.654   7.629  17.925  0.00  0.00    +0.000 A 
ATOM     14  C   UNL     1       2.157   8.936  18.027  0.00  0.00    +0.000 A 
ATOM     15  C   UNL     1       1.445   9.393  19.148  0.00  0.00    +0.000 A 
ATOM     16  C   UNL     1       1.393   8.503  20.227  0.00  0.00    +0.000 A 
ATOM     17  C   UNL     1       1.926   7.195  20.130  0.00  0.00    +0.000 A 
BRANCH  12  19
ATOM     18  C   UNL     1       2.248   4.438  17.983  0.00  0.00    +0.000 C 
ATOM     19  N   UNL     1       2.976   5.388  18.822  0.00  0.00    +0.000 N 
ATOM     20  C   UNL     1       4.285   4.979  19.306  0.00  0.00    +0.000 C 
ENDBRANCH  12  19
ENDBRANCH   1  15
BRANCH   1  21
ATOM     21  C   UNL     1       1.747  11.897  18.485  0.00  0.00    +0.000 C 
BRANCH  21  22
ATOM     22  N   UNL     1       1.154  13.239  18.261  0.00  0.00    +0.000 N 
ATOM     23  C   UNL     1       1.365  14.299  19.125  0.00  0.00    +0.000 C 
ATOM     24  O   UNL     1       2.029  14.177  20.153  0.00  0.00    +0.000 OA
ATOM     25  H   UNL     1       0.671  13.407  17.387  0.00  0.00    +0.000 HD
BRANCH  23  26
ATOM     26  C   UNL     1       0.815  15.659  18.786  0.00  0.00    +0.000 A 
ATOM     27  C   UNL     1      -0.537  15.887  19.126  0.00  0.00    +0.000 A 
ATOM     28  C   UNL     1      -1.184  17.092  18.827  0.00  0.00    +0.000 A 
ATOM     29  C   UNL     1      -0.494  18.115  18.190  0.00  0.00    +0.000 A 
ATOM     30  C   UNL     1       0.835  17.909  17.811  0.00  0.00    +0.000 A 
ATOM     31  C   UNL     1       1.485  16.709  18.122  0.00  0.00    +0.000 A 
ATOM     32 BR   UNL     1       3.264  16.583  17.464  0.00  0.00    +0.000 Br
ENDBRANCH  23  26
ENDBRANCH  21  22
ENDBRANCH   1  21
TORSDOF 6
ENDMDL
MODEL 8
REMARK VINA RESULT:      -7.7      2.914      7.636
REMARK  Name = 
REMARK  8 active torsions:
REMARK  status: ('A' for Active; 'I' for Inactive)
REMARK    1  A    between atoms: C_1  and  N_2
REMARK    2  A    between atoms: N_2  and  C_3
REMARK    3  A    between atoms: N_2  and  C_4
REMARK    4  A    between atoms: C_7  and  C_8
REMARK    5  A    between atoms: C_8  and  C_9
REMARK    6  A    between atoms: C_8  and  C_20
REMARK    7  A    between atoms: C_9  and  N_10
REMARK    8  A    between atoms: C_11  and  C_13
REMARK                            x       y       z     vdW  Elec       q    Type
REMARK                         _______ _______ _______ _____ _____    ______ ____
ROOT
ATOM      1  C   UNL     1       4.439   6.119  18.045  0.00  0.00    +0.000 C 
ENDROOT
BRANCH   1   2
ATOM      2  C   UNL     1       4.238   4.932  19.005  0.00  0.00    +0.000 A 
ATOM      3  C   UNL     1       5.280   4.213  19.559  0.00  0.00    +0.000 A 
ATOM      4  N   UNL     1       4.783   2.955  19.722  0.00  0.00    +0.000 N 
ATOM      5  C   UNL     1       3.522   3.115  20.224  0.00  0.00    +0.000 A 
ATOM      6  C   UNL     1       2.778   2.259  21.041  0.00  0.00    +0.000 A 
ATOM      7  C   UNL     1       1.507   2.678  21.406  0.00  0.00    +0.000 A 
ATOM      8  C   UNL     1       0.978   3.860  20.853  0.00  0.00    +0.000 A 
ATOM      9  C   UNL     1       1.731   4.665  19.967  0.00  0.00    +0.000 A 
ATOM     10  C   UNL     1       3.080   4.338  19.690  0.00  0.00    +0.000 A 
ATOM     11  H   UNL     1       5.047   2.145  19.176  0.00  0.00    +0.000 HD
ENDBRANCH   1   2
BRANCH   1  15
ATOM     12  C   UNL     1       6.465   4.807  14.310  0.00  0.00    +0.000 A 
ATOM     13  C   UNL     1       6.969   5.825  15.121  0.00  0.00    +0.000 A 
ATOM     14  C   UNL     1       6.349   6.204  16.320  0.00  0.00    +0.000 A 
ATOM     15  C   UNL     1       5.144   5.638  16.765  0.00  0.00    +0.000 A 
ATOM     16  C   UNL     1       4.674   4.560  16.007  0.00  0.00    +0.000 A 
ATOM     17  C   UNL     1       5.322   4.160  14.813  0.00  0.00    +0.000 A 
BRANCH  12  19
ATOM     18  C   UNL     1       6.501   3.431  12.243  0.00  0.00    +0.000 C 
ATOM     19  N   UNL     1       7.055   4.486  13.090  0.00  0.00    +0.000 N 
ATOM     20  C   UNL     1       8.088   5.328  12.509  0.00  0.00    +0.000 C 
ENDBRANCH  12  19
ENDBRANCH   1  15
BRANCH   1  21
ATOM     21  C   UNL     1       3.061   6.860  17.750  0.00  0.00    +0.000 C 
BRANCH  21  22
ATOM     22  N   UNL     1       2.903   8.242  18.267  0.00  0.00    +0.000 N 
ATOM     23  C   UNL     1       1.769   8.998  18.035  0.00  0.00    +0.000 C 
ATOM     24  O   UNL     1       0.838   8.579  17.349  0.00  0.00    +0.000 OA
ATOM     25  H   UNL     1       3.606   8.595  18.905  0.00  0.00    +0.000 HD
BRANCH  23  26
ATOM     26  C   UNL     1       1.633  10.356  18.672  0.00  0.00    +0.000 A 
ATOM     27  C   UNL     1       2.282  11.423  18.012  0.00  0.00    +0.000 A 
ATOM     28  C   UNL     1       2.271  12.726  18.521  0.00  0.00    +0.000 A 
ATOM     29  C   UNL     1       1.598  13.009  19.703  0.00  0.00    +0.000 A 
ATOM     30  C   UNL     1       0.974  11.970  20.397  0.00  0.00    +0.000 A 
ATOM     31  C   UNL     1       0.974  10.668  19.880  0.00  0.00    +0.000 A 
ATOM     32 BR   UNL     1       0.139   9.377  20.998  0.00  0.00    +0.000 Br
ENDBRANCH  23  26
ENDBRANCH  21  22
ENDBRANCH   1  21
TORSDOF 6
ENDMDL
MODEL 9
REMARK VINA RESULT:      -7.6      4.956     10.285
REMARK  Name = 
REMARK  8 active torsions:
REMARK  status: ('A' for Active; 'I' for Inactive)
REMARK    1  A    between atoms: C_1  and  N_2
REMARK    2  A    between atoms: N_2  and  C_3
REMARK    3  A    between atoms: N_2  and  C_4
REMARK    4  A    between atoms: C_7  and  C_8
REMARK    5  A    between atoms: C_8  and  C_9
REMARK    6  A    between atoms: C_8  and  C_20
REMARK    7  A    between atoms: C_9  and  N_10
REMARK    8  A    between atoms: C_11  and  C_13
REMARK                            x       y       z     vdW  Elec       q    Type
REMARK                         _______ _______ _______ _____ _____    ______ ____
ROOT
ATOM      1  C   UNL     1       0.711  11.589  19.785  0.00  0.00    +0.000 C 
ENDROOT
BRANCH   1   2
ATOM      2  C   UNL     1      -0.761  11.738  19.360  0.00  0.00    +0.000 A 
ATOM      3  C   UNL     1      -1.593  12.738  19.828  0.00  0.00    +0.000 A 
ATOM      4  N   UNL     1      -2.837  12.180  19.825  0.00  0.00    +0.000 N 
ATOM      5  C   UNL     1      -2.936  11.497  18.646  0.00  0.00    +0.000 A 
ATOM      6  C   UNL     1      -4.072  11.200  17.887  0.00  0.00    +0.000 A 
ATOM      7  C   UNL     1      -3.880  10.483  16.715  0.00  0.00    +0.000 A 
ATOM      8  C   UNL     1      -2.600   9.987  16.404  0.00  0.00    +0.000 A 
ATOM      9  C   UNL     1      -1.485  10.241  17.235  0.00  0.00    +0.000 A 
ATOM     10  C   UNL     1      -1.622  11.088  18.360  0.00  0.00    +0.000 A 
ATOM     11  H   UNL     1      -3.362  11.914  20.649  0.00  0.00    +0.000 HD
ENDBRANCH   1   2
BRANCH   1  15
ATOM     12  C   UNL     1       1.944   7.317  19.709  0.00  0.00    +0.000 A 
ATOM     13  C   UNL     1       1.299   7.894  20.804  0.00  0.00    +0.000 A 
ATOM     14  C   UNL     1       0.873   9.230  20.805  0.00  0.00    +0.000 A 
ATOM     15  C   UNL     1       1.120  10.106  19.736  0.00  0.00    +0.000 A 
ATOM     16  C   UNL     1       1.689   9.520  18.600  0.00  0.00    +0.000 A 
ATOM     17  C   UNL     1       2.087   8.161  18.593  0.00  0.00    +0.000 A 
BRANCH  12  19
ATOM     18  C   UNL     1       1.963   5.075  20.777  0.00  0.00    +0.000 C 
ATOM     19  N   UNL     1       2.418   6.007  19.748  0.00  0.00    +0.000 N 
ATOM     20  C   UNL     1       3.192   5.455  18.648  0.00  0.00    +0.000 C 
ENDBRANCH  12  19
ENDBRANCH   1  15
BRANCH   1  21
ATOM     21  C   UNL     1       1.659  12.519  18.906  0.00  0.00    +0.000 C 
BRANCH  21  22
ATOM     22  N   UNL     1       1.104  13.814  18.439  0.00  0.00    +0.000 N 
ATOM     23  C   UNL     1       1.109  14.952  19.225  0.00  0.00    +0.000 C 
ATOM     24  O   UNL     1       1.541  14.944  20.377  0.00  0.00    +0.000 OA
ATOM     25  H   UNL     1       0.816  13.887  17.471  0.00  0.00    +0.000 HD
BRANCH  23  26
ATOM     26  C   UNL     1       0.620  16.257  18.654  0.00  0.00    +0.000 A 
ATOM     27  C   UNL     1      -0.720  16.600  18.941  0.00  0.00    +0.000 A 
ATOM     28  C   UNL     1      -1.312  17.763  18.435  0.00  0.00    +0.000 A 
ATOM     29  C   UNL     1      -0.578  18.629  17.635  0.00  0.00    +0.000 A 
ATOM     30  C   UNL     1       0.739  18.301  17.304  0.00  0.00    +0.000 A 
ATOM     31  C   UNL     1       1.336  17.144  17.822  0.00  0.00    +0.000 A 
ATOM     32 BR   UNL     1       3.106  16.827  17.206  0.00  0.00    +0.000 Br
ENDBRANCH  23  26
ENDBRANCH  21  22
ENDBRANCH   1  21
TORSDOF 6
ENDMDL
