MODEL 1
REMARK VINA RESULT:      -7.6      0.000      0.000
REMARK  Name = 
REMARK  7 active torsions:
REMARK  status: ('A' for Active; 'I' for Inactive)
REMARK    1  A    between atoms: C_1  and  C_2
REMARK    2  A    between atoms: C_5  and  C_6
REMARK    3  A    between atoms: C_7  and  N_8
REMARK    4  A    between atoms: C_9  and  C_11
REMARK    5  A    between atoms: C_15  and  O_16
REMARK    6  A    between atoms: O_16  and  C_17
REMARK    7  A    between atoms: C_17  and  C_18
REMARK                            x       y       z     vdW  Elec       q    Type
REMARK                         _______ _______ _______ _____ _____    ______ ____
ROOT
ATOM      1  N   UNL     1       5.148   6.386  17.618  0.00  0.00    +0.000 N 
ATOM      2  C   UNL     1       3.823   6.036  17.811  0.00  0.00    +0.000 C 
ATOM      3  O   UNL     1       3.292   4.954  17.588  0.00  0.00    +0.000 OA
ATOM      4  H   UNL     1       5.388   7.349  17.839  0.00  0.00    +0.000 HD
ENDROOT
BRANCH   1  11
ATOM      5  C   UNL     1       7.725   5.575  19.308  0.00  0.00    +0.000 C 
ATOM      6  C   UNL     1       7.340   5.196  17.926  0.00  0.00    +0.000 A 
ATOM      7  N   UNL     1       8.156   4.396  17.234  0.00  0.00    +0.000 NA
ATOM      8  N   UNL     1       7.538   4.251  16.060  0.00  0.00    +0.000 N 
ATOM      9  C   UNL     1       6.359   4.935  15.954  0.00  0.00    +0.000 A 
ATOM     10  C   UNL     1       5.585   4.849  14.692  0.00  0.00    +0.000 C 
ATOM     11  C   UNL     1       6.182   5.572  17.169  0.00  0.00    +0.000 A 
ATOM     12  H   UNL     1       7.980   3.670  15.359  0.00  0.00    +0.000 HD
ENDBRANCH   1  11
BRANCH   2  13
ATOM     13  C   UNL     1       2.960   7.129  18.360  0.00  0.00    +0.000 A 
ATOM     14  C   UNL     1       2.600   8.191  17.530  0.00  0.00    +0.000 A 
ATOM     15  C   UNL     1       1.753   9.170  18.034  0.00  0.00    +0.000 A 
ATOM     16  C   UNL     1       1.294   9.055  19.339  0.00  0.00    +0.000 A 
ATOM     17  C   UNL     1       1.734   7.981  20.099  0.00  0.00    +0.000 A 
ATOM     18  N   UNL     1       2.557   7.010  19.654  0.00  0.00    +0.000 NA
BRANCH  17  19
ATOM     19  O   UNL     1       1.264   7.914  21.393  0.00  0.00    +0.000 OA
BRANCH  19  20
ATOM     20  C   UNL     1       1.092   9.208  21.985  0.00  0.00    +0.000 C 
BRANCH  20  21
ATOM     21  C   UNL     1      -0.299   9.479  22.547  0.00  0.00    +0.000 C 
ATOM     22  F   UNL     1      -0.941  10.501  21.942  0.00  0.00    +0.000 F 
ATOM     23  F   UNL     1      -1.085   8.381  22.439  0.00  0.00    +0.000 F 
ATOM     24  F   UNL     1      -0.225   9.782  23.867  0.00  0.00    +0.000 F 
ENDBRANCH  20  21
ENDBRANCH  19  20
ENDBRANCH  17  19
ENDBRANCH   2  13
TORSDOF 5
ENDMDL
MODEL 2
REMARK VINA RESULT:      -7.6      0.359      1.964
REMARK  Name = 
REMARK  7 active torsions:
REMARK  status: ('A' for Active; 'I' for Inactive)
REMARK    1  A    between atoms: C_1  and  C_2
REMARK    2  A    between atoms: C_5  and  C_6
REMARK    3  A    between atoms: C_7  and  N_8
REMARK    4  A    between atoms: C_9  and  C_11
REMARK    5  A    between atoms: C_15  and  O_16
REMARK    6  A    between atoms: O_16  and  C_17
REMARK    7  A    between atoms: C_17  and  C_18
REMARK                            x       y       z     vdW  Elec       q    Type
REMARK                         _______ _______ _______ _____ _____    ______ ____
ROOT
ATOM      1  N   UNL     1       5.145   6.484  17.736  0.00  0.00    +0.000 N 
ATOM      2  C   UNL     1       3.825   6.108  17.911  0.00  0.00    +0.000 C 
ATOM      3  O   UNL     1       3.323   5.009  17.707  0.00  0.00    +0.000 OA
ATOM      4  H   UNL     1       5.358   7.458  17.935  0.00  0.00    +0.000 HD
ENDROOT
BRANCH   1  11
ATOM      5  C   UNL     1       5.456   5.143  14.862  0.00  0.00    +0.000 C 
ATOM      6  C   UNL     1       6.358   5.082  16.038  0.00  0.00    +0.000 A 
ATOM      7  N   UNL     1       7.487   4.374  15.941  0.00  0.00    +0.000 NA
ATOM      8  N   UNL     1       8.056   4.518  17.139  0.00  0.00    +0.000 N 
ATOM      9  C   UNL     1       7.338   5.280  18.018  0.00  0.00    +0.000 A 
ATOM     10  C   UNL     1       7.873   5.507  19.382  0.00  0.00    +0.000 C 
ATOM     11  C   UNL     1       6.207   5.682  17.331  0.00  0.00    +0.000 A 
ATOM     12  H   UNL     1       8.944   4.061  17.301  0.00  0.00    +0.000 HD
ENDBRANCH   1  11
BRANCH   2  13
ATOM     13  C   UNL     1       2.925   7.196  18.412  0.00  0.00    +0.000 A 
ATOM     14  C   UNL     1       2.536   8.211  17.538  0.00  0.00    +0.000 A 
ATOM     15  C   UNL     1       1.657   9.183  17.998  0.00  0.00    +0.000 A 
ATOM     16  C   UNL     1       1.196   9.107  19.306  0.00  0.00    +0.000 A 
ATOM     17  C   UNL     1       1.666   8.080  20.111  0.00  0.00    +0.000 A 
ATOM     18  N   UNL     1       2.521   7.118  19.709  0.00  0.00    +0.000 NA
BRANCH  17  19
ATOM     19  O   UNL     1       1.193   8.052  21.406  0.00  0.00    +0.000 OA
BRANCH  19  20
ATOM     20  C   UNL     1       1.117   9.357  21.993  0.00  0.00    +0.000 C 
BRANCH  20  21
ATOM     21  C   UNL     1      -0.033   9.553  22.976  0.00  0.00    +0.000 C 
ATOM     22  F   UNL     1       0.299   9.298  24.260  0.00  0.00    +0.000 F 
ATOM     23  F   UNL     1      -0.503  10.822  22.919  0.00  0.00    +0.000 F 
ATOM     24  F   UNL     1      -1.068   8.736  22.662  0.00  0.00    +0.000 F 
ENDBRANCH  20  21
ENDBRANCH  19  20
ENDBRANCH  17  19
ENDBRANCH   2  13
TORSDOF 5
ENDMDL
MODEL 3
REMARK VINA RESULT:      -7.6      2.251      3.339
REMARK  Name = 
REMARK  7 active torsions:
REMARK  status: ('A' for Active; 'I' for Inactive)
REMARK    1  A    between atoms: C_1  and  C_2
REMARK    2  A    between atoms: C_5  and  C_6
REMARK    3  A    between atoms: C_7  and  N_8
REMARK    4  A    between atoms: C_9  and  C_11
REMARK    5  A    between atoms: C_15  and  O_16
REMARK    6  A    between atoms: O_16  and  C_17
REMARK    7  A    between atoms: C_17  and  C_18
REMARK                            x       y       z     vdW  Elec       q    Type
REMARK                         _______ _______ _______ _____ _____    ______ ____
ROOT
ATOM      1  N   UNL     1       4.784   4.953  17.228  0.00  0.00    +0.000 N 
ATOM      2  C   UNL     1       4.731   4.308  18.451  0.00  0.00    +0.000 C 
ATOM      3  O   UNL     1       5.662   3.836  19.093  0.00  0.00    +0.000 OA
ATOM      4  H   UNL     1       3.890   5.248  16.844  0.00  0.00    +0.000 HD
ENDROOT
BRANCH   1  11
ATOM      5  C   UNL     1       5.337   3.959  14.251  0.00  0.00    +0.000 C 
ATOM      6  C   UNL     1       6.168   4.814  15.135  0.00  0.00    +0.000 A 
ATOM      7  N   UNL     1       7.336   5.267  14.669  0.00  0.00    +0.000 NA
ATOM      8  N   UNL     1       7.824   5.985  15.682  0.00  0.00    +0.000 N 
ATOM      9  C   UNL     1       7.029   6.007  16.794  0.00  0.00    +0.000 A 
ATOM     10  C   UNL     1       7.471   6.774  17.984  0.00  0.00    +0.000 C 
ATOM     11  C   UNL     1       5.916   5.250  16.477  0.00  0.00    +0.000 A 
ATOM     12  H   UNL     1       8.720   6.437  15.555  0.00  0.00    +0.000 HD
ENDBRANCH   1  11
BRANCH   2  13
ATOM     13  C   UNL     1       3.357   4.186  19.036  0.00  0.00    +0.000 A 
ATOM     14  C   UNL     1       2.626   3.019  18.816  0.00  0.00    +0.000 A 
ATOM     15  C   UNL     1       1.377   2.895  19.410  0.00  0.00    +0.000 A 
ATOM     16  C   UNL     1       0.904   3.933  20.202  0.00  0.00    +0.000 A 
ATOM     17  C   UNL     1       1.687   5.070  20.334  0.00  0.00    +0.000 A 
ATOM     18  N   UNL     1       2.903   5.235  19.774  0.00  0.00    +0.000 NA
BRANCH  17  19
ATOM     19  O   UNL     1       1.172   6.081  21.117  0.00  0.00    +0.000 OA
BRANCH  19  20
ATOM     20  C   UNL     1       1.679   7.372  20.754  0.00  0.00    +0.000 C 
BRANCH  20  21
ATOM     21  C   UNL     1       0.773   8.544  21.117  0.00  0.00    +0.000 C 
ATOM     22  F   UNL     1       1.304   9.378  22.035  0.00  0.00    +0.000 F 
ATOM     23  F   UNL     1       0.475   9.280  20.019  0.00  0.00    +0.000 F 
ATOM     24  F   UNL     1      -0.403   8.094  21.620  0.00  0.00    +0.000 F 
ENDBRANCH  20  21
ENDBRANCH  19  20
ENDBRANCH  17  19
ENDBRANCH   2  13
TORSDOF 5
ENDMDL
MODEL 4
REMARK VINA RESULT:      -7.4      2.218      2.873
REMARK  Name = 
REMARK  7 active torsions:
REMARK  status: ('A' for Active; 'I' for Inactive)
REMARK    1  A    between atoms: C_1  and  C_2
REMARK    2  A    between atoms: C_5  and  C_6
REMARK    3  A    between atoms: C_7  and  N_8
REMARK    4  A    between atoms: C_9  and  C_11
REMARK    5  A    between atoms: C_15  and  O_16
REMARK    6  A    between atoms: O_16  and  C_17
REMARK    7  A    between atoms: C_17  and  C_18
REMARK                            x       y       z     vdW  Elec       q    Type
REMARK                         _______ _______ _______ _____ _____    ______ ____
ROOT
ATOM      1  N   UNL     1       4.728   4.999  17.331  0.00  0.00    +0.000 N 
ATOM      2  C   UNL     1       4.736   4.363  18.560  0.00  0.00    +0.000 C 
ATOM      3  O   UNL     1       5.692   3.864  19.141  0.00  0.00    +0.000 OA
ATOM      4  H   UNL     1       3.819   5.322  17.006  0.00  0.00    +0.000 HD
ENDROOT
BRANCH   1  11
ATOM      5  C   UNL     1       7.265   6.764  18.104  0.00  0.00    +0.000 C 
ATOM      6  C   UNL     1       6.963   6.040  16.845  0.00  0.00    +0.000 A 
ATOM      7  N   UNL     1       7.850   6.097  15.847  0.00  0.00    +0.000 NA
ATOM      8  N   UNL     1       7.293   5.361  14.885  0.00  0.00    +0.000 N 
ATOM      9  C   UNL     1       6.072   4.836  15.209  0.00  0.00    +0.000 A 
ATOM     10  C   UNL     1       5.357   4.001  14.214  0.00  0.00    +0.000 C 
ATOM     11  C   UNL     1       5.815   5.254  16.502  0.00  0.00    +0.000 A 
ATOM     12  H   UNL     1       7.797   5.257  14.014  0.00  0.00    +0.000 HD
ENDBRANCH   1  11
BRANCH   2  13
ATOM     13  C   UNL     1       3.402   4.292  19.237  0.00  0.00    +0.000 A 
ATOM     14  C   UNL     1       2.696   3.089  19.222  0.00  0.00    +0.000 A 
ATOM     15  C   UNL     1       1.486   3.020  19.901  0.00  0.00    +0.000 A 
ATOM     16  C   UNL     1       1.027   4.145  20.572  0.00  0.00    +0.000 A 
ATOM     17  C   UNL     1       1.782   5.307  20.502  0.00  0.00    +0.000 A 
ATOM     18  N   UNL     1       2.958   5.421  19.853  0.00  0.00    +0.000 NA
BRANCH  17  19
ATOM     19  O   UNL     1       1.282   6.403  21.172  0.00  0.00    +0.000 OA
BRANCH  19  20
ATOM     20  C   UNL     1       1.664   7.643  20.562  0.00  0.00    +0.000 C 
BRANCH  20  21
ATOM     21  C   UNL     1       0.736   8.817  20.855  0.00  0.00    +0.000 C 
ATOM     22  F   UNL     1       1.265   9.733  21.694  0.00  0.00    +0.000 F 
ATOM     23  F   UNL     1       0.395   9.458  19.711  0.00  0.00    +0.000 F 
ATOM     24  F   UNL     1      -0.417   8.379  21.419  0.00  0.00    +0.000 F 
ENDBRANCH  20  21
ENDBRANCH  19  20
ENDBRANCH  17  19
ENDBRANCH   2  13
TORSDOF 5
ENDMDL
MODEL 5
REMARK VINA RESULT:      -7.3      5.680      8.361
REMARK  Name = 
REMARK  7 active torsions:
REMARK  status: ('A' for Active; 'I' for Inactive)
REMARK    1  A    between atoms: C_1  and  C_2
REMARK    2  A    between atoms: C_5  and  C_6
REMARK    3  A    between atoms: C_7  and  N_8
REMARK    4  A    between atoms: C_9  and  C_11
REMARK    5  A    between atoms: C_15  and  O_16
REMARK    6  A    between atoms: O_16  and  C_17
REMARK    7  A    between atoms: C_17  and  C_18
REMARK                            x       y       z     vdW  Elec       q    Type
REMARK                         _______ _______ _______ _____ _____    ______ ____
ROOT
ATOM      1  N   UNL     1       3.460   4.678  18.509  0.00  0.00    +0.000 N 
ATOM      2  C   UNL     1       4.782   4.287  18.634  0.00  0.00    +0.000 C 
ATOM      3  O   UNL     1       5.242   3.419  19.366  0.00  0.00    +0.000 OA
ATOM      4  H   UNL     1       3.285   5.443  17.862  0.00  0.00    +0.000 HD
ENDROOT
BRANCH   1  11
ATOM      5  C   UNL     1       2.222   1.794  17.959  0.00  0.00    +0.000 C 
ATOM      6  C   UNL     1       1.795   2.841  18.920  0.00  0.00    +0.000 A 
ATOM      7  N   UNL     1       0.739   2.598  19.700  0.00  0.00    +0.000 NA
ATOM      8  N   UNL     1       0.620   3.709  20.429  0.00  0.00    +0.000 N 
ATOM      9  C   UNL     1       1.547   4.673  20.146  0.00  0.00    +0.000 A 
ATOM     10  C   UNL     1       1.511   5.952  20.893  0.00  0.00    +0.000 C 
ATOM     11  C   UNL     1       2.353   4.140  19.156  0.00  0.00    +0.000 A 
ATOM     12  H   UNL     1      -0.129   3.754  21.108  0.00  0.00    +0.000 HD
ENDBRANCH   1  11
BRANCH   2  13
ATOM     13  C   UNL     1       5.741   5.030  17.756  0.00  0.00    +0.000 A 
ATOM     14  C   UNL     1       6.500   6.065  18.303  0.00  0.00    +0.000 A 
ATOM     15  C   UNL     1       7.426   6.710  17.493  0.00  0.00    +0.000 A 
ATOM     16  C   UNL     1       7.566   6.300  16.174  0.00  0.00    +0.000 A 
ATOM     17  C   UNL     1       6.742   5.284  15.710  0.00  0.00    +0.000 A 
ATOM     18  N   UNL     1       5.829   4.633  16.458  0.00  0.00    +0.000 NA
BRANCH  17  19
ATOM     19  O   UNL     1       6.906   4.918  14.391  0.00  0.00    +0.000 OA
BRANCH  19  20
ATOM     20  C   UNL     1       6.160   3.743  14.049  0.00  0.00    +0.000 C 
BRANCH  20  21
ATOM     21  C   UNL     1       5.986   3.505  12.552  0.00  0.00    +0.000 C 
ATOM     22  F   UNL     1       6.868   4.181  11.787  0.00  0.00    +0.000 F 
ATOM     23  F   UNL     1       6.112   2.189  12.257  0.00  0.00    +0.000 F 
ATOM     24  F   UNL     1       4.745   3.880  12.155  0.00  0.00    +0.000 F 
ENDBRANCH  20  21
ENDBRANCH  19  20
ENDBRANCH  17  19
ENDBRANCH   2  13
TORSDOF 5
ENDMDL
MODEL 6
REMARK VINA RESULT:      -7.2      2.247      3.138
REMARK  Name = 
REMARK  7 active torsions:
REMARK  status: ('A' for Active; 'I' for Inactive)
REMARK    1  A    between atoms: C_1  and  C_2
REMARK    2  A    between atoms: C_5  and  C_6
REMARK    3  A    between atoms: C_7  and  N_8
REMARK    4  A    between atoms: C_9  and  C_11
REMARK    5  A    between atoms: C_15  and  O_16
REMARK    6  A    between atoms: O_16  and  C_17
REMARK    7  A    between atoms: C_17  and  C_18
REMARK                            x       y       z     vdW  Elec       q    Type
REMARK                         _______ _______ _______ _____ _____    ______ ____
ROOT
ATOM      1  N   UNL     1       3.179   5.870  18.792  0.00  0.00    +0.000 N 
ATOM      2  C   UNL     1       2.378   6.494  19.733  0.00  0.00    +0.000 C 
ATOM      3  O   UNL     1       2.021   6.060  20.822  0.00  0.00    +0.000 OA
ATOM      4  H   UNL     1       3.337   6.390  17.932  0.00  0.00    +0.000 HD
ENDROOT
BRANCH   1  11
ATOM      5  C   UNL     1       1.714   3.052  18.533  0.00  0.00    +0.000 C 
ATOM      6  C   UNL     1       3.146   3.358  18.772  0.00  0.00    +0.000 A 
ATOM      7  N   UNL     1       4.001   2.340  18.907  0.00  0.00    +0.000 NA
ATOM      8  N   UNL     1       5.177   2.937  19.106  0.00  0.00    +0.000 N 
ATOM      9  C   UNL     1       5.122   4.303  19.120  0.00  0.00    +0.000 A 
ATOM     10  C   UNL     1       6.370   5.075  19.335  0.00  0.00    +0.000 C 
ATOM     11  C   UNL     1       3.797   4.629  18.895  0.00  0.00    +0.000 A 
ATOM     12  H   UNL     1       5.992   2.351  19.235  0.00  0.00    +0.000 HD
ENDBRANCH   1  11
BRANCH   2  13
ATOM     13  C   UNL     1       1.905   7.861  19.346  0.00  0.00    +0.000 A 
ATOM     14  C   UNL     1       2.166   8.331  18.058  0.00  0.00    +0.000 A 
ATOM     15  C   UNL     1       1.674   9.577  17.694  0.00  0.00    +0.000 A 
ATOM     16  C   UNL     1       0.938  10.306  18.618  0.00  0.00    +0.000 A 
ATOM     17  C   UNL     1       0.760   9.772  19.886  0.00  0.00    +0.000 A 
ATOM     18  N   UNL     1       1.221   8.569  20.285  0.00  0.00    +0.000 NA
BRANCH  17  19
ATOM     19  O   UNL     1       0.035  10.536  20.776  0.00  0.00    +0.000 OA
BRANCH  19  20
ATOM     20  C   UNL     1       0.511  10.413  22.122  0.00  0.00    +0.000 C 
BRANCH  20  21
ATOM     21  C   UNL     1      -0.436   9.693  23.077  0.00  0.00    +0.000 C 
ATOM     22  F   UNL     1       0.136   9.337  24.246  0.00  0.00    +0.000 F 
ATOM     23  F   UNL     1      -1.509  10.468  23.365  0.00  0.00    +0.000 F 
ATOM     24  F   UNL     1      -0.911   8.559  22.505  0.00  0.00    +0.000 F 
ENDBRANCH  20  21
ENDBRANCH  19  20
ENDBRANCH  17  19
ENDBRANCH   2  13
TORSDOF 5
ENDMDL
MODEL 7
REMARK VINA RESULT:      -7.2      2.492      3.393
REMARK  Name = 
REMARK  7 active torsions:
REMARK  status: ('A' for Active; 'I' for Inactive)
REMARK    1  A    between atoms: C_1  and  C_2
REMARK    2  A    between atoms: C_5  and  C_6
REMARK    3  A    between atoms: C_7  and  N_8
REMARK    4  A    between atoms: C_9  and  C_11
REMARK    5  A    between atoms: C_15  and  O_16
REMARK    6  A    between atoms: O_16  and  C_17
REMARK    7  A    between atoms: C_17  and  C_18
REMARK                            x       y       z     vdW  Elec       q    Type
REMARK                         _______ _______ _______ _____ _____    ______ ____
ROOT
ATOM      1  N   UNL     1       2.358   5.273  18.273  0.00  0.00    +0.000 N 
ATOM      2  C   UNL     1       2.302   6.069  19.403  0.00  0.00    +0.000 C 
ATOM      3  O   UNL     1       2.449   5.728  20.570  0.00  0.00    +0.000 OA
ATOM      4  H   UNL     1       2.179   5.744  17.389  0.00  0.00    +0.000 HD
ENDROOT
BRANCH   1  11
ATOM      5  C   UNL     1       4.860   3.974  16.787  0.00  0.00    +0.000 C 
ATOM      6  C   UNL     1       3.767   3.321  17.549  0.00  0.00    +0.000 A 
ATOM      7  N   UNL     1       3.778   1.990  17.667  0.00  0.00    +0.000 NA
ATOM      8  N   UNL     1       2.688   1.727  18.390  0.00  0.00    +0.000 N 
ATOM      9  C   UNL     1       1.960   2.830  18.738  0.00  0.00    +0.000 A 
ATOM     10  C   UNL     1       0.727   2.659  19.543  0.00  0.00    +0.000 C 
ATOM     11  C   UNL     1       2.640   3.913  18.209  0.00  0.00    +0.000 A 
ATOM     12  H   UNL     1       2.488   0.760  18.612  0.00  0.00    +0.000 HD
ENDBRANCH   1  11
BRANCH   2  13
ATOM     13  C   UNL     1       2.028   7.517  19.136  0.00  0.00    +0.000 A 
ATOM     14  C   UNL     1       2.430   8.072  17.921  0.00  0.00    +0.000 A 
ATOM     15  C   UNL     1       2.120   9.401  17.662  0.00  0.00    +0.000 A 
ATOM     16  C   UNL     1       1.419  10.126  18.617  0.00  0.00    +0.000 A 
ATOM     17  C   UNL     1       1.091   9.498  19.810  0.00  0.00    +0.000 A 
ATOM     18  N   UNL     1       1.374   8.213  20.105  0.00  0.00    +0.000 NA
BRANCH  17  19
ATOM     19  O   UNL     1       0.407  10.259  20.734  0.00  0.00    +0.000 OA
BRANCH  19  20
ATOM     20  C   UNL     1       0.839  10.012  22.078  0.00  0.00    +0.000 C 
BRANCH  20  21
ATOM     21  C   UNL     1      -0.264   9.582  23.040  0.00  0.00    +0.000 C 
ATOM     22  F   UNL     1       0.185   9.231  24.263  0.00  0.00    +0.000 F 
ATOM     23  F   UNL     1      -1.172  10.574  23.205  0.00  0.00    +0.000 F 
ATOM     24  F   UNL     1      -0.936   8.515  22.541  0.00  0.00    +0.000 F 
ENDBRANCH  20  21
ENDBRANCH  19  20
ENDBRANCH  17  19
ENDBRANCH   2  13
TORSDOF 5
ENDMDL
MODEL 8
REMARK VINA RESULT:      -7.1      2.538      3.204
REMARK  Name = 
REMARK  7 active torsions:
REMARK  status: ('A' for Active; 'I' for Inactive)
REMARK    1  A    between atoms: C_1  and  C_2
REMARK    2  A    between atoms: C_5  and  C_6
REMARK    3  A    between atoms: C_7  and  N_8
REMARK    4  A    between atoms: C_9  and  C_11
REMARK    5  A    between atoms: C_15  and  O_16
REMARK    6  A    between atoms: O_16  and  C_17
REMARK    7  A    between atoms: C_17  and  C_18
REMARK                            x       y       z     vdW  Elec       q    Type
REMARK                         _______ _______ _______ _____ _____    ______ ____
ROOT
ATOM      1  N   UNL     1       4.645   4.596  16.885  0.00  0.00    +0.000 N 
ATOM      2  C   UNL     1       4.624   3.963  18.115  0.00  0.00    +0.000 C 
ATOM      3  O   UNL     1       5.580   3.574  18.776  0.00  0.00    +0.000 OA
ATOM      4  H   UNL     1       3.735   4.815  16.484  0.00  0.00    +0.000 HD
ENDROOT
BRANCH   1  11
ATOM      5  C   UNL     1       6.943   6.564  17.883  0.00  0.00    +0.000 C 
ATOM      6  C   UNL     1       6.802   5.851  16.590  0.00  0.00    +0.000 A 
ATOM      7  N   UNL     1       7.749   6.019  15.662  0.00  0.00    +0.000 NA
ATOM      8  N   UNL     1       7.334   5.262  14.645  0.00  0.00    +0.000 N 
ATOM      9  C   UNL     1       6.148   4.619  14.866  0.00  0.00    +0.000 A 
ATOM     10  C   UNL     1       5.589   3.750  13.803  0.00  0.00    +0.000 C 
ATOM     11  C   UNL     1       5.760   4.973  16.145  0.00  0.00    +0.000 A 
ATOM     12  H   UNL     1       7.908   5.230  13.812  0.00  0.00    +0.000 HD
ENDBRANCH   1  11
BRANCH   2  13
ATOM     13  C   UNL     1       3.256   3.740  18.682  0.00  0.00    +0.000 A 
ATOM     14  C   UNL     1       2.649   2.495  18.522  0.00  0.00    +0.000 A 
ATOM     15  C   UNL     1       1.404   2.283  19.100  0.00  0.00    +0.000 A 
ATOM     16  C   UNL     1       0.813   3.313  19.819  0.00  0.00    +0.000 A 
ATOM     17  C   UNL     1       1.478   4.528  19.895  0.00  0.00    +0.000 A 
ATOM     18  N   UNL     1       2.684   4.780  19.347  0.00  0.00    +0.000 NA
BRANCH  17  19
ATOM     19  O   UNL     1       0.848   5.528  20.607  0.00  0.00    +0.000 OA
BRANCH  19  20
ATOM     20  C   UNL     1       1.743   6.581  20.986  0.00  0.00    +0.000 C 
BRANCH  20  21
ATOM     21  C   UNL     1       1.117   7.971  21.031  0.00  0.00    +0.000 C 
ATOM     22  F   UNL     1       1.119   8.607  19.840  0.00  0.00    +0.000 F 
ATOM     23  F   UNL     1      -0.166   7.908  21.460  0.00  0.00    +0.000 F 
ATOM     24  F   UNL     1       1.786   8.763  21.906  0.00  0.00    +0.000 F 
ENDBRANCH  20  21
ENDBRANCH  19  20
ENDBRANCH  17  19
ENDBRANCH   2  13
TORSDOF 5
ENDMDL
MODEL 9
REMARK VINA RESULT:      -7.1      5.649      8.258
REMARK  Name = 
REMARK  7 active torsions:
REMARK  status: ('A' for Active; 'I' for Inactive)
REMARK    1  A    between atoms: C_1  and  C_2
REMARK    2  A    between atoms: C_5  and  C_6
REMARK    3  A    between atoms: C_7  and  N_8
REMARK    4  A    between atoms: C_9  and  C_11
REMARK    5  A    between atoms: C_15  and  O_16
REMARK    6  A    between atoms: O_16  and  C_17
REMARK    7  A    between atoms: C_17  and  C_18
REMARK                            x       y       z     vdW  Elec       q    Type
REMARK                         _______ _______ _______ _____ _____    ______ ____
ROOT
ATOM      1  N   UNL     1       3.500   4.643  18.585  0.00  0.00    +0.000 N 
ATOM      2  C   UNL     1       4.839   4.325  18.733  0.00  0.00    +0.000 C 
ATOM      3  O   UNL     1       5.338   3.518  19.509  0.00  0.00    +0.000 OA
ATOM      4  H   UNL     1       3.290   5.365  17.900  0.00  0.00    +0.000 HD
ENDROOT
BRANCH   1  11
ATOM      5  C   UNL     1       1.640   6.158  20.682  0.00  0.00    +0.000 C 
ATOM      6  C   UNL     1       1.572   4.760  20.192  0.00  0.00    +0.000 A 
ATOM      7  N   UNL     1       0.606   3.965  20.664  0.00  0.00    +0.000 NA
ATOM      8  N   UNL     1       0.818   2.805  20.041  0.00  0.00    +0.000 N 
ATOM      9  C   UNL     1       1.890   2.805  19.193  0.00  0.00    +0.000 A 
ATOM     10  C   UNL     1       2.222   1.568  18.447  0.00  0.00    +0.000 C 
ATOM     11  C   UNL     1       2.418   4.083  19.254  0.00  0.00    +0.000 A 
ATOM     12  H   UNL     1       0.193   2.035  20.244  0.00  0.00    +0.000 HD
ENDBRANCH   1  11
BRANCH   2  13
ATOM     13  C   UNL     1       5.765   5.071  17.823  0.00  0.00    +0.000 A 
ATOM     14  C   UNL     1       6.643   6.008  18.367  0.00  0.00    +0.000 A 
ATOM     15  C   UNL     1       7.535   6.653  17.520  0.00  0.00    +0.000 A 
ATOM     16  C   UNL     1       7.524   6.340  16.167  0.00  0.00    +0.000 A 
ATOM     17  C   UNL     1       6.590   5.420  15.713  0.00  0.00    +0.000 A 
ATOM     18  N   UNL     1       5.704   4.772  16.497  0.00  0.00    +0.000 NA
BRANCH  17  19
ATOM     19  O   UNL     1       6.606   5.149  14.361  0.00  0.00    +0.000 OA
BRANCH  19  20
ATOM     20  C   UNL     1       6.209   3.804  14.065  0.00  0.00    +0.000 C 
BRANCH  20  21
ATOM     21  C   UNL     1       5.947   3.521  12.589  0.00  0.00    +0.000 C 
ATOM     22  F   UNL     1       6.088   2.222  12.250  0.00  0.00    +0.000 F 
ATOM     23  F   UNL     1       4.694   3.902  12.240  0.00  0.00    +0.000 F 
ATOM     24  F   UNL     1       6.804   4.230  11.813  0.00  0.00    +0.000 F 
ENDBRANCH  20  21
ENDBRANCH  19  20
ENDBRANCH  17  19
ENDBRANCH   2  13
TORSDOF 5
ENDMDL
