MODEL 1
REMARK VINA RESULT:      -7.9      0.000      0.000
REMARK  Name = 
REMARK  4 active torsions:
REMARK  status: ('A' for Active; 'I' for Inactive)
REMARK    1  A    between atoms: C_1  and  C_2
REMARK    2  A    between atoms: C_8  and  C_9
REMARK    3  A    between atoms: C_10  and  C_11
REMARK    4  A    between atoms: C_15  and  N_16
REMARK                            x       y       z     vdW  Elec       q    Type
REMARK                         _______ _______ _______ _____ _____    ______ ____
ROOT
ATOM      1  C   UNL     1       8.178   7.806  18.412  0.00  0.00    +0.000 C 
ATOM      2  C   UNL     1       8.166   9.057  17.916  0.00  0.00    +0.000 C 
ENDROOT
BRANCH   1  10
ATOM      3  C   UNL     1       3.577   2.179  17.925  0.00  0.00    +0.000 C 
ATOM      4  C   UNL     1       4.344   3.440  18.234  0.00  0.00    +0.000 C 
ATOM      5  O   UNL     1       4.113   4.070  19.260  0.00  0.00    +0.000 OA
ATOM      6  N   UNL     1       5.252   3.763  17.253  0.00  0.00    +0.000 N 
ATOM      7  C   UNL     1       6.090   4.855  17.281  0.00  0.00    +0.000 A 
ATOM      8  N   UNL     1       6.679   5.327  16.207  0.00  0.00    +0.000 NA
ATOM      9  N   UNL     1       7.447   6.443  16.485  0.00  0.00    +0.000 NA
ATOM     10  C   UNL     1       7.473   6.745  17.772  0.00  0.00    +0.000 A 
ATOM     11  S   UNL     1       6.525   5.651  18.722  0.00  0.00    +0.000 S 
ATOM     12  H   UNL     1       5.182   3.323  16.345  0.00  0.00    +0.000 HD
ENDBRANCH   1  10
BRANCH   2  13
ATOM     13  C   UNL     1       8.902  10.186  18.509  0.00  0.00    +0.000 A 
ATOM     14  C   UNL     1       9.290  10.121  19.855  0.00  0.00    +0.000 A 
ATOM     15  C   UNL     1       9.936  11.199  20.474  0.00  0.00    +0.000 A 
ATOM     16  C   UNL     1      10.192  12.363  19.757  0.00  0.00    +0.000 A 
ATOM     17  C   UNL     1       9.804  12.444  18.417  0.00  0.00    +0.000 A 
ATOM     18  C   UNL     1       9.159  11.364  17.790  0.00  0.00    +0.000 A 
BRANCH  17  19
ATOM     19  N   UNL     1      10.053  13.674  17.656  0.00  0.00    +0.000 N 
ATOM     20  O   UNL     1       9.273  14.622  17.821  0.00  0.00    +0.000 OA
ATOM     21  O   UNL     1      11.032  13.694  16.894  0.00  0.00    +0.000 OA
ENDBRANCH  17  19
ENDBRANCH   2  13
TORSDOF 3
ENDMDL
MODEL 2
REMARK VINA RESULT:      -7.7      6.448      8.646
REMARK  Name = 
REMARK  4 active torsions:
REMARK  status: ('A' for Active; 'I' for Inactive)
REMARK    1  A    between atoms: C_1  and  C_2
REMARK    2  A    between atoms: C_8  and  C_9
REMARK    3  A    between atoms: C_10  and  C_11
REMARK    4  A    between atoms: C_15  and  N_16
REMARK                            x       y       z     vdW  Elec       q    Type
REMARK                         _______ _______ _______ _____ _____    ______ ____
ROOT
ATOM      1  C   UNL     1       2.293   7.681  19.234  0.00  0.00    +0.000 C 
ATOM      2  C   UNL     1       2.762   7.438  17.997  0.00  0.00    +0.000 C 
ENDROOT
BRANCH   1  10
ATOM      3  C   UNL     1      -1.932  12.041  23.261  0.00  0.00    +0.000 C 
ATOM      4  C   UNL     1      -0.915  11.091  22.681  0.00  0.00    +0.000 C 
ATOM      5  O   UNL     1      -0.241  10.379  23.417  0.00  0.00    +0.000 OA
ATOM      6  N   UNL     1      -0.846  11.158  21.309  0.00  0.00    +0.000 N 
ATOM      7  C   UNL     1      -0.013  10.397  20.521  0.00  0.00    +0.000 A 
ATOM      8  N   UNL     1       0.283  10.716  19.283  0.00  0.00    +0.000 NA
ATOM      9  N   UNL     1       1.160   9.813  18.709  0.00  0.00    +0.000 NA
ATOM     10  C   UNL     1       1.450   8.799  19.506  0.00  0.00    +0.000 A 
ATOM     11  S   UNL     1       0.649   8.915  21.036  0.00  0.00    +0.000 S 
ATOM     12  H   UNL     1      -1.257  11.948  20.828  0.00  0.00    +0.000 HD
ENDBRANCH   1  10
BRANCH   2  13
ATOM     13  C   UNL     1       3.604   6.283  17.645  0.00  0.00    +0.000 A 
ATOM     14  C   UNL     1       3.055   4.993  17.699  0.00  0.00    +0.000 A 
ATOM     15  C   UNL     1       3.839   3.863  17.434  0.00  0.00    +0.000 A 
ATOM     16  C   UNL     1       5.187   4.007  17.121  0.00  0.00    +0.000 A 
ATOM     17  C   UNL     1       5.747   5.285  17.071  0.00  0.00    +0.000 A 
ATOM     18  C   UNL     1       4.965   6.423  17.333  0.00  0.00    +0.000 A 
BRANCH  17  19
ATOM     19  N   UNL     1       7.172   5.448  16.760  0.00  0.00    +0.000 N 
ATOM     20  O   UNL     1       7.906   4.458  16.885  0.00  0.00    +0.000 OA
ATOM     21  O   UNL     1       7.559   6.566  16.387  0.00  0.00    +0.000 OA
ENDBRANCH  17  19
ENDBRANCH   2  13
TORSDOF 3
ENDMDL
MODEL 3
REMARK VINA RESULT:      -7.6      6.736      8.619
REMARK  Name = 
REMARK  4 active torsions:
REMARK  status: ('A' for Active; 'I' for Inactive)
REMARK    1  A    between atoms: C_1  and  C_2
REMARK    2  A    between atoms: C_8  and  C_9
REMARK    3  A    between atoms: C_10  and  C_11
REMARK    4  A    between atoms: C_15  and  N_16
REMARK                            x       y       z     vdW  Elec       q    Type
REMARK                         _______ _______ _______ _____ _____    ______ ____
ROOT
ATOM      1  C   UNL     1       4.410   3.999  16.642  0.00  0.00    +0.000 C 
ATOM      2  C   UNL     1       5.238   4.832  15.986  0.00  0.00    +0.000 C 
ENDROOT
BRANCH   1  10
ATOM      3  C   UNL     1       1.311   8.487  21.472  0.00  0.00    +0.000 C 
ATOM      4  C   UNL     1       1.827   7.734  20.272  0.00  0.00    +0.000 C 
ATOM      5  O   UNL     1       1.800   8.248  19.159  0.00  0.00    +0.000 OA
ATOM      6  N   UNL     1       2.273   6.471  20.587  0.00  0.00    +0.000 N 
ATOM      7  C   UNL     1       2.803   5.573  19.689  0.00  0.00    +0.000 A 
ATOM      8  N   UNL     1       2.891   4.287  19.937  0.00  0.00    +0.000 NA
ATOM      9  N   UNL     1       3.431   3.589  18.873  0.00  0.00    +0.000 NA
ATOM     10  C   UNL     1       3.799   4.373  17.875  0.00  0.00    +0.000 A 
ATOM     11  S   UNL     1       3.483   6.044  18.201  0.00  0.00    +0.000 S 
ATOM     12  H   UNL     1       2.017   6.061  21.476  0.00  0.00    +0.000 HD
ENDBRANCH   1  10
BRANCH   2  13
ATOM     13  C   UNL     1       5.870   4.520  14.693  0.00  0.00    +0.000 A 
ATOM     14  C   UNL     1       7.068   5.158  14.343  0.00  0.00    +0.000 A 
ATOM     15  C   UNL     1       7.668   4.937  13.097  0.00  0.00    +0.000 A 
ATOM     16  C   UNL     1       7.070   4.082  12.177  0.00  0.00    +0.000 A 
ATOM     17  C   UNL     1       5.872   3.445  12.510  0.00  0.00    +0.000 A 
ATOM     18  C   UNL     1       5.267   3.661  13.761  0.00  0.00    +0.000 A 
BRANCH  17  19
ATOM     19  N   UNL     1       5.223   2.555  11.541  0.00  0.00    +0.000 N 
ATOM     20  O   UNL     1       5.802   1.500  11.249  0.00  0.00    +0.000 OA
ATOM     21  O   UNL     1       4.130   2.909  11.072  0.00  0.00    +0.000 OA
ENDBRANCH  17  19
ENDBRANCH   2  13
TORSDOF 3
ENDMDL
MODEL 4
REMARK VINA RESULT:      -7.3      5.772      6.826
REMARK  Name = 
REMARK  4 active torsions:
REMARK  status: ('A' for Active; 'I' for Inactive)
REMARK    1  A    between atoms: C_1  and  C_2
REMARK    2  A    between atoms: C_8  and  C_9
REMARK    3  A    between atoms: C_10  and  C_11
REMARK    4  A    between atoms: C_15  and  N_16
REMARK                            x       y       z     vdW  Elec       q    Type
REMARK                         _______ _______ _______ _____ _____    ______ ____
ROOT
ATOM      1  C   UNL     1       5.095   6.664  16.741  0.00  0.00    +0.000 C 
ATOM      2  C   UNL     1       4.017   6.153  17.360  0.00  0.00    +0.000 C 
ENDROOT
BRANCH   1  10
ATOM      3  C   UNL     1       6.250   2.010  11.257  0.00  0.00    +0.000 C 
ATOM      4  C   UNL     1       5.766   3.044  12.243  0.00  0.00    +0.000 C 
ATOM      5  O   UNL     1       4.609   3.444  12.203  0.00  0.00    +0.000 OA
ATOM      6  N   UNL     1       6.754   3.456  13.108  0.00  0.00    +0.000 N 
ATOM      7  C   UNL     1       6.587   4.381  14.113  0.00  0.00    +0.000 A 
ATOM      8  N   UNL     1       7.594   5.003  14.681  0.00  0.00    +0.000 NA
ATOM      9  N   UNL     1       7.173   5.904  15.642  0.00  0.00    +0.000 NA
ATOM     10  C   UNL     1       5.864   5.891  15.822  0.00  0.00    +0.000 A 
ATOM     11  S   UNL     1       5.069   4.751  14.789  0.00  0.00    +0.000 S 
ATOM     12  H   UNL     1       7.721   3.252  12.892  0.00  0.00    +0.000 HD
ENDBRANCH   1  10
BRANCH   2  13
ATOM     13  C   UNL     1       3.161   6.910  18.290  0.00  0.00    +0.000 A 
ATOM     14  C   UNL     1       2.779   6.321  19.504  0.00  0.00    +0.000 A 
ATOM     15  C   UNL     1       1.916   6.982  20.387  0.00  0.00    +0.000 A 
ATOM     16  C   UNL     1       1.414   8.238  20.063  0.00  0.00    +0.000 A 
ATOM     17  C   UNL     1       1.781   8.832  18.853  0.00  0.00    +0.000 A 
ATOM     18  C   UNL     1       2.649   8.175  17.964  0.00  0.00    +0.000 A 
BRANCH  17  19
ATOM     19  N   UNL     1       1.243  10.149  18.492  0.00  0.00    +0.000 N 
ATOM     20  O   UNL     1       0.013  10.296  18.520  0.00  0.00    +0.000 OA
ATOM     21  O   UNL     1       2.050  11.039  18.182  0.00  0.00    +0.000 OA
ENDBRANCH  17  19
ENDBRANCH   2  13
TORSDOF 3
ENDMDL
MODEL 5
REMARK VINA RESULT:      -7.3      5.997      7.977
REMARK  Name = 
REMARK  4 active torsions:
REMARK  status: ('A' for Active; 'I' for Inactive)
REMARK    1  A    between atoms: C_1  and  C_2
REMARK    2  A    between atoms: C_8  and  C_9
REMARK    3  A    between atoms: C_10  and  C_11
REMARK    4  A    between atoms: C_15  and  N_16
REMARK                            x       y       z     vdW  Elec       q    Type
REMARK                         _______ _______ _______ _____ _____    ______ ____
ROOT
ATOM      1  C   UNL     1       3.059   7.067  18.326  0.00  0.00    +0.000 C 
ATOM      2  C   UNL     1       4.176   7.325  17.623  0.00  0.00    +0.000 C 
ENDROOT
BRANCH   1  10
ATOM      3  C   UNL     1      -1.065  11.334  22.553  0.00  0.00    +0.000 C 
ATOM      4  C   UNL     1      -0.024  10.456  21.906  0.00  0.00    +0.000 C 
ATOM      5  O   UNL     1       0.860   9.943  22.581  0.00  0.00    +0.000 OA
ATOM      6  N   UNL     1      -0.190  10.350  20.544  0.00  0.00    +0.000 N 
ATOM      7  C   UNL     1       0.609   9.606  19.706  0.00  0.00    +0.000 A 
ATOM      8  N   UNL     1       0.648   9.794  18.408  0.00  0.00    +0.000 NA
ATOM      9  N   UNL     1       1.546   8.945  17.787  0.00  0.00    +0.000 NA
ATOM     10  C   UNL     1       2.112   8.092  18.623  0.00  0.00    +0.000 A 
ATOM     11  S   UNL     1       1.562   8.304  20.251  0.00  0.00    +0.000 S 
ATOM     12  H   UNL     1      -0.789  11.008  20.062  0.00  0.00    +0.000 HD
ENDBRANCH   1  10
BRANCH   2  13
ATOM     13  C   UNL     1       5.172   6.305  17.253  0.00  0.00    +0.000 A 
ATOM     14  C   UNL     1       5.857   5.617  18.265  0.00  0.00    +0.000 A 
ATOM     15  C   UNL     1       6.857   4.686  17.956  0.00  0.00    +0.000 A 
ATOM     16  C   UNL     1       7.192   4.436  16.630  0.00  0.00    +0.000 A 
ATOM     17  C   UNL     1       6.521   5.119  15.612  0.00  0.00    +0.000 A 
ATOM     18  C   UNL     1       5.516   6.054  15.916  0.00  0.00    +0.000 A 
BRANCH  17  19
ATOM     19  N   UNL     1       6.879   4.878  14.210  0.00  0.00    +0.000 N 
ATOM     20  O   UNL     1       7.834   5.513  13.741  0.00  0.00    +0.000 OA
ATOM     21  O   UNL     1       6.207   4.050  13.575  0.00  0.00    +0.000 OA
ENDBRANCH  17  19
ENDBRANCH   2  13
TORSDOF 3
ENDMDL
MODEL 6
REMARK VINA RESULT:      -7.3      2.848      8.737
REMARK  Name = 
REMARK  4 active torsions:
REMARK  status: ('A' for Active; 'I' for Inactive)
REMARK    1  A    between atoms: C_1  and  C_2
REMARK    2  A    between atoms: C_8  and  C_9
REMARK    3  A    between atoms: C_10  and  C_11
REMARK    4  A    between atoms: C_15  and  N_16
REMARK                            x       y       z     vdW  Elec       q    Type
REMARK                         _______ _______ _______ _____ _____    ______ ____
ROOT
ATOM      1  C   UNL     1       9.082   9.429  19.015  0.00  0.00    +0.000 C 
ATOM      2  C   UNL     1       8.239   8.991  18.065  0.00  0.00    +0.000 C 
ENDROOT
BRANCH   1  10
ATOM      3  C   UNL     1      12.024  15.813  17.099  0.00  0.00    +0.000 C 
ATOM      4  C   UNL     1      11.389  14.449  17.205  0.00  0.00    +0.000 C 
ATOM      5  O   UNL     1      11.337  13.712  16.227  0.00  0.00    +0.000 OA
ATOM      6  N   UNL     1      10.893  14.190  18.462  0.00  0.00    +0.000 N 
ATOM      7  C   UNL     1      10.273  13.021  18.840  0.00  0.00    +0.000 A 
ATOM      8  N   UNL     1       9.516  12.932  19.909  0.00  0.00    +0.000 NA
ATOM      9  N   UNL     1       8.983  11.665  20.063  0.00  0.00    +0.000 NA
ATOM     10  C   UNL     1       9.405  10.812  19.145  0.00  0.00    +0.000 A 
ATOM     11  S   UNL     1      10.495  11.547  18.018  0.00  0.00    +0.000 S 
ATOM     12  H   UNL     1      10.764  14.953  19.113  0.00  0.00    +0.000 HD
ENDBRANCH   1  10
BRANCH   2  13
ATOM     13  C   UNL     1       7.837   7.583  17.902  0.00  0.00    +0.000 A 
ATOM     14  C   UNL     1       8.084   6.676  18.942  0.00  0.00    +0.000 A 
ATOM     15  C   UNL     1       7.776   5.316  18.803  0.00  0.00    +0.000 A 
ATOM     16  C   UNL     1       7.225   4.843  17.617  0.00  0.00    +0.000 A 
ATOM     17  C   UNL     1       6.981   5.736  16.570  0.00  0.00    +0.000 A 
ATOM     18  C   UNL     1       7.286   7.102  16.705  0.00  0.00    +0.000 A 
BRANCH  17  19
ATOM     19  N   UNL     1       6.417   5.246  15.307  0.00  0.00    +0.000 N 
ATOM     20  O   UNL     1       5.310   4.692  15.346  0.00  0.00    +0.000 OA
ATOM     21  O   UNL     1       7.081   5.417  14.273  0.00  0.00    +0.000 OA
ENDBRANCH  17  19
ENDBRANCH   2  13
TORSDOF 3
ENDMDL
MODEL 7
REMARK VINA RESULT:      -7.2      1.835      2.114
REMARK  Name = 
REMARK  4 active torsions:
REMARK  status: ('A' for Active; 'I' for Inactive)
REMARK    1  A    between atoms: C_1  and  C_2
REMARK    2  A    between atoms: C_8  and  C_9
REMARK    3  A    between atoms: C_10  and  C_11
REMARK    4  A    between atoms: C_15  and  N_16
REMARK                            x       y       z     vdW  Elec       q    Type
REMARK                         _______ _______ _______ _____ _____    ______ ____
ROOT
ATOM      1  C   UNL     1       8.212   8.556  17.668  0.00  0.00    +0.000 C 
ATOM      2  C   UNL     1       8.674   9.477  18.532  0.00  0.00    +0.000 C 
ENDROOT
BRANCH   1  10
ATOM      3  C   UNL     1       3.936   2.657  17.719  0.00  0.00    +0.000 C 
ATOM      4  C   UNL     1       4.769   3.878  17.418  0.00  0.00    +0.000 C 
ATOM      5  O   UNL     1       4.648   4.462  16.347  0.00  0.00    +0.000 OA
ATOM      6  N   UNL     1       5.636   4.195  18.438  0.00  0.00    +0.000 N 
ATOM      7  C   UNL     1       6.504   5.263  18.434  0.00  0.00    +0.000 A 
ATOM      8  N   UNL     1       7.539   5.340  19.237  0.00  0.00    +0.000 NA
ATOM      9  N   UNL     1       8.275   6.492  19.026  0.00  0.00    +0.000 NA
ATOM     10  C   UNL     1       7.739   7.287  18.115  0.00  0.00    +0.000 A 
ATOM     11  S   UNL     1       6.277   6.637  17.455  0.00  0.00    +0.000 S 
ATOM     12  H   UNL     1       5.831   3.509  19.156  0.00  0.00    +0.000 HD
ENDBRANCH   1  10
BRANCH   2  13
ATOM     13  C   UNL     1       9.141  10.818  18.137  0.00  0.00    +0.000 A 
ATOM     14  C   UNL     1      10.506  11.023  17.890  0.00  0.00    +0.000 A 
ATOM     15  C   UNL     1      10.999  12.295  17.574  0.00  0.00    +0.000 A 
ATOM     16  C   UNL     1      10.135  13.383  17.512  0.00  0.00    +0.000 A 
ATOM     17  C   UNL     1       8.774  13.193  17.763  0.00  0.00    +0.000 A 
ATOM     18  C   UNL     1       8.272  11.918  18.078  0.00  0.00    +0.000 A 
BRANCH  17  19
ATOM     19  N   UNL     1       7.855  14.337  17.719  0.00  0.00    +0.000 N 
ATOM     20  O   UNL     1       8.341  15.471  17.829  0.00  0.00    +0.000 OA
ATOM     21  O   UNL     1       6.646  14.102  17.572  0.00  0.00    +0.000 OA
ENDBRANCH  17  19
ENDBRANCH   2  13
TORSDOF 3
ENDMDL
MODEL 8
REMARK VINA RESULT:      -7.2      1.949      2.240
REMARK  Name = 
REMARK  4 active torsions:
REMARK  status: ('A' for Active; 'I' for Inactive)
REMARK    1  A    between atoms: C_1  and  C_2
REMARK    2  A    between atoms: C_8  and  C_9
REMARK    3  A    between atoms: C_10  and  C_11
REMARK    4  A    between atoms: C_15  and  N_16
REMARK                            x       y       z     vdW  Elec       q    Type
REMARK                         _______ _______ _______ _____ _____    ______ ____
ROOT
ATOM      1  C   UNL     1       8.300   8.025  18.449  0.00  0.00    +0.000 C 
ATOM      2  C   UNL     1       8.414   9.254  17.914  0.00  0.00    +0.000 C 
ENDROOT
BRANCH   1  10
ATOM      3  C   UNL     1       3.768   2.352  17.857  0.00  0.00    +0.000 C 
ATOM      4  C   UNL     1       4.528   3.608  18.200  0.00  0.00    +0.000 C 
ATOM      5  O   UNL     1       4.330   4.181  19.265  0.00  0.00    +0.000 OA
ATOM      6  N   UNL     1       5.390   3.998  17.201  0.00  0.00    +0.000 N 
ATOM      7  C   UNL     1       6.212   5.100  17.252  0.00  0.00    +0.000 A 
ATOM      8  N   UNL     1       6.749   5.637  16.181  0.00  0.00    +0.000 NA
ATOM      9  N   UNL     1       7.511   6.751  16.485  0.00  0.00    +0.000 NA
ATOM     10  C   UNL     1       7.585   6.986  17.784  0.00  0.00    +0.000 A 
ATOM     11  S   UNL     1       6.694   5.829  18.714  0.00  0.00    +0.000 S 
ATOM     12  H   UNL     1       5.289   3.603  16.275  0.00  0.00    +0.000 HD
ENDBRANCH   1  10
BRANCH   2  13
ATOM     13  C   UNL     1       9.169  10.357  18.533  0.00  0.00    +0.000 A 
ATOM     14  C   UNL     1      10.271  10.898  17.856  0.00  0.00    +0.000 A 
ATOM     15  C   UNL     1      11.053  11.904  18.437  0.00  0.00    +0.000 A 
ATOM     16  C   UNL     1      10.749  12.377  19.709  0.00  0.00    +0.000 A 
ATOM     17  C   UNL     1       9.657  11.842  20.397  0.00  0.00    +0.000 A 
ATOM     18  C   UNL     1       8.867  10.833  19.818  0.00  0.00    +0.000 A 
BRANCH  17  19
ATOM     19  N   UNL     1       9.338  12.319  21.748  0.00  0.00    +0.000 N 
ATOM     20  O   UNL     1       8.628  11.598  22.461  0.00  0.00    +0.000 OA
ATOM     21  O   UNL     1       9.799  13.416  22.097  0.00  0.00    +0.000 OA
ENDBRANCH  17  19
ENDBRANCH   2  13
TORSDOF 3
ENDMDL
MODEL 9
REMARK VINA RESULT:      -7.2      6.048      8.591
REMARK  Name = 
REMARK  4 active torsions:
REMARK  status: ('A' for Active; 'I' for Inactive)
REMARK    1  A    between atoms: C_1  and  C_2
REMARK    2  A    between atoms: C_8  and  C_9
REMARK    3  A    between atoms: C_10  and  C_11
REMARK    4  A    between atoms: C_15  and  N_16
REMARK                            x       y       z     vdW  Elec       q    Type
REMARK                         _______ _______ _______ _____ _____    ______ ____
ROOT
ATOM      1  C   UNL     1       2.580   8.033  17.974  0.00  0.00    +0.000 C 
ATOM      2  C   UNL     1       2.724   6.844  18.586  0.00  0.00    +0.000 C 
ENDROOT
BRANCH   1  10
ATOM      3  C   UNL     1      -1.281  11.483  23.098  0.00  0.00    +0.000 C 
ATOM      4  C   UNL     1      -0.312  10.685  22.263  0.00  0.00    +0.000 C 
ATOM      5  O   UNL     1       0.452   9.886  22.794  0.00  0.00    +0.000 OA
ATOM      6  N   UNL     1      -0.392  10.985  20.923  0.00  0.00    +0.000 N 
ATOM      7  C   UNL     1       0.368  10.401  19.936  0.00  0.00    +0.000 A 
ATOM      8  N   UNL     1       0.524  10.935  18.747  0.00  0.00    +0.000 NA
ATOM      9  N   UNL     1       1.353  10.177  17.941  0.00  0.00    +0.000 NA
ATOM     10  C   UNL     1       1.748   9.055  18.518  0.00  0.00    +0.000 A 
ATOM     11  S   UNL     1       1.112   8.880  20.119  0.00  0.00    +0.000 S 
ATOM     12  H   UNL     1      -0.869  11.828  20.630  0.00  0.00    +0.000 HD
ENDBRANCH   1  10
BRANCH   2  13
ATOM     13  C   UNL     1       3.596   5.763  18.095  0.00  0.00    +0.000 A 
ATOM     14  C   UNL     1       3.016   4.615  17.538  0.00  0.00    +0.000 A 
ATOM     15  C   UNL     1       3.807   3.537  17.118  0.00  0.00    +0.000 A 
ATOM     16  C   UNL     1       5.190   3.590  17.260  0.00  0.00    +0.000 A 
ATOM     17  C   UNL     1       5.779   4.726  17.820  0.00  0.00    +0.000 A 
ATOM     18  C   UNL     1       4.991   5.811  18.241  0.00  0.00    +0.000 A 
BRANCH  17  19
ATOM     19  N   UNL     1       7.236   4.785  17.992  0.00  0.00    +0.000 N 
ATOM     20  O   UNL     1       7.943   4.415  17.045  0.00  0.00    +0.000 OA
ATOM     21  O   UNL     1       7.674   5.204  19.074  0.00  0.00    +0.000 OA
ENDBRANCH  17  19
ENDBRANCH   2  13
TORSDOF 3
ENDMDL
