MODEL 1
REMARK VINA RESULT:      -7.5      0.000      0.000
REMARK  Name = 
REMARK  11 active torsions:
REMARK  status: ('A' for Active; 'I' for Inactive)
REMARK    1  A    between atoms: C_1  and  C_2
REMARK    2  A    between atoms: C_2  and  C_3
REMARK    3  A    between atoms: C_2  and  C_4
REMARK    4  A    between atoms: C_4  and  N_5
REMARK    5  A    between atoms: C_4  and  C_10
REMARK    6  A    between atoms: C_6  and  C_8
REMARK    7  A    between atoms: C_8  and  S_9
REMARK    8  A    between atoms: N_12  and  C_13
REMARK    9  A    between atoms: C_13  and  C_14
REMARK   10  A    between atoms: C_13  and  C_21
REMARK   11  A    between atoms: C_14  and  C_15
REMARK                            x       y       z     vdW  Elec       q    Type
REMARK                         _______ _______ _______ _____ _____    ______ ____
ROOT
ATOM      1  C   UNL     1       6.193   4.768  18.529  0.00  0.00    +0.000 C 
ATOM      2  O   UNL     1       6.556   5.051  19.667  0.00  0.00    +0.000 OA
ATOM      3  N   UNL     1       4.970   4.198  18.268  0.00  0.00    +0.000 N 
ATOM      4  H   UNL     1       4.625   4.147  17.310  0.00  0.00    +0.000 HD
ENDROOT
BRANCH   1   5
ATOM      5  C   UNL     1       7.077   5.074  17.300  0.00  0.00    +0.000 C 
BRANCH   5   6
ATOM      6  N   UNL     1       6.490   4.420  16.132  0.00  0.00    +0.000 N 
ATOM      7  C   UNL     1       6.960   4.624  14.858  0.00  0.00    +0.000 C 
ATOM      8  O   UNL     1       7.898   5.377  14.608  0.00  0.00    +0.000 OA
ATOM      9  H   UNL     1       5.914   3.598  16.291  0.00  0.00    +0.000 HD
BRANCH   7  10
ATOM     10  C   UNL     1       6.168   3.903  13.774  0.00  0.00    +0.000 C 
BRANCH  10  11
ATOM     11  S   UNL     1       7.048   3.952  12.186  0.00  0.00    +0.000 S 
ATOM     12  H   UNL     1       6.801   2.678  11.833  0.00  0.00    +0.000 HD
ENDBRANCH  10  11
ENDBRANCH   7  10
ENDBRANCH   5   6
BRANCH   5  14
ATOM     13  C   UNL     1       7.974   7.314  18.126  0.00  0.00    +0.000 C 
ATOM     14  C   UNL     1       7.113   6.607  17.075  0.00  0.00    +0.000 C 
ATOM     15  C   UNL     1       5.708   7.221  17.080  0.00  0.00    +0.000 C 
ENDBRANCH   5  14
ENDBRANCH   1   5
BRANCH   3  16
ATOM     16  C   UNL     1       4.078   3.748  19.346  0.00  0.00    +0.000 C 
BRANCH  16  17
ATOM     17  C   UNL     1       4.146   2.214  19.523  0.00  0.00    +0.000 C 
ATOM     18  N   UNL     1       5.099   1.724  20.372  0.00  0.00    +0.000 N 
ATOM     19  O   UNL     1       3.412   1.436  18.916  0.00  0.00    +0.000 OA
ATOM     20  H   UNL     1       5.614   2.297  21.027  0.00  0.00    +0.000 HD
ATOM     21  H   UNL     1       5.070   0.729  20.557  0.00  0.00    +0.000 HD
ENDBRANCH  16  17
BRANCH  16  22
ATOM     22  C   UNL     1       2.627   4.244  19.190  0.00  0.00    +0.000 C 
BRANCH  22  23
ATOM     23  C   UNL     1       2.353   5.730  19.259  0.00  0.00    +0.000 A 
ATOM     24  C   UNL     1       2.467   6.606  18.171  0.00  0.00    +0.000 A 
ATOM     25  C   UNL     1       2.153   7.957  18.305  0.00  0.00    +0.000 A 
ATOM     26  C   UNL     1       1.729   8.458  19.530  0.00  0.00    +0.000 A 
ATOM     27  C   UNL     1       1.630   7.608  20.628  0.00  0.00    +0.000 A 
ATOM     28  C   UNL     1       1.939   6.256  20.494  0.00  0.00    +0.000 A 
ENDBRANCH  22  23
ENDBRANCH  16  22
ENDBRANCH   3  16
TORSDOF 9
ENDMDL
MODEL 2
REMARK VINA RESULT:      -7.5      0.177      1.016
REMARK  Name = 
REMARK  11 active torsions:
REMARK  status: ('A' for Active; 'I' for Inactive)
REMARK    1  A    between atoms: C_1  and  C_2
REMARK    2  A    between atoms: C_2  and  C_3
REMARK    3  A    between atoms: C_2  and  C_4
REMARK    4  A    between atoms: C_4  and  N_5
REMARK    5  A    between atoms: C_4  and  C_10
REMARK    6  A    between atoms: C_6  and  C_8
REMARK    7  A    between atoms: C_8  and  S_9
REMARK    8  A    between atoms: N_12  and  C_13
REMARK    9  A    between atoms: C_13  and  C_14
REMARK   10  A    between atoms: C_13  and  C_21
REMARK   11  A    between atoms: C_14  and  C_15
REMARK                            x       y       z     vdW  Elec       q    Type
REMARK                         _______ _______ _______ _____ _____    ______ ____
ROOT
ATOM      1  C   UNL     1       6.183   4.625  18.457  0.00  0.00    +0.000 C 
ATOM      2  O   UNL     1       6.646   4.722  19.590  0.00  0.00    +0.000 OA
ATOM      3  N   UNL     1       4.883   4.244  18.225  0.00  0.00    +0.000 N 
ATOM      4  H   UNL     1       4.478   4.352  17.295  0.00  0.00    +0.000 HD
ENDROOT
BRANCH   1   5
ATOM      5  C   UNL     1       7.024   4.968  17.208  0.00  0.00    +0.000 C 
BRANCH   5   6
ATOM      6  N   UNL     1       6.380   4.375  16.038  0.00  0.00    +0.000 N 
ATOM      7  C   UNL     1       6.837   4.584  14.759  0.00  0.00    +0.000 C 
ATOM      8  O   UNL     1       7.809   5.292  14.507  0.00  0.00    +0.000 OA
ATOM      9  H   UNL     1       5.764   3.582  16.188  0.00  0.00    +0.000 HD
BRANCH   7  10
ATOM     10  C   UNL     1       5.986   3.934  13.675  0.00  0.00    +0.000 C 
BRANCH  10  11
ATOM     11  S   UNL     1       6.933   3.733  12.139  0.00  0.00    +0.000 S 
ATOM     12  H   UNL     1       8.152   3.847  12.693  0.00  0.00    +0.000 HD
ENDBRANCH  10  11
ENDBRANCH   7  10
ENDBRANCH   5   6
BRANCH   5  14
ATOM     13  C   UNL     1       7.946   7.160  18.131  0.00  0.00    +0.000 C 
ATOM     14  C   UNL     1       7.082   6.508  17.046  0.00  0.00    +0.000 C 
ATOM     15  C   UNL     1       5.685   7.140  17.069  0.00  0.00    +0.000 C 
ENDBRANCH   5  14
ENDBRANCH   1   5
BRANCH   3  16
ATOM     16  C   UNL     1       4.005   3.779  19.308  0.00  0.00    +0.000 C 
BRANCH  16  17
ATOM     17  C   UNL     1       4.091   2.245  19.476  0.00  0.00    +0.000 C 
ATOM     18  N   UNL     1       5.119   1.755  20.232  0.00  0.00    +0.000 N 
ATOM     19  O   UNL     1       3.305   1.467  18.938  0.00  0.00    +0.000 OA
ATOM     20  H   UNL     1       5.692   2.327  20.837  0.00  0.00    +0.000 HD
ATOM     21  H   UNL     1       5.108   0.759  20.417  0.00  0.00    +0.000 HD
ENDBRANCH  16  17
BRANCH  16  22
ATOM     22  C   UNL     1       2.548   4.261  19.168  0.00  0.00    +0.000 C 
BRANCH  22  23
ATOM     23  C   UNL     1       2.258   5.743  19.258  0.00  0.00    +0.000 A 
ATOM     24  C   UNL     1       1.895   6.406  20.438  0.00  0.00    +0.000 A 
ATOM     25  C   UNL     1       1.689   7.784  20.449  0.00  0.00    +0.000 A 
ATOM     26  C   UNL     1       1.831   8.522  19.280  0.00  0.00    +0.000 A 
ATOM     27  C   UNL     1       2.170   7.878  18.094  0.00  0.00    +0.000 A 
ATOM     28  C   UNL     1       2.382   6.500  18.082  0.00  0.00    +0.000 A 
ENDBRANCH  22  23
ENDBRANCH  16  22
ENDBRANCH   3  16
TORSDOF 9
ENDMDL
MODEL 3
REMARK VINA RESULT:      -7.4      3.120      6.564
REMARK  Name = 
REMARK  11 active torsions:
REMARK  status: ('A' for Active; 'I' for Inactive)
REMARK    1  A    between atoms: C_1  and  C_2
REMARK    2  A    between atoms: C_2  and  C_3
REMARK    3  A    between atoms: C_2  and  C_4
REMARK    4  A    between atoms: C_4  and  N_5
REMARK    5  A    between atoms: C_4  and  C_10
REMARK    6  A    between atoms: C_6  and  C_8
REMARK    7  A    between atoms: C_8  and  S_9
REMARK    8  A    between atoms: N_12  and  C_13
REMARK    9  A    between atoms: C_13  and  C_14
REMARK   10  A    between atoms: C_13  and  C_21
REMARK   11  A    between atoms: C_14  and  C_15
REMARK                            x       y       z     vdW  Elec       q    Type
REMARK                         _______ _______ _______ _____ _____    ______ ____
ROOT
ATOM      1  C   UNL     1       4.577   4.735  19.186  0.00  0.00    +0.000 C 
ATOM      2  O   UNL     1       5.006   3.628  19.497  0.00  0.00    +0.000 OA
ATOM      3  N   UNL     1       5.310   5.624  18.438  0.00  0.00    +0.000 N 
ATOM      4  H   UNL     1       4.861   6.451  18.043  0.00  0.00    +0.000 HD
ENDROOT
BRANCH   1   5
ATOM      5  C   UNL     1       3.155   5.190  19.583  0.00  0.00    +0.000 C 
BRANCH   5   6
ATOM      6  N   UNL     1       2.848   6.427  18.869  0.00  0.00    +0.000 N 
ATOM      7  C   UNL     1       2.166   7.467  19.453  0.00  0.00    +0.000 C 
ATOM      8  O   UNL     1       1.756   7.427  20.611  0.00  0.00    +0.000 OA
ATOM      9  H   UNL     1       3.382   6.634  18.030  0.00  0.00    +0.000 HD
BRANCH   7  10
ATOM     10  C   UNL     1       1.887   8.638  18.519  0.00  0.00    +0.000 C 
BRANCH  10  11
ATOM     11  S   UNL     1       0.881   9.903  19.346  0.00  0.00    +0.000 S 
ATOM     12  H   UNL     1      -0.314   9.348  19.080  0.00  0.00    +0.000 HD
ENDBRANCH  10  11
ENDBRANCH   7  10
ENDBRANCH   5   6
BRANCH   5  14
ATOM     13  C   UNL     1       1.616   4.300  17.754  0.00  0.00    +0.000 C 
ATOM     14  C   UNL     1       2.142   4.090  19.178  0.00  0.00    +0.000 C 
ATOM     15  C   UNL     1       0.955   4.018  20.147  0.00  0.00    +0.000 C 
ENDBRANCH   5  14
ENDBRANCH   1   5
BRANCH   3  16
ATOM     16  C   UNL     1       6.715   5.371  18.090  0.00  0.00    +0.000 C 
BRANCH  16  17
ATOM     17  C   UNL     1       7.666   5.896  19.191  0.00  0.00    +0.000 C 
ATOM     18  N   UNL     1       8.344   7.053  18.931  0.00  0.00    +0.000 N 
ATOM     19  O   UNL     1       7.853   5.304  20.252  0.00  0.00    +0.000 OA
ATOM     20  H   UNL     1       8.117   7.678  18.169  0.00  0.00    +0.000 HD
ATOM     21  H   UNL     1       8.886   7.440  19.695  0.00  0.00    +0.000 HD
ENDBRANCH  16  17
BRANCH  16  22
ATOM     22  C   UNL     1       7.106   5.898  16.695  0.00  0.00    +0.000 C 
BRANCH  22  23
ATOM     23  C   UNL     1       6.680   5.114  15.474  0.00  0.00    +0.000 A 
ATOM     24  C   UNL     1       5.489   4.380  15.382  0.00  0.00    +0.000 A 
ATOM     25  C   UNL     1       5.144   3.720  14.204  0.00  0.00    +0.000 A 
ATOM     26  C   UNL     1       5.988   3.772  13.101  0.00  0.00    +0.000 A 
ATOM     27  C   UNL     1       7.186   4.477  13.180  0.00  0.00    +0.000 A 
ATOM     28  C   UNL     1       7.529   5.143  14.356  0.00  0.00    +0.000 A 
ENDBRANCH  22  23
ENDBRANCH  16  22
ENDBRANCH   3  16
TORSDOF 9
ENDMDL
MODEL 4
REMARK VINA RESULT:      -7.3      2.950      6.337
REMARK  Name = 
REMARK  11 active torsions:
REMARK  status: ('A' for Active; 'I' for Inactive)
REMARK    1  A    between atoms: C_1  and  C_2
REMARK    2  A    between atoms: C_2  and  C_3
REMARK    3  A    between atoms: C_2  and  C_4
REMARK    4  A    between atoms: C_4  and  N_5
REMARK    5  A    between atoms: C_4  and  C_10
REMARK    6  A    between atoms: C_6  and  C_8
REMARK    7  A    between atoms: C_8  and  S_9
REMARK    8  A    between atoms: N_12  and  C_13
REMARK    9  A    between atoms: C_13  and  C_14
REMARK   10  A    between atoms: C_13  and  C_21
REMARK   11  A    between atoms: C_14  and  C_15
REMARK                            x       y       z     vdW  Elec       q    Type
REMARK                         _______ _______ _______ _____ _____    ______ ____
ROOT
ATOM      1  C   UNL     1       4.516   5.329  18.663  0.00  0.00    +0.000 C 
ATOM      2  O   UNL     1       4.835   4.372  19.362  0.00  0.00    +0.000 OA
ATOM      3  N   UNL     1       5.441   6.084  17.982  0.00  0.00    +0.000 N 
ATOM      4  H   UNL     1       5.135   6.748  17.271  0.00  0.00    +0.000 HD
ENDROOT
BRANCH   1   5
ATOM      5  C   UNL     1       3.036   5.727  18.466  0.00  0.00    +0.000 C 
BRANCH   5   6
ATOM      6  N   UNL     1       2.201   4.802  19.229  0.00  0.00    +0.000 N 
ATOM      7  C   UNL     1       1.529   3.759  18.641  0.00  0.00    +0.000 C 
ATOM      8  O   UNL     1       1.572   3.536  17.433  0.00  0.00    +0.000 OA
ATOM      9  H   UNL     1       2.341   4.759  20.234  0.00  0.00    +0.000 HD
BRANCH   7  10
ATOM     10  C   UNL     1       0.660   2.953  19.599  0.00  0.00    +0.000 C 
BRANCH  10  11
ATOM     11  S   UNL     1       1.442   2.823  21.233  0.00  0.00    +0.000 S 
ATOM     12  H   UNL     1       0.651   1.844  21.705  0.00  0.00    +0.000 HD
ENDBRANCH  10  11
ENDBRANCH   7  10
ENDBRANCH   5   6
BRANCH   5  14
ATOM     13  C   UNL     1       1.939   7.197  20.238  0.00  0.00    +0.000 C 
ATOM     14  C   UNL     1       2.829   7.170  18.991  0.00  0.00    +0.000 C 
ATOM     15  C   UNL     1       2.224   8.088  17.922  0.00  0.00    +0.000 C 
ENDBRANCH   5  14
ENDBRANCH   1   5
BRANCH   3  16
ATOM     16  C   UNL     1       6.886   5.892  18.168  0.00  0.00    +0.000 C 
BRANCH  16  17
ATOM     17  C   UNL     1       7.660   7.208  17.928  0.00  0.00    +0.000 C 
ATOM     18  N   UNL     1       8.537   7.604  18.899  0.00  0.00    +0.000 N 
ATOM     19  O   UNL     1       7.494   7.912  16.934  0.00  0.00    +0.000 OA
ATOM     20  H   UNL     1       8.852   7.003  19.649  0.00  0.00    +0.000 HD
ATOM     21  H   UNL     1       9.111   8.412  18.688  0.00  0.00    +0.000 HD
ENDBRANCH  16  17
BRANCH  16  22
ATOM     22  C   UNL     1       7.462   4.728  17.337  0.00  0.00    +0.000 C 
BRANCH  22  23
ATOM     23  C   UNL     1       6.986   4.543  15.913  0.00  0.00    +0.000 A 
ATOM     24  C   UNL     1       7.602   5.119  14.794  0.00  0.00    +0.000 A 
ATOM     25  C   UNL     1       7.129   4.864  13.507  0.00  0.00    +0.000 A 
ATOM     26  C   UNL     1       6.026   4.039  13.319  0.00  0.00    +0.000 A 
ATOM     27  C   UNL     1       5.388   3.476  14.420  0.00  0.00    +0.000 A 
ATOM     28  C   UNL     1       5.864   3.725  15.706  0.00  0.00    +0.000 A 
ENDBRANCH  22  23
ENDBRANCH  16  22
ENDBRANCH   3  16
TORSDOF 9
ENDMDL
MODEL 5
REMARK VINA RESULT:      -7.2      2.990      6.498
REMARK  Name = 
REMARK  11 active torsions:
REMARK  status: ('A' for Active; 'I' for Inactive)
REMARK    1  A    between atoms: C_1  and  C_2
REMARK    2  A    between atoms: C_2  and  C_3
REMARK    3  A    between atoms: C_2  and  C_4
REMARK    4  A    between atoms: C_4  and  N_5
REMARK    5  A    between atoms: C_4  and  C_10
REMARK    6  A    between atoms: C_6  and  C_8
REMARK    7  A    between atoms: C_8  and  S_9
REMARK    8  A    between atoms: N_12  and  C_13
REMARK    9  A    between atoms: C_13  and  C_14
REMARK   10  A    between atoms: C_13  and  C_21
REMARK   11  A    between atoms: C_14  and  C_15
REMARK                            x       y       z     vdW  Elec       q    Type
REMARK                         _______ _______ _______ _____ _____    ______ ____
ROOT
ATOM      1  C   UNL     1       3.962   6.105  17.669  0.00  0.00    +0.000 C 
ATOM      2  O   UNL     1       4.821   6.981  17.693  0.00  0.00    +0.000 OA
ATOM      3  N   UNL     1       4.235   4.818  17.271  0.00  0.00    +0.000 N 
ATOM      4  H   UNL     1       3.554   4.077  17.437  0.00  0.00    +0.000 HD
ENDROOT
BRANCH   1   5
ATOM      5  C   UNL     1       2.514   6.381  18.130  0.00  0.00    +0.000 C 
BRANCH   5   6
ATOM      6  N   UNL     1       2.155   5.398  19.149  0.00  0.00    +0.000 N 
ATOM      7  C   UNL     1       1.542   4.207  18.843  0.00  0.00    +0.000 C 
ATOM      8  O   UNL     1       1.241   3.890  17.694  0.00  0.00    +0.000 OA
ATOM      9  H   UNL     1       2.611   5.467  20.054  0.00  0.00    +0.000 HD
BRANCH   7  10
ATOM     10  C   UNL     1       1.191   3.352  20.054  0.00  0.00    +0.000 C 
BRANCH  10  11
ATOM     11  S   UNL     1       2.689   2.835  20.940  0.00  0.00    +0.000 S 
ATOM     12  H   UNL     1       2.108   2.667  22.141  0.00  0.00    +0.000 HD
ENDBRANCH  10  11
ENDBRANCH   7  10
ENDBRANCH   5   6
BRANCH   5  14
ATOM     13  C   UNL     1       1.808   7.799  20.129  0.00  0.00    +0.000 C 
ATOM     14  C   UNL     1       2.440   7.807  18.733  0.00  0.00    +0.000 C 
ATOM     15  C   UNL     1       1.658   8.771  17.832  0.00  0.00    +0.000 C 
ENDBRANCH   5  14
ENDBRANCH   1   5
BRANCH   3  16
ATOM     16  C   UNL     1       5.536   4.443  16.701  0.00  0.00    +0.000 C 
BRANCH  16  17
ATOM     17  C   UNL     1       6.622   4.355  17.798  0.00  0.00    +0.000 C 
ATOM     18  N   UNL     1       7.926   4.367  17.388  0.00  0.00    +0.000 N 
ATOM     19  O   UNL     1       6.360   4.243  18.994  0.00  0.00    +0.000 OA
ATOM     20  H   UNL     1       8.219   4.626  16.456  0.00  0.00    +0.000 HD
ATOM     21  H   UNL     1       8.628   4.410  18.118  0.00  0.00    +0.000 HD
ENDBRANCH  16  17
BRANCH  16  22
ATOM     22  C   UNL     1       5.976   5.343  15.529  0.00  0.00    +0.000 C 
BRANCH  22  23
ATOM     23  C   UNL     1       6.254   4.706  14.185  0.00  0.00    +0.000 A 
ATOM     24  C   UNL     1       5.443   3.730  13.591  0.00  0.00    +0.000 A 
ATOM     25  C   UNL     1       5.743   3.224  12.327  0.00  0.00    +0.000 A 
ATOM     26  C   UNL     1       6.864   3.675  11.641  0.00  0.00    +0.000 A 
ATOM     27  C   UNL     1       7.694   4.628  12.225  0.00  0.00    +0.000 A 
ATOM     28  C   UNL     1       7.392   5.140  13.486  0.00  0.00    +0.000 A 
ENDBRANCH  22  23
ENDBRANCH  16  22
ENDBRANCH   3  16
TORSDOF 9
ENDMDL
MODEL 6
REMARK VINA RESULT:      -7.1      2.987      6.498
REMARK  Name = 
REMARK  11 active torsions:
REMARK  status: ('A' for Active; 'I' for Inactive)
REMARK    1  A    between atoms: C_1  and  C_2
REMARK    2  A    between atoms: C_2  and  C_3
REMARK    3  A    between atoms: C_2  and  C_4
REMARK    4  A    between atoms: C_4  and  N_5
REMARK    5  A    between atoms: C_4  and  C_10
REMARK    6  A    between atoms: C_6  and  C_8
REMARK    7  A    between atoms: C_8  and  S_9
REMARK    8  A    between atoms: N_12  and  C_13
REMARK    9  A    between atoms: C_13  and  C_14
REMARK   10  A    between atoms: C_13  and  C_21
REMARK   11  A    between atoms: C_14  and  C_15
REMARK                            x       y       z     vdW  Elec       q    Type
REMARK                         _______ _______ _______ _____ _____    ______ ____
ROOT
ATOM      1  C   UNL     1       4.489   5.074  18.124  0.00  0.00    +0.000 C 
ATOM      2  O   UNL     1       4.932   4.194  18.856  0.00  0.00    +0.000 OA
ATOM      3  N   UNL     1       5.241   5.650  17.129  0.00  0.00    +0.000 N 
ATOM      4  H   UNL     1       4.793   6.239  16.426  0.00  0.00    +0.000 HD
ENDROOT
BRANCH   1   5
ATOM      5  C   UNL     1       3.030   5.568  18.247  0.00  0.00    +0.000 C 
BRANCH   5   6
ATOM      6  N   UNL     1       2.303   4.654  19.125  0.00  0.00    +0.000 N 
ATOM      7  C   UNL     1       1.428   3.710  18.646  0.00  0.00    +0.000 C 
ATOM      8  O   UNL     1       1.184   3.575  17.449  0.00  0.00    +0.000 OA
ATOM      9  H   UNL     1       2.654   4.526  20.069  0.00  0.00    +0.000 HD
BRANCH   7  10
ATOM     10  C   UNL     1       0.721   2.903  19.728  0.00  0.00    +0.000 C 
BRANCH  10  11
ATOM     11  S   UNL     1       1.594   3.038  21.314  0.00  0.00    +0.000 S 
ATOM     12  H   UNL     1       2.803   2.670  20.857  0.00  0.00    +0.000 HD
ENDBRANCH  10  11
ENDBRANCH   7  10
ENDBRANCH   5   6
BRANCH   5  14
ATOM     13  C   UNL     1       2.108   7.080  20.081  0.00  0.00    +0.000 C 
ATOM     14  C   UNL     1       3.030   6.990  18.861  0.00  0.00    +0.000 C 
ATOM     15  C   UNL     1       2.616   8.056  17.839  0.00  0.00    +0.000 C 
ENDBRANCH   5  14
ENDBRANCH   1   5
BRANCH   3  16
ATOM     16  C   UNL     1       6.673   5.361  16.973  0.00  0.00    +0.000 C 
BRANCH  16  17
ATOM     17  C   UNL     1       7.490   5.934  18.154  0.00  0.00    +0.000 C 
ATOM     18  N   UNL     1       7.894   5.056  19.120  0.00  0.00    +0.000 N 
ATOM     19  O   UNL     1       7.754   7.130  18.269  0.00  0.00    +0.000 OA
ATOM     20  H   UNL     1       7.866   4.051  19.010  0.00  0.00    +0.000 HD
ATOM     21  H   UNL     1       8.511   5.422  19.835  0.00  0.00    +0.000 HD
ENDBRANCH  16  17
BRANCH  16  22
ATOM     22  C   UNL     1       7.245   5.804  15.612  0.00  0.00    +0.000 C 
BRANCH  22  23
ATOM     23  C   UNL     1       6.875   5.016  14.375  0.00  0.00    +0.000 A 
ATOM     24  C   UNL     1       7.639   4.985  13.200  0.00  0.00    +0.000 A 
ATOM     25  C   UNL     1       7.254   4.196  12.117  0.00  0.00    +0.000 A 
ATOM     26  C   UNL     1       6.094   3.433  12.186  0.00  0.00    +0.000 A 
ATOM     27  C   UNL     1       5.311   3.467  13.336  0.00  0.00    +0.000 A 
ATOM     28  C   UNL     1       5.698   4.252  14.421  0.00  0.00    +0.000 A 
ENDBRANCH  22  23
ENDBRANCH  16  22
ENDBRANCH   3  16
TORSDOF 9
ENDMDL
MODEL 7
REMARK VINA RESULT:      -7.1      3.029      6.378
REMARK  Name = 
REMARK  11 active torsions:
REMARK  status: ('A' for Active; 'I' for Inactive)
REMARK    1  A    between atoms: C_1  and  C_2
REMARK    2  A    between atoms: C_2  and  C_3
REMARK    3  A    between atoms: C_2  and  C_4
REMARK    4  A    between atoms: C_4  and  N_5
REMARK    5  A    between atoms: C_4  and  C_10
REMARK    6  A    between atoms: C_6  and  C_8
REMARK    7  A    between atoms: C_8  and  S_9
REMARK    8  A    between atoms: N_12  and  C_13
REMARK    9  A    between atoms: C_13  and  C_14
REMARK   10  A    between atoms: C_13  and  C_21
REMARK   11  A    between atoms: C_14  and  C_15
REMARK                            x       y       z     vdW  Elec       q    Type
REMARK                         _______ _______ _______ _____ _____    ______ ____
ROOT
ATOM      1  C   UNL     1       4.854   5.059  19.299  0.00  0.00    +0.000 C 
ATOM      2  O   UNL     1       5.362   4.118  19.900  0.00  0.00    +0.000 OA
ATOM      3  N   UNL     1       5.584   5.894  18.487  0.00  0.00    +0.000 N 
ATOM      4  H   UNL     1       5.107   6.545  17.863  0.00  0.00    +0.000 HD
ENDROOT
BRANCH   1   5
ATOM      5  C   UNL     1       3.338   5.346  19.382  0.00  0.00    +0.000 C 
BRANCH   5   6
ATOM      6  N   UNL     1       3.029   6.465  18.493  0.00  0.00    +0.000 N 
ATOM      7  C   UNL     1       2.348   7.579  18.919  0.00  0.00    +0.000 C 
ATOM      8  O   UNL     1       1.942   7.711  20.072  0.00  0.00    +0.000 OA
ATOM      9  H   UNL     1       3.560   6.545  17.632  0.00  0.00    +0.000 HD
BRANCH   7  10
ATOM     10  C   UNL     1       2.067   8.600  17.823  0.00  0.00    +0.000 C 
BRANCH  10  11
ATOM     11  S   UNL     1       0.956   9.906  18.421  0.00  0.00    +0.000 S 
ATOM     12  H   UNL     1       0.967  10.645  17.299  0.00  0.00    +0.000 HD
ENDBRANCH  10  11
ENDBRANCH   7  10
ENDBRANCH   5   6
BRANCH   5  14
ATOM     13  C   UNL     1       1.924   4.284  17.544  0.00  0.00    +0.000 C 
ATOM     14  C   UNL     1       2.560   4.087  18.924  0.00  0.00    +0.000 C 
ATOM     15  C   UNL     1       1.472   3.688  19.928  0.00  0.00    +0.000 C 
ENDBRANCH   5  14
ENDBRANCH   1   5
BRANCH   3  16
ATOM     16  C   UNL     1       7.049   5.809  18.405  0.00  0.00    +0.000 C 
BRANCH  16  17
ATOM     17  C   UNL     1       7.665   7.171  18.009  0.00  0.00    +0.000 C 
ATOM     18  N   UNL     1       8.616   7.692  18.841  0.00  0.00    +0.000 N 
ATOM     19  O   UNL     1       7.314   7.801  17.013  0.00  0.00    +0.000 OA
ATOM     20  H   UNL     1       9.074   7.163  19.570  0.00  0.00    +0.000 HD
ATOM     21  H   UNL     1       9.084   8.533  18.522  0.00  0.00    +0.000 HD
ENDBRANCH  16  17
BRANCH  16  22
ATOM     22  C   UNL     1       7.548   4.668  17.498  0.00  0.00    +0.000 C 
BRANCH  22  23
ATOM     23  C   UNL     1       6.946   4.516  16.119  0.00  0.00    +0.000 A 
ATOM     24  C   UNL     1       7.540   4.989  14.941  0.00  0.00    +0.000 A 
ATOM     25  C   UNL     1       6.943   4.769  13.701  0.00  0.00    +0.000 A 
ATOM     26  C   UNL     1       5.736   4.084  13.618  0.00  0.00    +0.000 A 
ATOM     27  C   UNL     1       5.120   3.626  14.778  0.00  0.00    +0.000 A 
ATOM     28  C   UNL     1       5.719   3.840  16.019  0.00  0.00    +0.000 A 
ENDBRANCH  22  23
ENDBRANCH  16  22
ENDBRANCH   3  16
TORSDOF 9
ENDMDL
MODEL 8
REMARK VINA RESULT:      -7.1      2.942      6.381
REMARK  Name = 
REMARK  11 active torsions:
REMARK  status: ('A' for Active; 'I' for Inactive)
REMARK    1  A    between atoms: C_1  and  C_2
REMARK    2  A    between atoms: C_2  and  C_3
REMARK    3  A    between atoms: C_2  and  C_4
REMARK    4  A    between atoms: C_4  and  N_5
REMARK    5  A    between atoms: C_4  and  C_10
REMARK    6  A    between atoms: C_6  and  C_8
REMARK    7  A    between atoms: C_8  and  S_9
REMARK    8  A    between atoms: N_12  and  C_13
REMARK    9  A    between atoms: C_13  and  C_14
REMARK   10  A    between atoms: C_13  and  C_21
REMARK   11  A    between atoms: C_14  and  C_15
REMARK                            x       y       z     vdW  Elec       q    Type
REMARK                         _______ _______ _______ _____ _____    ______ ____
ROOT
ATOM      1  C   UNL     1       4.644   5.230  18.670  0.00  0.00    +0.000 C 
ATOM      2  O   UNL     1       5.010   4.249  19.310  0.00  0.00    +0.000 OA
ATOM      3  N   UNL     1       5.529   6.055  18.017  0.00  0.00    +0.000 N 
ATOM      4  H   UNL     1       5.186   6.745  17.349  0.00  0.00    +0.000 HD
ENDROOT
BRANCH   1   5
ATOM      5  C   UNL     1       3.148   5.584  18.520  0.00  0.00    +0.000 C 
BRANCH   5   6
ATOM      6  N   UNL     1       2.359   4.568  19.213  0.00  0.00    +0.000 N 
ATOM      7  C   UNL     1       1.463   3.757  18.560  0.00  0.00    +0.000 C 
ATOM      8  O   UNL     1       1.253   3.835  17.351  0.00  0.00    +0.000 OA
ATOM      9  H   UNL     1       2.675   4.268  20.130  0.00  0.00    +0.000 HD
BRANCH   7  10
ATOM     10  C   UNL     1       0.692   2.811  19.472  0.00  0.00    +0.000 C 
BRANCH  10  11
ATOM     11  S   UNL     1       1.380   2.825  21.153  0.00  0.00    +0.000 S 
ATOM     12  H   UNL     1       0.887   4.022  21.512  0.00  0.00    +0.000 HD
ENDBRANCH  10  11
ENDBRANCH   7  10
ENDBRANCH   5   6
BRANCH   5  14
ATOM     13  C   UNL     1       1.925   6.875  20.348  0.00  0.00    +0.000 C 
ATOM     14  C   UNL     1       2.891   6.971  19.163  0.00  0.00    +0.000 C 
ATOM     15  C   UNL     1       2.342   7.981  18.147  0.00  0.00    +0.000 C 
ENDBRANCH   5  14
ENDBRANCH   1   5
BRANCH   3  16
ATOM     16  C   UNL     1       6.983   5.905  18.168  0.00  0.00    +0.000 C 
BRANCH  16  17
ATOM     17  C   UNL     1       7.713   7.241  17.895  0.00  0.00    +0.000 C 
ATOM     18  N   UNL     1       8.574   7.691  18.856  0.00  0.00    +0.000 N 
ATOM     19  O   UNL     1       7.525   7.913  16.882  0.00  0.00    +0.000 OA
ATOM     20  H   UNL     1       8.907   7.121  19.622  0.00  0.00    +0.000 HD
ATOM     21  H   UNL     1       9.120   8.512  18.624  0.00  0.00    +0.000 HD
ENDBRANCH  16  17
BRANCH  16  22
ATOM     22  C   UNL     1       7.572   4.749  17.335  0.00  0.00    +0.000 C 
BRANCH  22  23
ATOM     23  C   UNL     1       6.999   4.475  15.962  0.00  0.00    +0.000 A 
ATOM     24  C   UNL     1       5.872   3.679  15.721  0.00  0.00    +0.000 A 
ATOM     25  C   UNL     1       5.378   3.512  14.428  0.00  0.00    +0.000 A 
ATOM     26  C   UNL     1       6.008   4.128  13.354  0.00  0.00    +0.000 A 
ATOM     27  C   UNL     1       7.142   4.905  13.571  0.00  0.00    +0.000 A 
ATOM     28  C   UNL     1       7.634   5.078  14.864  0.00  0.00    +0.000 A 
ENDBRANCH  22  23
ENDBRANCH  16  22
ENDBRANCH   3  16
TORSDOF 9
ENDMDL
MODEL 9
REMARK VINA RESULT:      -7.0      2.981      6.677
REMARK  Name = 
REMARK  11 active torsions:
REMARK  status: ('A' for Active; 'I' for Inactive)
REMARK    1  A    between atoms: C_1  and  C_2
REMARK    2  A    between atoms: C_2  and  C_3
REMARK    3  A    between atoms: C_2  and  C_4
REMARK    4  A    between atoms: C_4  and  N_5
REMARK    5  A    between atoms: C_4  and  C_10
REMARK    6  A    between atoms: C_6  and  C_8
REMARK    7  A    between atoms: C_8  and  S_9
REMARK    8  A    between atoms: N_12  and  C_13
REMARK    9  A    between atoms: C_13  and  C_14
REMARK   10  A    between atoms: C_13  and  C_21
REMARK   11  A    between atoms: C_14  and  C_15
REMARK                            x       y       z     vdW  Elec       q    Type
REMARK                         _______ _______ _______ _____ _____    ______ ____
ROOT
ATOM      1  C   UNL     1       4.019   5.802  17.387  0.00  0.00    +0.000 C 
ATOM      2  O   UNL     1       4.900   6.656  17.422  0.00  0.00    +0.000 OA
ATOM      3  N   UNL     1       4.223   4.557  16.840  0.00  0.00    +0.000 N 
ATOM      4  H   UNL     1       3.540   3.815  16.990  0.00  0.00    +0.000 HD
ENDROOT
BRANCH   1   5
ATOM      5  C   UNL     1       2.623   6.055  17.997  0.00  0.00    +0.000 C 
BRANCH   5   6
ATOM      6  N   UNL     1       2.337   4.991  18.958  0.00  0.00    +0.000 N 
ATOM      7  C   UNL     1       1.616   3.871  18.625  0.00  0.00    +0.000 C 
ATOM      8  O   UNL     1       1.150   3.688  17.503  0.00  0.00    +0.000 OA
ATOM      9  H   UNL     1       2.909   4.945  19.796  0.00  0.00    +0.000 HD
BRANCH   7  10
ATOM     10  C   UNL     1       1.370   2.915  19.787  0.00  0.00    +0.000 C 
BRANCH  10  11
ATOM     11  S   UNL     1       2.039   3.588  21.335  0.00  0.00    +0.000 S 
ATOM     12  H   UNL     1       2.660   2.466  21.736  0.00  0.00    +0.000 HD
ENDBRANCH  10  11
ENDBRANCH   7  10
ENDBRANCH   5   6
BRANCH   5  14
ATOM     13  C   UNL     1       1.968   7.338  20.101  0.00  0.00    +0.000 C 
ATOM     14  C   UNL     1       2.631   7.424  18.723  0.00  0.00    +0.000 C 
ATOM     15  C   UNL     1       1.937   8.514  17.898  0.00  0.00    +0.000 C 
ENDBRANCH   5  14
ENDBRANCH   1   5
BRANCH   3  16
ATOM     16  C   UNL     1       5.461   4.219  16.123  0.00  0.00    +0.000 C 
BRANCH  16  17
ATOM     17  C   UNL     1       6.699   4.398  17.031  0.00  0.00    +0.000 C 
ATOM     18  N   UNL     1       6.551   4.096  18.356  0.00  0.00    +0.000 N 
ATOM     19  O   UNL     1       7.777   4.823  16.620  0.00  0.00    +0.000 OA
ATOM     20  H   UNL     1       5.762   3.586  18.730  0.00  0.00    +0.000 HD
ATOM     21  H   UNL     1       7.391   4.121  18.922  0.00  0.00    +0.000 HD
ENDBRANCH  16  17
BRANCH  16  22
ATOM     22  C   UNL     1       5.619   4.967  14.784  0.00  0.00    +0.000 C 
BRANCH  22  23
ATOM     23  C   UNL     1       5.855   4.164  13.524  0.00  0.00    +0.000 A 
ATOM     24  C   UNL     1       7.114   3.955  12.946  0.00  0.00    +0.000 A 
ATOM     25  C   UNL     1       7.255   3.163  11.807  0.00  0.00    +0.000 A 
ATOM     26  C   UNL     1       6.140   2.576  11.221  0.00  0.00    +0.000 A 
ATOM     27  C   UNL     1       4.878   2.790  11.769  0.00  0.00    +0.000 A 
ATOM     28  C   UNL     1       4.737   3.577  12.910  0.00  0.00    +0.000 A 
ENDBRANCH  22  23
ENDBRANCH  16  22
ENDBRANCH   3  16
TORSDOF 9
ENDMDL
