MODEL 1
REMARK VINA RESULT:      -8.2      0.000      0.000
REMARK  Name = 
REMARK  7 active torsions:
REMARK  status: ('A' for Active; 'I' for Inactive)
REMARK    1  A    between atoms: C_1  and  C_2
REMARK    2  A    between atoms: C_5  and  N_6
REMARK    3  A    between atoms: C_7  and  C_9
REMARK    4  A    between atoms: C_9  and  N_10
REMARK    5  A    between atoms: C_15  and  S_16
REMARK    6  A    between atoms: S_16  and  C_17
REMARK    7  A    between atoms: C_28  and  C_29
REMARK                            x       y       z     vdW  Elec       q    Type
REMARK                         _______ _______ _______ _____ _____    ______ ____
ROOT
ATOM      1  N   UNL     1       4.066   4.126  18.969  0.00  0.00    +0.000 N 
ATOM      2  N   UNL     1       5.315   4.677  19.193  0.00  0.00    +0.000 NA
ATOM      3  C   UNL     1       5.813   4.802  18.002  0.00  0.00    +0.000 A 
ATOM      4  C   UNL     1       7.122   5.353  17.650  0.00  0.00    +0.000 A 
ATOM      5  C   UNL     1       7.472   5.350  16.361  0.00  0.00    +0.000 A 
ATOM      6  C   UNL     1       6.516   4.766  15.385  0.00  0.00    +0.000 A 
ATOM      7  N   UNL     1       5.329   4.328  15.668  0.00  0.00    +0.000 NA
ATOM      8  N   UNL     1       5.009   4.383  16.996  0.00  0.00    +0.000 N 
ATOM      9  C   UNL     1       3.833   3.954  17.587  0.00  0.00    +0.000 A 
ATOM     10  O   UNL     1       2.819   3.512  17.074  0.00  0.00    +0.000 OA
ENDROOT
BRANCH   1  11
ATOM     11  C   UNL     1       3.097   3.972  20.030  0.00  0.00    +0.000 C 
BRANCH  11  13
ATOM     12  N   UNL     1       2.602   6.398  20.007  0.00  0.00    +0.000 N 
ATOM     13  C   UNL     1       2.106   5.125  20.221  0.00  0.00    +0.000 C 
ATOM     14  O   UNL     1       0.963   4.856  20.593  0.00  0.00    +0.000 OA
ATOM     15  H   UNL     1       3.598   6.474  19.836  0.00  0.00    +0.000 HD
BRANCH  12  20
ATOM     16  C   UNL     1      -0.444  11.251  20.482  0.00  0.00    +0.000 C 
ATOM     17  C   UNL     1       0.360   9.983  20.387  0.00  0.00    +0.000 A 
ATOM     18  C   UNL     1       0.985   9.666  19.176  0.00  0.00    +0.000 A 
ATOM     19  C   UNL     1       1.727   8.490  19.037  0.00  0.00    +0.000 A 
ATOM     20  C   UNL     1       1.871   7.605  20.105  0.00  0.00    +0.000 A 
ATOM     21  C   UNL     1       1.271   7.929  21.330  0.00  0.00    +0.000 A 
ATOM     22  C   UNL     1       0.497   9.105  21.478  0.00  0.00    +0.000 A 
ATOM     23  C   UNL     1      -0.195   9.383  22.785  0.00  0.00    +0.000 C 
ENDBRANCH  12  20
ENDBRANCH  11  13
ENDBRANCH   1  11
BRANCH   6  24
ATOM     24  S   UNL     1       7.184   4.712  13.766  0.00  0.00    +0.000 S 
BRANCH  24  25
ATOM     25  C   UNL     1       6.098   3.505  12.943  0.00  0.00    +0.000 C 
ATOM     26  C   UNL     1       6.857   2.636  11.933  0.00  0.00    +0.000 C 
ATOM     27  C   UNL     1       5.913   1.584  11.349  0.00  0.00    +0.000 C 
ATOM     28  C   UNL     1       4.664   2.204  10.723  0.00  0.00    +0.000 C 
ATOM     29  C   UNL     1       3.981   3.224  11.634  0.00  0.00    +0.000 C 
ATOM     30  C   UNL     1       4.972   4.241  12.203  0.00  0.00    +0.000 C 
ENDBRANCH  24  25
ENDBRANCH   6  24
TORSDOF 5
ENDMDL
MODEL 2
REMARK VINA RESULT:      -8.2      4.069      6.671
REMARK  Name = 
REMARK  7 active torsions:
REMARK  status: ('A' for Active; 'I' for Inactive)
REMARK    1  A    between atoms: C_1  and  C_2
REMARK    2  A    between atoms: C_5  and  N_6
REMARK    3  A    between atoms: C_7  and  C_9
REMARK    4  A    between atoms: C_9  and  N_10
REMARK    5  A    between atoms: C_15  and  S_16
REMARK    6  A    between atoms: S_16  and  C_17
REMARK    7  A    between atoms: C_28  and  C_29
REMARK                            x       y       z     vdW  Elec       q    Type
REMARK                         _______ _______ _______ _____ _____    ______ ____
ROOT
ATOM      1  N   UNL     1       1.092  10.365  19.392  0.00  0.00    +0.000 N 
ATOM      2  N   UNL     1       0.813   9.594  20.506  0.00  0.00    +0.000 NA
ATOM      3  C   UNL     1       1.322   8.438  20.215  0.00  0.00    +0.000 A 
ATOM      4  C   UNL     1       1.326   7.242  21.058  0.00  0.00    +0.000 A 
ATOM      5  C   UNL     1       1.861   6.126  20.554  0.00  0.00    +0.000 A 
ATOM      6  C   UNL     1       2.390   6.179  19.166  0.00  0.00    +0.000 A 
ATOM      7  N   UNL     1       2.451   7.242  18.426  0.00  0.00    +0.000 NA
ATOM      8  N   UNL     1       1.919   8.362  19.002  0.00  0.00    +0.000 N 
ATOM      9  C   UNL     1       1.815   9.620  18.434  0.00  0.00    +0.000 A 
ATOM     10  O   UNL     1       2.223  10.026  17.359  0.00  0.00    +0.000 OA
ENDROOT
BRANCH   1  11
ATOM     11  C   UNL     1       0.841  11.788  19.363  0.00  0.00    +0.000 C 
BRANCH  11  13
ATOM     12  N   UNL     1      -1.602  11.446  19.140  0.00  0.00    +0.000 N 
ATOM     13  C   UNL     1      -0.514  12.230  18.800  0.00  0.00    +0.000 C 
ATOM     14  O   UNL     1      -0.544  13.210  18.054  0.00  0.00    +0.000 OA
ATOM     15  H   UNL     1      -1.404  10.593  19.651  0.00  0.00    +0.000 HD
BRANCH  12  20
ATOM     16  C   UNL     1      -7.091  12.341  17.685  0.00  0.00    +0.000 C 
ATOM     17  C   UNL     1      -5.656  12.132  18.083  0.00  0.00    +0.000 A 
ATOM     18  C   UNL     1      -4.789  11.499  17.186  0.00  0.00    +0.000 A 
ATOM     19  C   UNL     1      -3.452  11.268  17.520  0.00  0.00    +0.000 A 
ATOM     20  C   UNL     1      -2.943  11.669  18.755  0.00  0.00    +0.000 A 
ATOM     21  C   UNL     1      -3.799  12.329  19.649  0.00  0.00    +0.000 A 
ATOM     22  C   UNL     1      -5.161  12.548  19.333  0.00  0.00    +0.000 A 
ATOM     23  C   UNL     1      -6.068  13.192  20.346  0.00  0.00    +0.000 C 
ENDBRANCH  12  20
ENDBRANCH  11  13
ENDBRANCH   1  11
BRANCH   6  24
ATOM     24  S   UNL     1       2.927   4.606  18.610  0.00  0.00    +0.000 S 
BRANCH  24  25
ATOM     25  C   UNL     1       4.507   5.004  17.802  0.00  0.00    +0.000 C 
ATOM     26  C   UNL     1       4.718   4.202  16.511  0.00  0.00    +0.000 C 
ATOM     27  C   UNL     1       6.014   4.649  15.834  0.00  0.00    +0.000 C 
ATOM     28  C   UNL     1       7.225   4.541  16.761  0.00  0.00    +0.000 C 
ATOM     29  C   UNL     1       6.985   5.168  18.134  0.00  0.00    +0.000 C 
ATOM     30  C   UNL     1       5.670   4.700  18.759  0.00  0.00    +0.000 C 
ENDBRANCH  24  25
ENDBRANCH   6  24
TORSDOF 5
ENDMDL
MODEL 3
REMARK VINA RESULT:      -8.0      5.446      8.020
REMARK  Name = 
REMARK  7 active torsions:
REMARK  status: ('A' for Active; 'I' for Inactive)
REMARK    1  A    between atoms: C_1  and  C_2
REMARK    2  A    between atoms: C_5  and  N_6
REMARK    3  A    between atoms: C_7  and  C_9
REMARK    4  A    between atoms: C_9  and  N_10
REMARK    5  A    between atoms: C_15  and  S_16
REMARK    6  A    between atoms: S_16  and  C_17
REMARK    7  A    between atoms: C_28  and  C_29
REMARK                            x       y       z     vdW  Elec       q    Type
REMARK                         _______ _______ _______ _____ _____    ______ ____
ROOT
ATOM      1  N   UNL     1       7.764   6.894  18.444  0.00  0.00    +0.000 N 
ATOM      2  N   UNL     1       7.107   7.103  17.245  0.00  0.00    +0.000 NA
ATOM      3  C   UNL     1       6.230   6.149  17.205  0.00  0.00    +0.000 A 
ATOM      4  C   UNL     1       5.246   5.903  16.151  0.00  0.00    +0.000 A 
ATOM      5  C   UNL     1       4.457   4.831  16.272  0.00  0.00    +0.000 A 
ATOM      6  C   UNL     1       4.656   3.957  17.457  0.00  0.00    +0.000 A 
ATOM      7  N   UNL     1       5.479   4.190  18.432  0.00  0.00    +0.000 NA
ATOM      8  N   UNL     1       6.238   5.315  18.272  0.00  0.00    +0.000 N 
ATOM      9  C   UNL     1       7.218   5.786  19.130  0.00  0.00    +0.000 A 
ATOM     10  O   UNL     1       7.568   5.365  20.219  0.00  0.00    +0.000 OA
ENDROOT
BRANCH   1  11
ATOM     11  C   UNL     1       8.722   7.841  18.967  0.00  0.00    +0.000 C 
BRANCH  11  13
ATOM     12  N   UNL     1       9.511  10.188  18.974  0.00  0.00    +0.000 N 
ATOM     13  C   UNL     1       8.603   9.282  18.459  0.00  0.00    +0.000 C 
ATOM     14  O   UNL     1       7.691   9.550  17.674  0.00  0.00    +0.000 OA
ATOM     15  H   UNL     1      10.118   9.852  19.713  0.00  0.00    +0.000 HD
BRANCH  12  20
ATOM     16  C   UNL     1       9.999  15.749  17.596  0.00  0.00    +0.000 C 
ATOM     17  C   UNL     1       9.880  14.286  17.928  0.00  0.00    +0.000 A 
ATOM     18  C   UNL     1       8.922  13.879  18.863  0.00  0.00    +0.000 A 
ATOM     19  C   UNL     1       8.788  12.533  19.215  0.00  0.00    +0.000 A 
ATOM     20  C   UNL     1       9.602  11.559  18.639  0.00  0.00    +0.000 A 
ATOM     21  C   UNL     1      10.547  11.956  17.682  0.00  0.00    +0.000 A 
ATOM     22  C   UNL     1      10.709  13.318  17.333  0.00  0.00    +0.000 A 
ATOM     23  C   UNL     1      11.783  13.716  16.357  0.00  0.00    +0.000 C 
ENDBRANCH  12  20
ENDBRANCH  11  13
ENDBRANCH   1  11
BRANCH   6  24
ATOM     24  S   UNL     1       3.644   2.528  17.393  0.00  0.00    +0.000 S 
BRANCH  24  25
ATOM     25  C   UNL     1       2.610   2.725  18.878  0.00  0.00    +0.000 C 
ATOM     26  C   UNL     1       1.945   4.106  18.944  0.00  0.00    +0.000 C 
ATOM     27  C   UNL     1       1.020   4.172  20.160  0.00  0.00    +0.000 C 
ATOM     28  C   UNL     1       1.744   3.840  21.464  0.00  0.00    +0.000 C 
ATOM     29  C   UNL     1       2.575   2.560  21.377  0.00  0.00    +0.000 C 
ATOM     30  C   UNL     1       3.469   2.538  20.137  0.00  0.00    +0.000 C 
ENDBRANCH  24  25
ENDBRANCH   6  24
TORSDOF 5
ENDMDL
MODEL 4
REMARK VINA RESULT:      -8.0      4.259      7.154
REMARK  Name = 
REMARK  7 active torsions:
REMARK  status: ('A' for Active; 'I' for Inactive)
REMARK    1  A    between atoms: C_1  and  C_2
REMARK    2  A    between atoms: C_5  and  N_6
REMARK    3  A    between atoms: C_7  and  C_9
REMARK    4  A    between atoms: C_9  and  N_10
REMARK    5  A    between atoms: C_15  and  S_16
REMARK    6  A    between atoms: S_16  and  C_17
REMARK    7  A    between atoms: C_28  and  C_29
REMARK                            x       y       z     vdW  Elec       q    Type
REMARK                         _______ _______ _______ _____ _____    ______ ____
ROOT
ATOM      1  N   UNL     1       0.829  11.049  20.465  0.00  0.00    +0.000 N 
ATOM      2  N   UNL     1       1.109  10.820  19.130  0.00  0.00    +0.000 NA
ATOM      3  C   UNL     1       1.473   9.576  19.101  0.00  0.00    +0.000 A 
ATOM      4  C   UNL     1       1.868   8.802  17.925  0.00  0.00    +0.000 A 
ATOM      5  C   UNL     1       2.258   7.537  18.113  0.00  0.00    +0.000 A 
ATOM      6  C   UNL     1       2.284   7.022  19.506  0.00  0.00    +0.000 A 
ATOM      7  N   UNL     1       1.881   7.670  20.554  0.00  0.00    +0.000 NA
ATOM      8  N   UNL     1       1.462   8.947  20.301  0.00  0.00    +0.000 N 
ATOM      9  C   UNL     1       1.017   9.875  21.227  0.00  0.00    +0.000 A 
ATOM     10  O   UNL     1       0.831   9.753  22.426  0.00  0.00    +0.000 OA
ENDROOT
BRANCH   1  11
ATOM     11  C   UNL     1       0.225  12.281  20.919  0.00  0.00    +0.000 C 
BRANCH  11  13
ATOM     12  N   UNL     1      -1.954  11.768  19.861  0.00  0.00    +0.000 N 
ATOM     13  C   UNL     1      -1.025  12.746  20.164  0.00  0.00    +0.000 C 
ATOM     14  O   UNL     1      -1.102  13.931  19.837  0.00  0.00    +0.000 OA
ATOM     15  H   UNL     1      -1.693  10.813  20.075  0.00  0.00    +0.000 HD
BRANCH  12  20
ATOM     16  C   UNL     1      -7.010  12.554  17.240  0.00  0.00    +0.000 C 
ATOM     17  C   UNL     1      -5.692  12.373  17.942  0.00  0.00    +0.000 A 
ATOM     18  C   UNL     1      -4.636  11.764  17.256  0.00  0.00    +0.000 A 
ATOM     19  C   UNL     1      -3.400  11.560  17.875  0.00  0.00    +0.000 A 
ATOM     20  C   UNL     1      -3.183  11.965  19.191  0.00  0.00    +0.000 A 
ATOM     21  C   UNL     1      -4.228  12.601  19.877  0.00  0.00    +0.000 A 
ATOM     22  C   UNL     1      -5.493  12.793  19.270  0.00  0.00    +0.000 A 
ATOM     23  C   UNL     1      -6.614  13.411  20.061  0.00  0.00    +0.000 C 
ENDBRANCH  12  20
ENDBRANCH  11  13
ENDBRANCH   1  11
BRANCH   6  24
ATOM     24  S   UNL     1       2.949   5.402  19.593  0.00  0.00    +0.000 S 
BRANCH  24  25
ATOM     25  C   UNL     1       4.297   5.476  18.373  0.00  0.00    +0.000 C 
ATOM     26  C   UNL     1       4.098   4.478  17.226  0.00  0.00    +0.000 C 
ATOM     27  C   UNL     1       5.211   4.655  16.192  0.00  0.00    +0.000 C 
ATOM     28  C   UNL     1       6.604   4.528  16.806  0.00  0.00    +0.000 C 
ATOM     29  C   UNL     1       6.781   5.370  18.069  0.00  0.00    +0.000 C 
ATOM     30  C   UNL     1       5.635   5.167  19.061  0.00  0.00    +0.000 C 
ENDBRANCH  24  25
ENDBRANCH   6  24
TORSDOF 5
ENDMDL
MODEL 5
REMARK VINA RESULT:      -7.9      0.294      1.283
REMARK  Name = 
REMARK  7 active torsions:
REMARK  status: ('A' for Active; 'I' for Inactive)
REMARK    1  A    between atoms: C_1  and  C_2
REMARK    2  A    between atoms: C_5  and  N_6
REMARK    3  A    between atoms: C_7  and  C_9
REMARK    4  A    between atoms: C_9  and  N_10
REMARK    5  A    between atoms: C_15  and  S_16
REMARK    6  A    between atoms: S_16  and  C_17
REMARK    7  A    between atoms: C_28  and  C_29
REMARK                            x       y       z     vdW  Elec       q    Type
REMARK                         _______ _______ _______ _____ _____    ______ ____
ROOT
ATOM      1  N   UNL     1       4.046   4.053  18.989  0.00  0.00    +0.000 N 
ATOM      2  N   UNL     1       5.263   4.671  19.213  0.00  0.00    +0.000 NA
ATOM      3  C   UNL     1       5.763   4.806  18.024  0.00  0.00    +0.000 A 
ATOM      4  C   UNL     1       7.044   5.419  17.673  0.00  0.00    +0.000 A 
ATOM      5  C   UNL     1       7.403   5.418  16.386  0.00  0.00    +0.000 A 
ATOM      6  C   UNL     1       6.485   4.773  15.412  0.00  0.00    +0.000 A 
ATOM      7  N   UNL     1       5.320   4.278  15.693  0.00  0.00    +0.000 NA
ATOM      8  N   UNL     1       4.988   4.334  17.019  0.00  0.00    +0.000 N 
ATOM      9  C   UNL     1       3.831   3.852  17.608  0.00  0.00    +0.000 A 
ATOM     10  O   UNL     1       2.845   3.351  17.094  0.00  0.00    +0.000 OA
ENDROOT
BRANCH   1  11
ATOM     11  C   UNL     1       3.079   3.863  20.046  0.00  0.00    +0.000 C 
BRANCH  11  13
ATOM     12  N   UNL     1       2.557   6.278  20.204  0.00  0.00    +0.000 N 
ATOM     13  C   UNL     1       2.059   4.989  20.247  0.00  0.00    +0.000 C 
ATOM     14  O   UNL     1       0.889   4.681  20.479  0.00  0.00    +0.000 OA
ATOM     15  H   UNL     1       3.563   6.374  20.138  0.00  0.00    +0.000 HD
BRANCH  12  20
ATOM     16  C   UNL     1      -0.425  11.168  20.704  0.00  0.00    +0.000 C 
ATOM     17  C   UNL     1       0.349   9.889  20.543  0.00  0.00    +0.000 A 
ATOM     18  C   UNL     1       0.399   8.988  21.613  0.00  0.00    +0.000 A 
ATOM     19  C   UNL     1       1.121   7.795  21.514  0.00  0.00    +0.000 A 
ATOM     20  C   UNL     1       1.804   7.467  20.344  0.00  0.00    +0.000 A 
ATOM     21  C   UNL     1       1.736   8.351  19.258  0.00  0.00    +0.000 A 
ATOM     22  C   UNL     1       1.028   9.574  19.352  0.00  0.00    +0.000 A 
ATOM     23  C   UNL     1       1.039  10.533  18.193  0.00  0.00    +0.000 C 
ENDBRANCH  12  20
ENDBRANCH  11  13
ENDBRANCH   1  11
BRANCH   6  24
ATOM     24  S   UNL     1       7.165   4.734  13.798  0.00  0.00    +0.000 S 
BRANCH  24  25
ATOM     25  C   UNL     1       6.097   3.521  12.961  0.00  0.00    +0.000 C 
ATOM     26  C   UNL     1       6.868   2.676  11.939  0.00  0.00    +0.000 C 
ATOM     27  C   UNL     1       5.939   1.617  11.343  0.00  0.00    +0.000 C 
ATOM     28  C   UNL     1       4.681   2.227  10.726  0.00  0.00    +0.000 C 
ATOM     29  C   UNL     1       3.984   3.225  11.650  0.00  0.00    +0.000 C 
ATOM     30  C   UNL     1       4.960   4.249  12.231  0.00  0.00    +0.000 C 
ENDBRANCH  24  25
ENDBRANCH   6  24
TORSDOF 5
ENDMDL
MODEL 6
REMARK VINA RESULT:      -7.9      5.571     11.248
REMARK  Name = 
REMARK  7 active torsions:
REMARK  status: ('A' for Active; 'I' for Inactive)
REMARK    1  A    between atoms: C_1  and  C_2
REMARK    2  A    between atoms: C_5  and  N_6
REMARK    3  A    between atoms: C_7  and  C_9
REMARK    4  A    between atoms: C_9  and  N_10
REMARK    5  A    between atoms: C_15  and  S_16
REMARK    6  A    between atoms: S_16  and  C_17
REMARK    7  A    between atoms: C_28  and  C_29
REMARK                            x       y       z     vdW  Elec       q    Type
REMARK                         _______ _______ _______ _____ _____    ______ ____
ROOT
ATOM      1  N   UNL     1       0.197  10.638  21.789  0.00  0.00    +0.000 N 
ATOM      2  N   UNL     1      -0.397  10.823  23.024  0.00  0.00    +0.000 NA
ATOM      3  C   UNL     1      -1.458  11.516  22.754  0.00  0.00    +0.000 A 
ATOM      4  C   UNL     1      -2.469  11.983  23.702  0.00  0.00    +0.000 A 
ATOM      5  C   UNL     1      -3.470  12.731  23.229  0.00  0.00    +0.000 A 
ATOM      6  C   UNL     1      -3.467  13.052  21.778  0.00  0.00    +0.000 A 
ATOM      7  N   UNL     1      -2.616  12.601  20.911  0.00  0.00    +0.000 NA
ATOM      8  N   UNL     1      -1.632  11.815  21.444  0.00  0.00    +0.000 N 
ATOM      9  C   UNL     1      -0.575  11.230  20.765  0.00  0.00    +0.000 A 
ATOM     10  O   UNL     1      -0.326  11.219  19.572  0.00  0.00    +0.000 OA
ENDROOT
BRANCH   1  11
ATOM     11  C   UNL     1       1.335   9.765  21.610  0.00  0.00    +0.000 C 
BRANCH  11  13
ATOM     12  N   UNL     1       2.088   7.716  20.441  0.00  0.00    +0.000 N 
ATOM     13  C   UNL     1       1.039   8.361  21.071  0.00  0.00    +0.000 C 
ATOM     14  O   UNL     1      -0.106   7.922  21.186  0.00  0.00    +0.000 OA
ATOM     15  H   UNL     1       2.934   8.255  20.302  0.00  0.00    +0.000 HD
BRANCH  12  20
ATOM     16  C   UNL     1       1.982   2.387  18.287  0.00  0.00    +0.000 C 
ATOM     17  C   UNL     1       1.988   3.773  18.870  0.00  0.00    +0.000 A 
ATOM     18  C   UNL     1       2.332   4.853  18.049  0.00  0.00    +0.000 A 
ATOM     19  C   UNL     1       2.368   6.156  18.553  0.00  0.00    +0.000 A 
ATOM     20  C   UNL     1       2.053   6.416  19.886  0.00  0.00    +0.000 A 
ATOM     21  C   UNL     1       1.680   5.344  20.708  0.00  0.00    +0.000 A 
ATOM     22  C   UNL     1       1.663   4.016  20.218  0.00  0.00    +0.000 A 
ATOM     23  C   UNL     1       1.331   2.881  21.148  0.00  0.00    +0.000 C 
ENDBRANCH  12  20
ENDBRANCH  11  13
ENDBRANCH   1  11
BRANCH   6  24
ATOM     24  S   UNL     1      -4.763  14.151  21.349  0.00  0.00    +0.000 S 
BRANCH  24  25
ATOM     25  C   UNL     1      -5.347  13.457  19.771  0.00  0.00    +0.000 C 
ATOM     26  C   UNL     1      -6.321  14.396  19.048  0.00  0.00    +0.000 C 
ATOM     27  C   UNL     1      -6.698  13.798  17.692  0.00  0.00    +0.000 C 
ATOM     28  C   UNL     1      -7.273  12.388  17.815  0.00  0.00    +0.000 C 
ATOM     29  C   UNL     1      -6.421  11.469  18.690  0.00  0.00    +0.000 C 
ATOM     30  C   UNL     1      -6.058  12.120  20.025  0.00  0.00    +0.000 C 
ENDBRANCH  24  25
ENDBRANCH   6  24
TORSDOF 5
ENDMDL
MODEL 7
REMARK VINA RESULT:      -7.9      4.856     11.289
REMARK  Name = 
REMARK  7 active torsions:
REMARK  status: ('A' for Active; 'I' for Inactive)
REMARK    1  A    between atoms: C_1  and  C_2
REMARK    2  A    between atoms: C_5  and  N_6
REMARK    3  A    between atoms: C_7  and  C_9
REMARK    4  A    between atoms: C_9  and  N_10
REMARK    5  A    between atoms: C_15  and  S_16
REMARK    6  A    between atoms: S_16  and  C_17
REMARK    7  A    between atoms: C_28  and  C_29
REMARK                            x       y       z     vdW  Elec       q    Type
REMARK                         _______ _______ _______ _____ _____    ______ ____
ROOT
ATOM      1  N   UNL     1       0.651   9.924  18.513  0.00  0.00    +0.000 N 
ATOM      2  N   UNL     1      -0.408   9.726  17.646  0.00  0.00    +0.000 NA
ATOM      3  C   UNL     1      -1.344  10.482  18.128  0.00  0.00    +0.000 A 
ATOM      4  C   UNL     1      -2.690  10.668  17.586  0.00  0.00    +0.000 A 
ATOM      5  C   UNL     1      -3.530  11.459  18.261  0.00  0.00    +0.000 A 
ATOM      6  C   UNL     1      -3.040  12.070  19.524  0.00  0.00    +0.000 A 
ATOM      7  N   UNL     1      -1.834  11.968  19.989  0.00  0.00    +0.000 NA
ATOM      8  N   UNL     1      -1.008  11.173  19.243  0.00  0.00    +0.000 N 
ATOM      9  C   UNL     1       0.312  10.856  19.518  0.00  0.00    +0.000 A 
ATOM     10  O   UNL     1       1.039  11.253  20.413  0.00  0.00    +0.000 OA
ENDROOT
BRANCH   1  11
ATOM     11  C   UNL     1       1.967   9.388  18.247  0.00  0.00    +0.000 C 
BRANCH  11  13
ATOM     12  N   UNL     1       2.515   7.035  17.704  0.00  0.00    +0.000 N 
ATOM     13  C   UNL     1       2.220   7.946  18.701  0.00  0.00    +0.000 C 
ATOM     14  O   UNL     1       2.101   7.683  19.899  0.00  0.00    +0.000 OA
ATOM     15  H   UNL     1       2.447   7.369  16.750  0.00  0.00    +0.000 HD
BRANCH  12  20
ATOM     16  C   UNL     1       3.590   1.448  18.529  0.00  0.00    +0.000 C 
ATOM     17  C   UNL     1       3.281   2.902  18.302  0.00  0.00    +0.000 A 
ATOM     18  C   UNL     1       4.331   3.781  18.011  0.00  0.00    +0.000 A 
ATOM     19  C   UNL     1       4.093   5.143  17.810  0.00  0.00    +0.000 A 
ATOM     20  C   UNL     1       2.801   5.663  17.887  0.00  0.00    +0.000 A 
ATOM     21  C   UNL     1       1.741   4.784  18.152  0.00  0.00    +0.000 A 
ATOM     22  C   UNL     1       1.970   3.407  18.380  0.00  0.00    +0.000 A 
ATOM     23  C   UNL     1       0.818   2.507  18.736  0.00  0.00    +0.000 C 
ENDBRANCH  12  20
ENDBRANCH  11  13
ENDBRANCH   1  11
BRANCH   6  24
ATOM     24  S   UNL     1      -4.302  12.960  20.353  0.00  0.00    +0.000 S 
BRANCH  24  25
ATOM     25  C   UNL     1      -3.637  13.083  22.042  0.00  0.00    +0.000 C 
ATOM     26  C   UNL     1      -4.716  12.857  23.109  0.00  0.00    +0.000 C 
ATOM     27  C   UNL     1      -4.077  12.879  24.498  0.00  0.00    +0.000 C 
ATOM     28  C   UNL     1      -3.295  14.165  24.761  0.00  0.00    +0.000 C 
ATOM     29  C   UNL     1      -2.339  14.527  23.625  0.00  0.00    +0.000 C 
ATOM     30  C   UNL     1      -3.023  14.474  22.258  0.00  0.00    +0.000 C 
ENDBRANCH  24  25
ENDBRANCH   6  24
TORSDOF 5
ENDMDL
MODEL 8
REMARK VINA RESULT:      -7.9      3.959      6.623
REMARK  Name = 
REMARK  7 active torsions:
REMARK  status: ('A' for Active; 'I' for Inactive)
REMARK    1  A    between atoms: C_1  and  C_2
REMARK    2  A    between atoms: C_5  and  N_6
REMARK    3  A    between atoms: C_7  and  C_9
REMARK    4  A    between atoms: C_9  and  N_10
REMARK    5  A    between atoms: C_15  and  S_16
REMARK    6  A    between atoms: S_16  and  C_17
REMARK    7  A    between atoms: C_28  and  C_29
REMARK                            x       y       z     vdW  Elec       q    Type
REMARK                         _______ _______ _______ _____ _____    ______ ____
ROOT
ATOM      1  N   UNL     1       1.325  10.147  19.186  0.00  0.00    +0.000 N 
ATOM      2  N   UNL     1       1.030   9.448  20.342  0.00  0.00    +0.000 NA
ATOM      3  C   UNL     1       1.444   8.246  20.089  0.00  0.00    +0.000 A 
ATOM      4  C   UNL     1       1.390   7.090  20.984  0.00  0.00    +0.000 A 
ATOM      5  C   UNL     1       1.827   5.918  20.515  0.00  0.00    +0.000 A 
ATOM      6  C   UNL     1       2.311   5.872  19.111  0.00  0.00    +0.000 A 
ATOM      7  N   UNL     1       2.423   6.894  18.321  0.00  0.00    +0.000 NA
ATOM      8  N   UNL     1       1.992   8.074  18.862  0.00  0.00    +0.000 N 
ATOM      9  C   UNL     1       1.960   9.311  18.241  0.00  0.00    +0.000 A 
ATOM     10  O   UNL     1       2.360   9.639  17.137  0.00  0.00    +0.000 OA
ENDROOT
BRANCH   1  11
ATOM     11  C   UNL     1       1.176  11.582  19.100  0.00  0.00    +0.000 C 
BRANCH  11  13
ATOM     12  N   UNL     1      -1.211  11.147  18.608  0.00  0.00    +0.000 N 
ATOM     13  C   UNL     1      -0.224  12.103  18.761  0.00  0.00    +0.000 C 
ATOM     14  O   UNL     1      -0.372  13.316  18.600  0.00  0.00    +0.000 OA
ATOM     15  H   UNL     1      -0.913  10.179  18.638  0.00  0.00    +0.000 HD
BRANCH  12  20
ATOM     16  C   UNL     1      -6.772  12.124  17.526  0.00  0.00    +0.000 C 
ATOM     17  C   UNL     1      -5.317  11.892  17.829  0.00  0.00    +0.000 A 
ATOM     18  C   UNL     1      -4.498  11.339  16.837  0.00  0.00    +0.000 A 
ATOM     19  C   UNL     1      -3.145  11.090  17.080  0.00  0.00    +0.000 A 
ATOM     20  C   UNL     1      -2.572  11.393  18.314  0.00  0.00    +0.000 A 
ATOM     21  C   UNL     1      -3.379  11.972  19.304  0.00  0.00    +0.000 A 
ATOM     22  C   UNL     1      -4.757  12.208  19.080  0.00  0.00    +0.000 A 
ATOM     23  C   UNL     1      -5.609  12.762  20.189  0.00  0.00    +0.000 C 
ENDBRANCH  12  20
ENDBRANCH  11  13
ENDBRANCH   1  11
BRANCH   6  24
ATOM     24  S   UNL     1       2.713   4.241  18.610  0.00  0.00    +0.000 S 
BRANCH  24  25
ATOM     25  C   UNL     1       4.511   4.353  18.350  0.00  0.00    +0.000 C 
ATOM     26  C   UNL     1       5.161   5.422  19.237  0.00  0.00    +0.000 C 
ATOM     27  C   UNL     1       6.677   5.401  19.040  0.00  0.00    +0.000 C 
ATOM     28  C   UNL     1       7.078   5.573  17.575  0.00  0.00    +0.000 C 
ATOM     29  C   UNL     1       6.310   4.648  16.632  0.00  0.00    +0.000 C 
ATOM     30  C   UNL     1       4.801   4.696  16.882  0.00  0.00    +0.000 C 
ENDBRANCH  24  25
ENDBRANCH   6  24
TORSDOF 5
ENDMDL
MODEL 9
REMARK VINA RESULT:      -7.9      4.218      7.012
REMARK  Name = 
REMARK  7 active torsions:
REMARK  status: ('A' for Active; 'I' for Inactive)
REMARK    1  A    between atoms: C_1  and  C_2
REMARK    2  A    between atoms: C_5  and  N_6
REMARK    3  A    between atoms: C_7  and  C_9
REMARK    4  A    between atoms: C_9  and  N_10
REMARK    5  A    between atoms: C_15  and  S_16
REMARK    6  A    between atoms: S_16  and  C_17
REMARK    7  A    between atoms: C_28  and  C_29
REMARK                            x       y       z     vdW  Elec       q    Type
REMARK                         _______ _______ _______ _____ _____    ______ ____
ROOT
ATOM      1  N   UNL     1       0.548  10.250  20.731  0.00  0.00    +0.000 N 
ATOM      2  N   UNL     1       0.934  10.276  19.403  0.00  0.00    +0.000 NA
ATOM      3  C   UNL     1       1.463   9.108  19.214  0.00  0.00    +0.000 A 
ATOM      4  C   UNL     1       2.028   8.589  17.969  0.00  0.00    +0.000 A 
ATOM      5  C   UNL     1       2.572   7.369  17.992  0.00  0.00    +0.000 A 
ATOM      6  C   UNL     1       2.584   6.641  19.287  0.00  0.00    +0.000 A 
ATOM      7  N   UNL     1       2.036   7.057  20.387  0.00  0.00    +0.000 NA
ATOM      8  N   UNL     1       1.466   8.296  20.299  0.00  0.00    +0.000 N 
ATOM      9  C   UNL     1       0.846   9.001  21.317  0.00  0.00    +0.000 A 
ATOM     10  O   UNL     1       0.608   8.664  22.465  0.00  0.00    +0.000 OA
ENDROOT
BRANCH   1  11
ATOM     11  C   UNL     1      -0.242  11.309  21.318  0.00  0.00    +0.000 C 
BRANCH  11  13
ATOM     12  N   UNL     1       0.023  13.152  19.686  0.00  0.00    +0.000 N 
ATOM     13  C   UNL     1       0.192  12.743  20.996  0.00  0.00    +0.000 C 
ATOM     14  O   UNL     1       0.700  13.414  21.895  0.00  0.00    +0.000 OA
ATOM     15  H   UNL     1      -0.282  12.446  19.026  0.00  0.00    +0.000 HD
BRANCH  12  20
ATOM     16  C   UNL     1       1.396  18.335  17.612  0.00  0.00    +0.000 C 
ATOM     17  C   UNL     1       1.058  16.966  18.136  0.00  0.00    +0.000 A 
ATOM     18  C   UNL     1      -0.246  16.713  18.579  0.00  0.00    +0.000 A 
ATOM     19  C   UNL     1      -0.600  15.462  19.090  0.00  0.00    +0.000 A 
ATOM     20  C   UNL     1       0.334  14.429  19.165  0.00  0.00    +0.000 A 
ATOM     21  C   UNL     1       1.634  14.666  18.698  0.00  0.00    +0.000 A 
ATOM     22  C   UNL     1       2.013  15.936  18.200  0.00  0.00    +0.000 A 
ATOM     23  C   UNL     1       3.437  16.177  17.777  0.00  0.00    +0.000 C 
ENDBRANCH  12  20
ENDBRANCH  11  13
ENDBRANCH   1  11
BRANCH   6  24
ATOM     24  S   UNL     1       3.454   5.124  19.178  0.00  0.00    +0.000 S 
BRANCH  24  25
ATOM     25  C   UNL     1       4.668   5.471  17.868  0.00  0.00    +0.000 C 
ATOM     26  C   UNL     1       4.638   4.418  16.754  0.00  0.00    +0.000 C 
ATOM     27  C   UNL     1       5.610   4.817  15.643  0.00  0.00    +0.000 C 
ATOM     28  C   UNL     1       7.030   5.038  16.161  0.00  0.00    +0.000 C 
ATOM     29  C   UNL     1       7.083   5.939  17.395  0.00  0.00    +0.000 C 
ATOM     30  C   UNL     1       6.082   5.506  18.467  0.00  0.00    +0.000 C 
ENDBRANCH  24  25
ENDBRANCH   6  24
TORSDOF 5
ENDMDL
