MODEL 1
REMARK VINA RESULT:      -7.9      0.000      0.000
REMARK  Name = 
REMARK  4 active torsions:
REMARK  status: ('A' for Active; 'I' for Inactive)
REMARK    1  A    between atoms: C_2  and  C_16
REMARK    2  A    between atoms: N_3  and  C_4
REMARK    3  A    between atoms: C_4  and  C_5
REMARK    4  A    between atoms: C_5  and  N_6
REMARK                            x       y       z     vdW  Elec       q    Type
REMARK                         _______ _______ _______ _____ _____    ______ ____
ROOT
ATOM      1  C   UNL     1       4.076   2.573  17.404  0.00  0.00    +0.000 C 
ENDROOT
BRANCH   1   4
ATOM      2  O   UNL     1       5.379   3.883  19.462  0.00  0.00    +0.000 OA
ATOM      3  C   UNL     1       5.524   4.355  18.336  0.00  0.00    +0.000 C 
ATOM      4  N   UNL     1       4.911   3.756  17.253  0.00  0.00    +0.000 N 
ATOM      5  H   UNL     1       5.066   4.113  16.319  0.00  0.00    +0.000 HD
BRANCH   3   6
ATOM      6  C   UNL     1       6.332   5.529  18.059  0.00  0.00    +0.000 A 
ATOM      7  S   UNL     1       7.694   5.843  19.076  0.00  0.00    +0.000 S 
ATOM      8  C   UNL     1       8.051   7.237  18.161  0.00  0.00    +0.000 A 
ATOM      9  N   UNL     1       7.241   7.496  17.163  0.00  0.00    +0.000 NA
ATOM     10  C   UNL     1       6.252   6.527  17.100  0.00  0.00    +0.000 A 
ATOM     11 CL   UNL     1       5.067   6.667  15.863  0.00  0.00    +0.000 Cl
ENDBRANCH   3   6
ENDBRANCH   1   4
BRANCH   1  12
ATOM     12  C   UNL     1       2.581   2.868  17.170  0.00  0.00    +0.000 C 
BRANCH  12  13
ATOM     13  N   UNL     1       1.914   3.330  18.389  0.00  0.00    +0.000 N 
ATOM     14  C   UNL     1       1.169   2.376  19.204  0.00  0.00    +0.000 C 
ATOM     15  C   UNL     1       1.651   2.448  20.644  0.00  0.00    +0.000 C 
ATOM     16  C   UNL     1       1.433   3.852  21.197  0.00  0.00    +0.000 C 
ATOM     17  C   UNL     1       1.776   4.938  20.205  0.00  0.00    +0.000 A 
ATOM     18  C   UNL     1       1.859   6.263  20.669  0.00  0.00    +0.000 A 
ATOM     19  C   UNL     1       2.152   7.302  19.791  0.00  0.00    +0.000 A 
ATOM     20  C   UNL     1       2.351   7.027  18.446  0.00  0.00    +0.000 A 
ATOM     21  C   UNL     1       2.266   5.712  17.982  0.00  0.00    +0.000 A 
ATOM     22  C   UNL     1       1.983   4.641  18.841  0.00  0.00    +0.000 A 
ENDBRANCH  12  13
ENDBRANCH   1  12
TORSDOF 4
ENDMDL
MODEL 2
REMARK VINA RESULT:      -7.2      1.479      1.520
REMARK  Name = 
REMARK  4 active torsions:
REMARK  status: ('A' for Active; 'I' for Inactive)
REMARK    1  A    between atoms: C_2  and  C_16
REMARK    2  A    between atoms: N_3  and  C_4
REMARK    3  A    between atoms: C_4  and  C_5
REMARK    4  A    between atoms: C_5  and  N_6
REMARK                            x       y       z     vdW  Elec       q    Type
REMARK                         _______ _______ _______ _____ _____    ______ ____
ROOT
ATOM      1  C   UNL     1       4.098   2.446  17.578  0.00  0.00    +0.000 C 
ENDROOT
BRANCH   1   4
ATOM      2  O   UNL     1       5.447   3.788  19.585  0.00  0.00    +0.000 OA
ATOM      3  C   UNL     1       5.540   4.261  18.454  0.00  0.00    +0.000 C 
ATOM      4  N   UNL     1       4.900   3.647  17.395  0.00  0.00    +0.000 N 
ATOM      5  H   UNL     1       5.013   4.005  16.455  0.00  0.00    +0.000 HD
BRANCH   3   6
ATOM      6  C   UNL     1       6.310   5.452  18.146  0.00  0.00    +0.000 A 
ATOM      7  S   UNL     1       5.790   6.446  16.831  0.00  0.00    +0.000 S 
ATOM      8  C   UNL     1       7.091   7.509  17.125  0.00  0.00    +0.000 A 
ATOM      9  N   UNL     1       7.887   7.188  18.116  0.00  0.00    +0.000 NA
ATOM     10  C   UNL     1       7.451   6.010  18.703  0.00  0.00    +0.000 A 
ATOM     11 CL   UNL     1       8.351   5.392  20.029  0.00  0.00    +0.000 Cl
ENDBRANCH   3   6
ENDBRANCH   1   4
BRANCH   1  12
ATOM     12  C   UNL     1       2.585   2.723  17.481  0.00  0.00    +0.000 C 
BRANCH  12  13
ATOM     13  N   UNL     1       2.047   3.279  18.725  0.00  0.00    +0.000 N 
ATOM     14  C   UNL     1       1.508   2.378  19.739  0.00  0.00    +0.000 C 
ATOM     15  C   UNL     1       2.169   2.660  21.078  0.00  0.00    +0.000 C 
ATOM     16  C   UNL     1       1.901   4.100  21.499  0.00  0.00    +0.000 C 
ATOM     17  C   UNL     1       2.008   5.081  20.355  0.00  0.00    +0.000 A 
ATOM     18  C   UNL     1       2.032   6.455  20.654  0.00  0.00    +0.000 A 
ATOM     19  C   UNL     1       2.109   7.398  19.634  0.00  0.00    +0.000 A 
ATOM     20  C   UNL     1       2.151   6.978  18.313  0.00  0.00    +0.000 A 
ATOM     21  C   UNL     1       2.124   5.614  18.013  0.00  0.00    +0.000 A 
ATOM     22  C   UNL     1       2.057   4.636  19.016  0.00  0.00    +0.000 A 
ENDBRANCH  12  13
ENDBRANCH   1  12
TORSDOF 4
ENDMDL
MODEL 3
REMARK VINA RESULT:      -7.0      1.067      1.073
REMARK  Name = 
REMARK  4 active torsions:
REMARK  status: ('A' for Active; 'I' for Inactive)
REMARK    1  A    between atoms: C_2  and  C_16
REMARK    2  A    between atoms: N_3  and  C_4
REMARK    3  A    between atoms: C_4  and  C_5
REMARK    4  A    between atoms: C_5  and  N_6
REMARK                            x       y       z     vdW  Elec       q    Type
REMARK                         _______ _______ _______ _____ _____    ______ ____
ROOT
ATOM      1  C   UNL     1       4.100   2.098  17.847  0.00  0.00    +0.000 C 
ENDROOT
BRANCH   1   4
ATOM      2  O   UNL     1       5.067   3.635  15.760  0.00  0.00    +0.000 OA
ATOM      3  C   UNL     1       5.336   4.024  16.896  0.00  0.00    +0.000 C 
ATOM      4  N   UNL     1       4.885   3.315  17.992  0.00  0.00    +0.000 N 
ATOM      5  H   UNL     1       5.063   3.657  18.927  0.00  0.00    +0.000 HD
BRANCH   3   6
ATOM      6  C   UNL     1       6.109   5.221  17.168  0.00  0.00    +0.000 A 
ATOM      7  S   UNL     1       7.414   5.113  18.296  0.00  0.00    +0.000 S 
ATOM      8  C   UNL     1       7.756   6.766  18.054  0.00  0.00    +0.000 A 
ATOM      9  N   UNL     1       6.979   7.399  17.209  0.00  0.00    +0.000 NA
ATOM     10  C   UNL     1       6.031   6.524  16.700  0.00  0.00    +0.000 A 
ATOM     11 CL   UNL     1       4.895   7.140  15.568  0.00  0.00    +0.000 Cl
ENDBRANCH   3   6
ENDBRANCH   1   4
BRANCH   1  12
ATOM     12  C   UNL     1       2.589   2.379  17.720  0.00  0.00    +0.000 C 
BRANCH  12  13
ATOM     13  N   UNL     1       2.060   3.080  18.891  0.00  0.00    +0.000 N 
ATOM     14  C   UNL     1       1.494   2.309  19.994  0.00  0.00    +0.000 C 
ATOM     15  C   UNL     1       2.155   2.720  21.299  0.00  0.00    +0.000 C 
ATOM     16  C   UNL     1       1.921   4.204  21.557  0.00  0.00    +0.000 C 
ATOM     17  C   UNL     1       2.058   5.051  20.313  0.00  0.00    +0.000 A 
ATOM     18  C   UNL     1       2.115   6.448  20.460  0.00  0.00    +0.000 A 
ATOM     19  C   UNL     1       2.221   7.271  19.344  0.00  0.00    +0.000 A 
ATOM     20  C   UNL     1       2.258   6.708  18.077  0.00  0.00    +0.000 A 
ATOM     21  C   UNL     1       2.199   5.320  17.928  0.00  0.00    +0.000 A 
ATOM     22  C   UNL     1       2.102   4.461  19.032  0.00  0.00    +0.000 A 
ENDBRANCH  12  13
ENDBRANCH   1  12
TORSDOF 4
ENDMDL
MODEL 4
REMARK VINA RESULT:      -6.9      3.288      4.847
REMARK  Name = 
REMARK  4 active torsions:
REMARK  status: ('A' for Active; 'I' for Inactive)
REMARK    1  A    between atoms: C_2  and  C_16
REMARK    2  A    between atoms: N_3  and  C_4
REMARK    3  A    between atoms: C_4  and  C_5
REMARK    4  A    between atoms: C_5  and  N_6
REMARK                            x       y       z     vdW  Elec       q    Type
REMARK                         _______ _______ _______ _____ _____    ______ ____
ROOT
ATOM      1  C   UNL     1       2.211   6.764  18.494  0.00  0.00    +0.000 C 
ENDROOT
BRANCH   1   4
ATOM      2  O   UNL     1       3.038   4.404  17.312  0.00  0.00    +0.000 OA
ATOM      3  C   UNL     1       3.923   5.199  17.621  0.00  0.00    +0.000 C 
ATOM      4  N   UNL     1       3.593   6.404  18.212  0.00  0.00    +0.000 N 
ATOM      5  H   UNL     1       4.314   7.081  18.425  0.00  0.00    +0.000 HD
BRANCH   3   6
ATOM      6  C   UNL     1       5.335   4.954  17.390  0.00  0.00    +0.000 A 
ATOM      7  S   UNL     1       6.419   5.094  18.729  0.00  0.00    +0.000 S 
ATOM      8  C   UNL     1       7.724   4.685  17.711  0.00  0.00    +0.000 A 
ATOM      9  N   UNL     1       7.427   4.457  16.454  0.00  0.00    +0.000 NA
ATOM     10  C   UNL     1       6.063   4.613  16.261  0.00  0.00    +0.000 A 
ATOM     11 CL   UNL     1       5.442   4.366  14.678  0.00  0.00    +0.000 Cl
ENDBRANCH   3   6
ENDBRANCH   1   4
BRANCH   1  12
ATOM     12  C   UNL     1       2.040   7.422  19.877  0.00  0.00    +0.000 C 
BRANCH  12  13
ATOM     13  N   UNL     1       1.422   8.746  19.784  0.00  0.00    +0.000 N 
ATOM     14  C   UNL     1       1.507   9.491  18.532  0.00  0.00    +0.000 C 
ATOM     15  C   UNL     1       0.116   9.919  18.095  0.00  0.00    +0.000 C 
ATOM     16  C   UNL     1      -0.515  10.807  19.160  0.00  0.00    +0.000 C 
ATOM     17  C   UNL     1      -0.255  10.321  20.566  0.00  0.00    +0.000 A 
ATOM     18  C   UNL     1      -0.985  10.902  21.619  0.00  0.00    +0.000 A 
ATOM     19  C   UNL     1      -0.767  10.503  22.934  0.00  0.00    +0.000 A 
ATOM     20  C   UNL     1       0.186   9.533  23.207  0.00  0.00    +0.000 A 
ATOM     21  C   UNL     1       0.915   8.956  22.164  0.00  0.00    +0.000 A 
ATOM     22  C   UNL     1       0.713   9.328  20.826  0.00  0.00    +0.000 A 
ENDBRANCH  12  13
ENDBRANCH   1  12
TORSDOF 4
ENDMDL
MODEL 5
REMARK VINA RESULT:      -6.7      3.184      4.319
REMARK  Name = 
REMARK  4 active torsions:
REMARK  status: ('A' for Active; 'I' for Inactive)
REMARK    1  A    between atoms: C_2  and  C_16
REMARK    2  A    between atoms: N_3  and  C_4
REMARK    3  A    between atoms: C_4  and  C_5
REMARK    4  A    between atoms: C_5  and  N_6
REMARK                            x       y       z     vdW  Elec       q    Type
REMARK                         _______ _______ _______ _____ _____    ______ ____
ROOT
ATOM      1  C   UNL     1       6.656   4.644  17.983  0.00  0.00    +0.000 C 
ENDROOT
BRANCH   1   4
ATOM      2  O   UNL     1       7.514   6.221  15.878  0.00  0.00    +0.000 OA
ATOM      3  C   UNL     1       7.024   5.133  15.581  0.00  0.00    +0.000 C 
ATOM      4  N   UNL     1       6.576   4.284  16.574  0.00  0.00    +0.000 N 
ATOM      5  H   UNL     1       6.216   3.369  16.338  0.00  0.00    +0.000 HD
BRANCH   3   6
ATOM      6  C   UNL     1       6.891   4.662  14.215  0.00  0.00    +0.000 A 
ATOM      7  S   UNL     1       5.631   3.534  13.857  0.00  0.00    +0.000 S 
ATOM      8  C   UNL     1       6.119   3.512  12.223  0.00  0.00    +0.000 A 
ATOM      9  N   UNL     1       7.146   4.268  11.917  0.00  0.00    +0.000 NA
ATOM     10  C   UNL     1       7.596   4.926  13.051  0.00  0.00    +0.000 A 
ATOM     11 CL   UNL     1       8.946   5.977  12.887  0.00  0.00    +0.000 Cl
ENDBRANCH   3   6
ENDBRANCH   1   4
BRANCH   1  12
ATOM     12  C   UNL     1       5.657   3.858  18.854  0.00  0.00    +0.000 C 
BRANCH  12  13
ATOM     13  N   UNL     1       4.448   4.634  19.141  0.00  0.00    +0.000 N 
ATOM     14  C   UNL     1       4.360   6.018  18.685  0.00  0.00    +0.000 C 
ATOM     15  C   UNL     1       3.081   6.213  17.887  0.00  0.00    +0.000 C 
ATOM     16  C   UNL     1       1.870   5.897  18.756  0.00  0.00    +0.000 C 
ATOM     17  C   UNL     1       2.067   4.677  19.625  0.00  0.00    +0.000 A 
ATOM     18  C   UNL     1       0.947   4.136  20.280  0.00  0.00    +0.000 A 
ATOM     19  C   UNL     1       1.081   3.025  21.108  0.00  0.00    +0.000 A 
ATOM     20  C   UNL     1       2.332   2.457  21.295  0.00  0.00    +0.000 A 
ATOM     21  C   UNL     1       3.447   2.994  20.648  0.00  0.00    +0.000 A 
ATOM     22  C   UNL     1       3.346   4.106  19.800  0.00  0.00    +0.000 A 
ENDBRANCH  12  13
ENDBRANCH   1  12
TORSDOF 4
ENDMDL
MODEL 6
REMARK VINA RESULT:      -6.7      2.980      4.483
REMARK  Name = 
REMARK  4 active torsions:
REMARK  status: ('A' for Active; 'I' for Inactive)
REMARK    1  A    between atoms: C_2  and  C_16
REMARK    2  A    between atoms: N_3  and  C_4
REMARK    3  A    between atoms: C_4  and  C_5
REMARK    4  A    between atoms: C_5  and  N_6
REMARK                            x       y       z     vdW  Elec       q    Type
REMARK                         _______ _______ _______ _____ _____    ______ ____
ROOT
ATOM      1  C   UNL     1       2.299   5.675  18.862  0.00  0.00    +0.000 C 
ENDROOT
BRANCH   1   4
ATOM      2  O   UNL     1       4.440   4.008  19.395  0.00  0.00    +0.000 OA
ATOM      3  C   UNL     1       4.518   4.686  18.372  0.00  0.00    +0.000 C 
ATOM      4  N   UNL     1       3.487   5.541  18.032  0.00  0.00    +0.000 N 
ATOM      5  H   UNL     1       3.525   6.066  17.168  0.00  0.00    +0.000 HD
BRANCH   3   6
ATOM      6  C   UNL     1       5.650   4.639  17.466  0.00  0.00    +0.000 A 
ATOM      7  S   UNL     1       5.370   4.144  15.834  0.00  0.00    +0.000 S 
ATOM      8  C   UNL     1       7.027   4.351  15.490  0.00  0.00    +0.000 A 
ATOM      9  N   UNL     1       7.778   4.752  16.487  0.00  0.00    +0.000 NA
ATOM     10  C   UNL     1       6.999   4.916  17.623  0.00  0.00    +0.000 A 
ATOM     11 CL   UNL     1       7.777   5.437  19.063  0.00  0.00    +0.000 Cl
ENDBRANCH   3   6
ENDBRANCH   1   4
BRANCH   1  12
ATOM     12  C   UNL     1       2.483   6.698  20.000  0.00  0.00    +0.000 C 
BRANCH  12  13
ATOM     13  N   UNL     1       2.005   8.031  19.625  0.00  0.00    +0.000 N 
ATOM     14  C   UNL     1       2.325   8.561  18.303  0.00  0.00    +0.000 C 
ATOM     15  C   UNL     1       1.049   9.009  17.609  0.00  0.00    +0.000 C 
ATOM     16  C   UNL     1       0.363  10.096  18.429  0.00  0.00    +0.000 C 
ATOM     17  C   UNL     1       0.388   9.821  19.914  0.00  0.00    +0.000 A 
ATOM     18  C   UNL     1      -0.421  10.609  20.752  0.00  0.00    +0.000 A 
ATOM     19  C   UNL     1      -0.419  10.408  22.129  0.00  0.00    +0.000 A 
ATOM     20  C   UNL     1       0.397   9.430  22.677  0.00  0.00    +0.000 A 
ATOM     21  C   UNL     1       1.204   8.648  21.848  0.00  0.00    +0.000 A 
ATOM     22  C   UNL     1       1.218   8.817  20.456  0.00  0.00    +0.000 A 
ENDBRANCH  12  13
ENDBRANCH   1  12
TORSDOF 4
ENDMDL
MODEL 7
REMARK VINA RESULT:      -6.6      3.377      4.937
REMARK  Name = 
REMARK  4 active torsions:
REMARK  status: ('A' for Active; 'I' for Inactive)
REMARK    1  A    between atoms: C_2  and  C_16
REMARK    2  A    between atoms: N_3  and  C_4
REMARK    3  A    between atoms: C_4  and  C_5
REMARK    4  A    between atoms: C_5  and  N_6
REMARK                            x       y       z     vdW  Elec       q    Type
REMARK                         _______ _______ _______ _____ _____    ______ ____
ROOT
ATOM      1  C   UNL     1       2.781   7.483  17.952  0.00  0.00    +0.000 C 
ENDROOT
BRANCH   1   4
ATOM      2  O   UNL     1       4.550   7.124  15.856  0.00  0.00    +0.000 OA
ATOM      3  C   UNL     1       4.826   6.550  16.908  0.00  0.00    +0.000 C 
ATOM      4  N   UNL     1       3.996   6.683  18.004  0.00  0.00    +0.000 N 
ATOM      5  H   UNL     1       4.243   6.251  18.885  0.00  0.00    +0.000 HD
BRANCH   3   6
ATOM      6  C   UNL     1       6.007   5.726  17.083  0.00  0.00    +0.000 A 
ATOM      7  S   UNL     1       6.678   5.584  18.670  0.00  0.00    +0.000 S 
ATOM      8  C   UNL     1       7.894   4.555  18.061  0.00  0.00    +0.000 A 
ATOM      9  N   UNL     1       7.850   4.309  16.774  0.00  0.00    +0.000 NA
ATOM     10  C   UNL     1       6.777   4.978  16.205  0.00  0.00    +0.000 A 
ATOM     11 CL   UNL     1       6.526   4.804  14.515  0.00  0.00    +0.000 Cl
ENDBRANCH   3   6
ENDBRANCH   1   4
BRANCH   1  12
ATOM     12  C   UNL     1       2.142   7.682  19.341  0.00  0.00    +0.000 C 
BRANCH  12  13
ATOM     13  N   UNL     1       1.391   8.937  19.425  0.00  0.00    +0.000 N 
ATOM     14  C   UNL     1       1.235   9.761  18.231  0.00  0.00    +0.000 C 
ATOM     15  C   UNL     1      -0.237  10.065  18.007  0.00  0.00    +0.000 C 
ATOM     16  C   UNL     1      -0.804  10.815  19.207  0.00  0.00    +0.000 C 
ATOM     17  C   UNL     1      -0.311  10.274  20.529  0.00  0.00    +0.000 A 
ATOM     18  C   UNL     1      -0.947  10.709  21.706  0.00  0.00    +0.000 A 
ATOM     19  C   UNL     1      -0.517  10.256  22.949  0.00  0.00    +0.000 A 
ATOM     20  C   UNL     1       0.554   9.377  23.026  0.00  0.00    +0.000 A 
ATOM     21  C   UNL     1       1.189   8.946  21.859  0.00  0.00    +0.000 A 
ATOM     22  C   UNL     1       0.775   9.375  20.589  0.00  0.00    +0.000 A 
ENDBRANCH  12  13
ENDBRANCH   1  12
TORSDOF 4
ENDMDL
MODEL 8
REMARK VINA RESULT:      -6.5      4.877      6.971
REMARK  Name = 
REMARK  4 active torsions:
REMARK  status: ('A' for Active; 'I' for Inactive)
REMARK    1  A    between atoms: C_2  and  C_16
REMARK    2  A    between atoms: N_3  and  C_4
REMARK    3  A    between atoms: C_4  and  C_5
REMARK    4  A    between atoms: C_5  and  N_6
REMARK                            x       y       z     vdW  Elec       q    Type
REMARK                         _______ _______ _______ _____ _____    ______ ____
ROOT
ATOM      1  C   UNL     1       2.374   8.633  18.026  0.00  0.00    +0.000 C 
ENDROOT
BRANCH   1   4
ATOM      2  O   UNL     1       2.017  11.355  18.363  0.00  0.00    +0.000 OA
ATOM      3  C   UNL     1       1.018  10.652  18.502  0.00  0.00    +0.000 C 
ATOM      4  N   UNL     1       1.111   9.283  18.345  0.00  0.00    +0.000 N 
ATOM      5  H   UNL     1       0.283   8.705  18.413  0.00  0.00    +0.000 HD
BRANCH   3   6
ATOM      6  C   UNL     1      -0.295  11.182  18.820  0.00  0.00    +0.000 A 
ATOM      7  S   UNL     1      -0.436  12.270  20.155  0.00  0.00    +0.000 S 
ATOM      8  C   UNL     1      -2.111  12.405  19.864  0.00  0.00    +0.000 A 
ATOM      9  N   UNL     1      -2.581  11.705  18.859  0.00  0.00    +0.000 NA
ATOM     10  C   UNL     1      -1.550  10.998  18.259  0.00  0.00    +0.000 A 
ATOM     11 CL   UNL     1      -1.935  10.002  16.914  0.00  0.00    +0.000 Cl
ENDBRANCH   3   6
ENDBRANCH   1   4
BRANCH   1  12
ATOM     12  C   UNL     1       2.544   7.280  18.745  0.00  0.00    +0.000 C 
BRANCH  12  13
ATOM     13  N   UNL     1       3.294   6.317  17.935  0.00  0.00    +0.000 N 
ATOM     14  C   UNL     1       4.415   6.781  17.125  0.00  0.00    +0.000 C 
ATOM     15  C   UNL     1       5.651   5.955  17.439  0.00  0.00    +0.000 C 
ATOM     16  C   UNL     1       5.389   4.486  17.131  0.00  0.00    +0.000 C 
ATOM     17  C   UNL     1       4.014   4.027  17.560  0.00  0.00    +0.000 A 
ATOM     18  C   UNL     1       3.742   2.648  17.562  0.00  0.00    +0.000 A 
ATOM     19  C   UNL     1       2.485   2.177  17.929  0.00  0.00    +0.000 A 
ATOM     20  C   UNL     1       1.492   3.078  18.284  0.00  0.00    +0.000 A 
ATOM     21  C   UNL     1       1.759   4.449  18.279  0.00  0.00    +0.000 A 
ATOM     22  C   UNL     1       3.017   4.957  17.925  0.00  0.00    +0.000 A 
ENDBRANCH  12  13
ENDBRANCH   1  12
TORSDOF 4
ENDMDL
MODEL 9
REMARK VINA RESULT:      -6.5      5.166      7.266
REMARK  Name = 
REMARK  4 active torsions:
REMARK  status: ('A' for Active; 'I' for Inactive)
REMARK    1  A    between atoms: C_2  and  C_16
REMARK    2  A    between atoms: N_3  and  C_4
REMARK    3  A    between atoms: C_4  and  C_5
REMARK    4  A    between atoms: C_5  and  N_6
REMARK                            x       y       z     vdW  Elec       q    Type
REMARK                         _______ _______ _______ _____ _____    ______ ____
ROOT
ATOM      1  C   UNL     1       2.260   8.854  18.028  0.00  0.00    +0.000 C 
ENDROOT
BRANCH   1   4
ATOM      2  O   UNL     1       1.265  11.203  19.096  0.00  0.00    +0.000 OA
ATOM      3  C   UNL     1       0.452  10.471  18.534  0.00  0.00    +0.000 C 
ATOM      4  N   UNL     1       0.870   9.281  17.970  0.00  0.00    +0.000 N 
ATOM      5  H   UNL     1       0.214   8.699  17.466  0.00  0.00    +0.000 HD
BRANCH   3   6
ATOM      6  C   UNL     1      -0.959  10.789  18.411  0.00  0.00    +0.000 A 
ATOM      7  S   UNL     1      -1.877   9.977  17.192  0.00  0.00    +0.000 S 
ATOM      8  C   UNL     1      -3.272  10.828  17.680  0.00  0.00    +0.000 A 
ATOM      9  N   UNL     1      -3.116  11.672  18.671  0.00  0.00    +0.000 NA
ATOM     10  C   UNL     1      -1.795  11.659  19.092  0.00  0.00    +0.000 A 
ATOM     11 CL   UNL     1      -1.355  12.699  20.388  0.00  0.00    +0.000 Cl
ENDBRANCH   3   6
ENDBRANCH   1   4
BRANCH   1  12
ATOM     12  C   UNL     1       2.432   7.489  18.724  0.00  0.00    +0.000 C 
BRANCH  12  13
ATOM     13  N   UNL     1       3.221   6.556  17.917  0.00  0.00    +0.000 N 
ATOM     14  C   UNL     1       4.349   7.058  17.138  0.00  0.00    +0.000 C 
ATOM     15  C   UNL     1       5.597   6.255  17.469  0.00  0.00    +0.000 C 
ATOM     16  C   UNL     1       5.375   4.785  17.133  0.00  0.00    +0.000 C 
ATOM     17  C   UNL     1       4.003   4.289  17.524  0.00  0.00    +0.000 A 
ATOM     18  C   UNL     1       3.762   2.904  17.500  0.00  0.00    +0.000 A 
ATOM     19  C   UNL     1       2.510   2.398  17.831  0.00  0.00    +0.000 A 
ATOM     20  C   UNL     1       1.488   3.271  18.177  0.00  0.00    +0.000 A 
ATOM     21  C   UNL     1       1.723   4.648  18.199  0.00  0.00    +0.000 A 
ATOM     22  C   UNL     1       2.977   5.190  17.880  0.00  0.00    +0.000 A 
ENDBRANCH  12  13
ENDBRANCH   1  12
TORSDOF 4
ENDMDL
