MODEL 1
REMARK VINA RESULT:      -8.9      0.000      0.000
REMARK  Name = 
REMARK  9 active torsions:
REMARK  status: ('A' for Active; 'I' for Inactive)
REMARK    1  A    between atoms: C_1  and  C_2
REMARK    2  A    between atoms: C_2  and  C_3
REMARK    3  A    between atoms: C_3  and  C_4
REMARK    4  A    between atoms: C_4  and  C_5
REMARK    5  A    between atoms: C_5  and  C_6
REMARK    6  A    between atoms: C_6  and  C_7
REMARK    7  A    between atoms: C_7  and  N_8
REMARK    8  A    between atoms: C_10  and  C_11
REMARK    9  A    between atoms: C_17  and  C_18
REMARK                            x       y       z     vdW  Elec       q    Type
REMARK                         _______ _______ _______ _____ _____    ______ ____
ROOT
ATOM      1  N   UNL     1       5.328   5.032  16.600  0.00  0.00    +0.000 N 
ATOM      2  N   UNL     1       4.563   4.406  17.561  0.00  0.00    +0.000 NA
ATOM      3  C   UNL     1       3.645   5.096  18.166  0.00  0.00    +0.000 A 
ATOM      4  C   UNL     1       3.426   6.565  17.934  0.00  0.00    +0.000 A 
ATOM      5  C   UNL     1       4.169   7.123  16.970  0.00  0.00    +0.000 A 
ATOM      6  C   UNL     1       5.143   6.343  16.196  0.00  0.00    +0.000 A 
ATOM      7  O   UNL     1       5.740   6.894  15.274  0.00  0.00    +0.000 OA
ENDROOT
BRANCH   3   8
ATOM      8  C   UNL     1       2.759   4.359  19.131  0.00  0.00    +0.000 A 
ATOM      9  C   UNL     1       1.491   3.929  18.712  0.00  0.00    +0.000 A 
ATOM     10  C   UNL     1       0.610   3.328  19.623  0.00  0.00    +0.000 A 
ATOM     11  C   UNL     1       0.997   3.136  20.949  0.00  0.00    +0.000 A 
ATOM     12  C   UNL     1       2.248   3.564  21.375  0.00  0.00    +0.000 A 
ATOM     13  C   UNL     1       3.104   4.201  20.475  0.00  0.00    +0.000 A 
ENDBRANCH   3   8
BRANCH   4  14
ATOM     14  C   UNL     1       2.508   7.433  18.675  0.00  0.00    +0.000 A 
ATOM     15  C   UNL     1       2.264   7.195  20.036  0.00  0.00    +0.000 A 
ATOM     16  C   UNL     1       1.455   8.059  20.772  0.00  0.00    +0.000 A 
ATOM     17  C   UNL     1       0.832   9.131  20.136  0.00  0.00    +0.000 A 
ATOM     18  C   UNL     1       1.017   9.338  18.770  0.00  0.00    +0.000 A 
ATOM     19  C   UNL     1       1.857   8.496  18.038  0.00  0.00    +0.000 A 
ENDBRANCH   4  14
BRANCH   1  20
ATOM     20  C   UNL     1       6.313   4.198  15.910  0.00  0.00    +0.000 C 
BRANCH  20  21
ATOM     21  C   UNL     1       5.774   3.568  14.623  0.00  0.00    +0.000 C 
BRANCH  21  22
ATOM     22  C   UNL     1       6.589   3.962  13.393  0.00  0.00    +0.000 C 
BRANCH  22  23
ATOM     23  C   UNL     1       5.983   3.386  12.115  0.00  0.00    +0.000 C 
BRANCH  23  24
ATOM     24  C   UNL     1       4.470   3.609  12.092  0.00  0.00    +0.000 C 
BRANCH  24  26
ATOM     25  C   UNL     1       3.187   4.024   9.973  0.00  0.00    +0.000 C 
ATOM     26  C   UNL     1       3.832   2.973  10.860  0.00  0.00    +0.000 C 
ENDBRANCH  24  26
ENDBRANCH  23  24
ENDBRANCH  22  23
ENDBRANCH  21  22
ENDBRANCH  20  21
ENDBRANCH   1  20
TORSDOF 8
ENDMDL
MODEL 2
REMARK VINA RESULT:      -8.7      0.495      1.062
REMARK  Name = 
REMARK  9 active torsions:
REMARK  status: ('A' for Active; 'I' for Inactive)
REMARK    1  A    between atoms: C_1  and  C_2
REMARK    2  A    between atoms: C_2  and  C_3
REMARK    3  A    between atoms: C_3  and  C_4
REMARK    4  A    between atoms: C_4  and  C_5
REMARK    5  A    between atoms: C_5  and  C_6
REMARK    6  A    between atoms: C_6  and  C_7
REMARK    7  A    between atoms: C_7  and  N_8
REMARK    8  A    between atoms: C_10  and  C_11
REMARK    9  A    between atoms: C_17  and  C_18
REMARK                            x       y       z     vdW  Elec       q    Type
REMARK                         _______ _______ _______ _____ _____    ______ ____
ROOT
ATOM      1  N   UNL     1       5.039   5.009  16.258  0.00  0.00    +0.000 N 
ATOM      2  N   UNL     1       4.329   4.324  17.221  0.00  0.00    +0.000 NA
ATOM      3  C   UNL     1       3.495   4.987  17.963  0.00  0.00    +0.000 A 
ATOM      4  C   UNL     1       3.322   6.478  17.883  0.00  0.00    +0.000 A 
ATOM      5  C   UNL     1       4.006   7.097  16.913  0.00  0.00    +0.000 A 
ATOM      6  C   UNL     1       4.878   6.358  15.991  0.00  0.00    +0.000 A 
ATOM      7  O   UNL     1       5.420   6.971  15.074  0.00  0.00    +0.000 OA
ENDROOT
BRANCH   3   8
ATOM      8  C   UNL     1       2.660   4.196  18.930  0.00  0.00    +0.000 A 
ATOM      9  C   UNL     1       3.211   3.812  20.162  0.00  0.00    +0.000 A 
ATOM     10  C   UNL     1       2.486   2.990  21.037  0.00  0.00    +0.000 A 
ATOM     11  C   UNL     1       1.202   2.564  20.695  0.00  0.00    +0.000 A 
ATOM     12  C   UNL     1       0.651   2.932  19.475  0.00  0.00    +0.000 A 
ATOM     13  C   UNL     1       1.394   3.715  18.589  0.00  0.00    +0.000 A 
ENDBRANCH   3   8
BRANCH   4  14
ATOM     14  C   UNL     1       2.507   7.306  18.775  0.00  0.00    +0.000 A 
ATOM     15  C   UNL     1       2.285   6.899  20.100  0.00  0.00    +0.000 A 
ATOM     16  C   UNL     1       1.578   7.714  20.983  0.00  0.00    +0.000 A 
ATOM     17  C   UNL     1       1.031   8.912  20.527  0.00  0.00    +0.000 A 
ATOM     18  C   UNL     1       1.190   9.294  19.196  0.00  0.00    +0.000 A 
ATOM     19  C   UNL     1       1.931   8.498  18.320  0.00  0.00    +0.000 A 
ENDBRANCH   4  14
BRANCH   1  20
ATOM     20  C   UNL     1       5.926   4.209  15.413  0.00  0.00    +0.000 C 
BRANCH  20  21
ATOM     21  C   UNL     1       5.581   4.295  13.924  0.00  0.00    +0.000 C 
BRANCH  21  22
ATOM     22  C   UNL     1       6.381   3.305  13.080  0.00  0.00    +0.000 C 
BRANCH  22  23
ATOM     23  C   UNL     1       5.566   2.800  11.892  0.00  0.00    +0.000 C 
BRANCH  23  24
ATOM     24  C   UNL     1       4.335   3.680  11.673  0.00  0.00    +0.000 C 
BRANCH  24  26
ATOM     25  C   UNL     1       2.966   4.175   9.626  0.00  0.00    +0.000 C 
ATOM     26  C   UNL     1       3.419   3.100  10.600  0.00  0.00    +0.000 C 
ENDBRANCH  24  26
ENDBRANCH  23  24
ENDBRANCH  22  23
ENDBRANCH  21  22
ENDBRANCH  20  21
ENDBRANCH   1  20
TORSDOF 8
ENDMDL
MODEL 3
REMARK VINA RESULT:      -8.6      0.806      1.722
REMARK  Name = 
REMARK  9 active torsions:
REMARK  status: ('A' for Active; 'I' for Inactive)
REMARK    1  A    between atoms: C_1  and  C_2
REMARK    2  A    between atoms: C_2  and  C_3
REMARK    3  A    between atoms: C_3  and  C_4
REMARK    4  A    between atoms: C_4  and  C_5
REMARK    5  A    between atoms: C_5  and  C_6
REMARK    6  A    between atoms: C_6  and  C_7
REMARK    7  A    between atoms: C_7  and  N_8
REMARK    8  A    between atoms: C_10  and  C_11
REMARK    9  A    between atoms: C_17  and  C_18
REMARK                            x       y       z     vdW  Elec       q    Type
REMARK                         _______ _______ _______ _____ _____    ______ ____
ROOT
ATOM      1  N   UNL     1       5.144   4.999  16.669  0.00  0.00    +0.000 N 
ATOM      2  N   UNL     1       4.374   4.399  17.642  0.00  0.00    +0.000 NA
ATOM      3  C   UNL     1       3.497   5.123  18.270  0.00  0.00    +0.000 A 
ATOM      4  C   UNL     1       3.335   6.601  18.051  0.00  0.00    +0.000 A 
ATOM      5  C   UNL     1       4.080   7.134  17.075  0.00  0.00    +0.000 A 
ATOM      6  C   UNL     1       5.005   6.319  16.277  0.00  0.00    +0.000 A 
ATOM      7  O   UNL     1       5.605   6.851  15.345  0.00  0.00    +0.000 OA
ENDROOT
BRANCH   3   8
ATOM      8  C   UNL     1       2.602   4.416  19.249  0.00  0.00    +0.000 A 
ATOM      9  C   UNL     1       3.069   4.155  20.546  0.00  0.00    +0.000 A 
ATOM     10  C   UNL     1       2.289   3.411  21.443  0.00  0.00    +0.000 A 
ATOM     11  C   UNL     1       1.033   2.942  21.058  0.00  0.00    +0.000 A 
ATOM     12  C   UNL     1       0.565   3.190  19.774  0.00  0.00    +0.000 A 
ATOM     13  C   UNL     1       1.363   3.894  18.871  0.00  0.00    +0.000 A 
ENDBRANCH   3   8
BRANCH   4  14
ATOM     14  C   UNL     1       2.469   7.501  18.815  0.00  0.00    +0.000 A 
ATOM     15  C   UNL     1       1.941   8.650  18.207  0.00  0.00    +0.000 A 
ATOM     16  C   UNL     1       1.053   9.473  18.897  0.00  0.00    +0.000 A 
ATOM     17  C   UNL     1       0.737   9.187  20.224  0.00  0.00    +0.000 A 
ATOM     18  C   UNL     1       1.306   8.084  20.858  0.00  0.00    +0.000 A 
ATOM     19  C   UNL     1       2.166   7.236  20.156  0.00  0.00    +0.000 A 
ENDBRANCH   4  14
BRANCH   1  20
ATOM     20  C   UNL     1       6.079   4.130  15.954  0.00  0.00    +0.000 C 
BRANCH  20  21
ATOM     21  C   UNL     1       5.774   4.016  14.458  0.00  0.00    +0.000 C 
BRANCH  21  22
ATOM     22  C   UNL     1       6.955   4.437  13.587  0.00  0.00    +0.000 C 
BRANCH  22  23
ATOM     23  C   UNL     1       6.823   3.887  12.168  0.00  0.00    +0.000 C 
BRANCH  23  24
ATOM     24  C   UNL     1       5.478   3.182  11.988  0.00  0.00    +0.000 C 
BRANCH  24  26
ATOM     25  C   UNL     1       7.064   1.556  10.915  0.00  0.00    +0.000 C 
ATOM     26  C   UNL     1       5.660   1.763  11.457  0.00  0.00    +0.000 C 
ENDBRANCH  24  26
ENDBRANCH  23  24
ENDBRANCH  22  23
ENDBRANCH  21  22
ENDBRANCH  20  21
ENDBRANCH   1  20
TORSDOF 8
ENDMDL
MODEL 4
REMARK VINA RESULT:      -8.6      0.806      1.485
REMARK  Name = 
REMARK  9 active torsions:
REMARK  status: ('A' for Active; 'I' for Inactive)
REMARK    1  A    between atoms: C_1  and  C_2
REMARK    2  A    between atoms: C_2  and  C_3
REMARK    3  A    between atoms: C_3  and  C_4
REMARK    4  A    between atoms: C_4  and  C_5
REMARK    5  A    between atoms: C_5  and  C_6
REMARK    6  A    between atoms: C_6  and  C_7
REMARK    7  A    between atoms: C_7  and  N_8
REMARK    8  A    between atoms: C_10  and  C_11
REMARK    9  A    between atoms: C_17  and  C_18
REMARK                            x       y       z     vdW  Elec       q    Type
REMARK                         _______ _______ _______ _____ _____    ______ ____
ROOT
ATOM      1  N   UNL     1       5.480   5.254  16.979  0.00  0.00    +0.000 N 
ATOM      2  N   UNL     1       4.609   4.629  17.846  0.00  0.00    +0.000 NA
ATOM      3  C   UNL     1       3.625   5.319  18.338  0.00  0.00    +0.000 A 
ATOM      4  C   UNL     1       3.433   6.787  18.077  0.00  0.00    +0.000 A 
ATOM      5  C   UNL     1       4.282   7.344  17.205  0.00  0.00    +0.000 A 
ATOM      6  C   UNL     1       5.342   6.563  16.553  0.00  0.00    +0.000 A 
ATOM      7  O   UNL     1       6.042   7.113  15.705  0.00  0.00    +0.000 OA
ENDROOT
BRANCH   3   8
ATOM      8  C   UNL     1       2.633   4.583  19.194  0.00  0.00    +0.000 A 
ATOM      9  C   UNL     1       2.900   4.407  20.560  0.00  0.00    +0.000 A 
ATOM     10  C   UNL     1       2.037   3.639  21.356  0.00  0.00    +0.000 A 
ATOM     11  C   UNL     1       0.897   3.061  20.799  0.00  0.00    +0.000 A 
ATOM     12  C   UNL     1       0.628   3.224  19.446  0.00  0.00    +0.000 A 
ATOM     13  C   UNL     1       1.512   3.953  18.648  0.00  0.00    +0.000 A 
ENDBRANCH   3   8
BRANCH   4  14
ATOM     14  C   UNL     1       2.433   7.655  18.702  0.00  0.00    +0.000 A 
ATOM     15  C   UNL     1       2.127   7.504  20.064  0.00  0.00    +0.000 A 
ATOM     16  C   UNL     1       1.236   8.374  20.690  0.00  0.00    +0.000 A 
ATOM     17  C   UNL     1       0.596   9.361  19.944  0.00  0.00    +0.000 A 
ATOM     18  C   UNL     1       0.844   9.479  18.577  0.00  0.00    +0.000 A 
ATOM     19  C   UNL     1       1.765   8.633  17.955  0.00  0.00    +0.000 A 
ENDBRANCH   4  14
BRANCH   1  20
ATOM     20  C   UNL     1       6.540   4.420  16.412  0.00  0.00    +0.000 C 
BRANCH  20  21
ATOM     21  C   UNL     1       6.040   3.465  15.324  0.00  0.00    +0.000 C 
BRANCH  21  22
ATOM     22  C   UNL     1       5.581   4.201  14.068  0.00  0.00    +0.000 C 
BRANCH  22  23
ATOM     23  C   UNL     1       6.288   3.671  12.822  0.00  0.00    +0.000 C 
BRANCH  23  24
ATOM     24  C   UNL     1       5.274   3.084  11.839  0.00  0.00    +0.000 C 
BRANCH  24  26
ATOM     25  C   UNL     1       7.205   1.679  11.059  0.00  0.00    +0.000 C 
ATOM     26  C   UNL     1       5.713   1.709  11.342  0.00  0.00    +0.000 C 
ENDBRANCH  24  26
ENDBRANCH  23  24
ENDBRANCH  22  23
ENDBRANCH  21  22
ENDBRANCH  20  21
ENDBRANCH   1  20
TORSDOF 8
ENDMDL
MODEL 5
REMARK VINA RESULT:      -8.5      0.240      1.359
REMARK  Name = 
REMARK  9 active torsions:
REMARK  status: ('A' for Active; 'I' for Inactive)
REMARK    1  A    between atoms: C_1  and  C_2
REMARK    2  A    between atoms: C_2  and  C_3
REMARK    3  A    between atoms: C_3  and  C_4
REMARK    4  A    between atoms: C_4  and  C_5
REMARK    5  A    between atoms: C_5  and  C_6
REMARK    6  A    between atoms: C_6  and  C_7
REMARK    7  A    between atoms: C_7  and  N_8
REMARK    8  A    between atoms: C_10  and  C_11
REMARK    9  A    between atoms: C_17  and  C_18
REMARK                            x       y       z     vdW  Elec       q    Type
REMARK                         _______ _______ _______ _____ _____    ______ ____
ROOT
ATOM      1  N   UNL     1       5.100   5.164  16.615  0.00  0.00    +0.000 N 
ATOM      2  N   UNL     1       4.357   4.530  17.587  0.00  0.00    +0.000 NA
ATOM      3  C   UNL     1       3.474   5.223  18.241  0.00  0.00    +0.000 A 
ATOM      4  C   UNL     1       3.276   6.700  18.050  0.00  0.00    +0.000 A 
ATOM      5  C   UNL     1       3.995   7.267  17.074  0.00  0.00    +0.000 A 
ATOM      6  C   UNL     1       4.926   6.487  16.248  0.00  0.00    +0.000 A 
ATOM      7  O   UNL     1       5.501   7.049  15.318  0.00  0.00    +0.000 OA
ENDROOT
BRANCH   3   8
ATOM      8  C   UNL     1       2.608   4.479  19.219  0.00  0.00    +0.000 A 
ATOM      9  C   UNL     1       3.092   4.222  20.510  0.00  0.00    +0.000 A 
ATOM     10  C   UNL     1       2.342   3.445  21.406  0.00  0.00    +0.000 A 
ATOM     11  C   UNL     1       1.100   2.939  21.024  0.00  0.00    +0.000 A 
ATOM     12  C   UNL     1       0.615   3.183  19.746  0.00  0.00    +0.000 A 
ATOM     13  C   UNL     1       1.385   3.920  18.844  0.00  0.00    +0.000 A 
ENDBRANCH   3   8
BRANCH   4  14
ATOM     14  C   UNL     1       2.402   7.567  18.843  0.00  0.00    +0.000 A 
ATOM     15  C   UNL     1       1.749   8.650  18.234  0.00  0.00    +0.000 A 
ATOM     16  C   UNL     1       0.854   9.436  18.958  0.00  0.00    +0.000 A 
ATOM     17  C   UNL     1       0.654   9.183  20.313  0.00  0.00    +0.000 A 
ATOM     18  C   UNL     1       1.345   8.150  20.943  0.00  0.00    +0.000 A 
ATOM     19  C   UNL     1       2.214   7.337  20.211  0.00  0.00    +0.000 A 
ENDBRANCH   4  14
BRANCH   1  20
ATOM     20  C   UNL     1       6.043   4.328  15.871  0.00  0.00    +0.000 C 
BRANCH  20  21
ATOM     21  C   UNL     1       5.497   3.858  14.520  0.00  0.00    +0.000 C 
BRANCH  21  22
ATOM     22  C   UNL     1       6.592   3.715  13.465  0.00  0.00    +0.000 C 
BRANCH  22  23
ATOM     23  C   UNL     1       6.010   3.739  12.053  0.00  0.00    +0.000 C 
BRANCH  23  24
ATOM     24  C   UNL     1       4.490   3.583  12.096  0.00  0.00    +0.000 C 
BRANCH  24  26
ATOM     25  C   UNL     1       3.178   3.957   9.987  0.00  0.00    +0.000 C 
ATOM     26  C   UNL     1       3.959   2.949  10.814  0.00  0.00    +0.000 C 
ENDBRANCH  24  26
ENDBRANCH  23  24
ENDBRANCH  22  23
ENDBRANCH  21  22
ENDBRANCH  20  21
ENDBRANCH   1  20
TORSDOF 8
ENDMDL
MODEL 6
REMARK VINA RESULT:      -8.5      3.441      6.396
REMARK  Name = 
REMARK  9 active torsions:
REMARK  status: ('A' for Active; 'I' for Inactive)
REMARK    1  A    between atoms: C_1  and  C_2
REMARK    2  A    between atoms: C_2  and  C_3
REMARK    3  A    between atoms: C_3  and  C_4
REMARK    4  A    between atoms: C_4  and  C_5
REMARK    5  A    between atoms: C_5  and  C_6
REMARK    6  A    between atoms: C_6  and  C_7
REMARK    7  A    between atoms: C_7  and  N_8
REMARK    8  A    between atoms: C_10  and  C_11
REMARK    9  A    between atoms: C_17  and  C_18
REMARK                            x       y       z     vdW  Elec       q    Type
REMARK                         _______ _______ _______ _____ _____    ______ ____
ROOT
ATOM      1  N   UNL     1       6.242   6.296  17.690  0.00  0.00    +0.000 N 
ATOM      2  N   UNL     1       5.111   7.069  17.846  0.00  0.00    +0.000 NA
ATOM      3  C   UNL     1       4.053   6.519  18.360  0.00  0.00    +0.000 A 
ATOM      4  C   UNL     1       3.969   5.062  18.718  0.00  0.00    +0.000 A 
ATOM      5  C   UNL     1       5.100   4.358  18.581  0.00  0.00    +0.000 A 
ATOM      6  C   UNL     1       6.341   4.978  18.100  0.00  0.00    +0.000 A 
ATOM      7  O   UNL     1       7.365   4.298  18.067  0.00  0.00    +0.000 OA
ENDROOT
BRANCH   3   8
ATOM      8  C   UNL     1       2.872   7.414  18.614  0.00  0.00    +0.000 A 
ATOM      9  C   UNL     1       2.424   8.269  17.597  0.00  0.00    +0.000 A 
ATOM     10  C   UNL     1       1.388   9.182  17.845  0.00  0.00    +0.000 A 
ATOM     11  C   UNL     1       0.782   9.231  19.100  0.00  0.00    +0.000 A 
ATOM     12  C   UNL     1       1.223   8.392  20.115  0.00  0.00    +0.000 A 
ATOM     13  C   UNL     1       2.284   7.516  19.877  0.00  0.00    +0.000 A 
ENDBRANCH   3   8
BRANCH   4  14
ATOM     14  C   UNL     1       2.773   4.348  19.171  0.00  0.00    +0.000 A 
ATOM     15  C   UNL     1       1.865   3.835  18.231  0.00  0.00    +0.000 A 
ATOM     16  C   UNL     1       0.765   3.086  18.644  0.00  0.00    +0.000 A 
ATOM     17  C   UNL     1       0.530   2.899  20.004  0.00  0.00    +0.000 A 
ATOM     18  C   UNL     1       1.390   3.457  20.948  0.00  0.00    +0.000 A 
ATOM     19  C   UNL     1       2.515   4.176  20.536  0.00  0.00    +0.000 A 
ENDBRANCH   4  14
BRANCH   1  20
ATOM     20  C   UNL     1       7.423   6.975  17.155  0.00  0.00    +0.000 C 
BRANCH  20  21
ATOM     21  C   UNL     1       8.161   7.815  18.202  0.00  0.00    +0.000 C 
BRANCH  21  22
ATOM     22  C   UNL     1       8.177   9.301  17.853  0.00  0.00    +0.000 C 
BRANCH  22  23
ATOM     23  C   UNL     1       9.066  10.089  18.813  0.00  0.00    +0.000 C 
BRANCH  23  24
ATOM     24  C   UNL     1       9.300  11.505  18.287  0.00  0.00    +0.000 C 
BRANCH  24  26
ATOM     25  C   UNL     1      11.683  11.537  19.080  0.00  0.00    +0.000 C 
ATOM     26  C   UNL     1      10.758  11.718  17.889  0.00  0.00    +0.000 C 
ENDBRANCH  24  26
ENDBRANCH  23  24
ENDBRANCH  22  23
ENDBRANCH  21  22
ENDBRANCH  20  21
ENDBRANCH   1  20
TORSDOF 8
ENDMDL
MODEL 7
REMARK VINA RESULT:      -8.5      0.446      1.054
REMARK  Name = 
REMARK  9 active torsions:
REMARK  status: ('A' for Active; 'I' for Inactive)
REMARK    1  A    between atoms: C_1  and  C_2
REMARK    2  A    between atoms: C_2  and  C_3
REMARK    3  A    between atoms: C_3  and  C_4
REMARK    4  A    between atoms: C_4  and  C_5
REMARK    5  A    between atoms: C_5  and  C_6
REMARK    6  A    between atoms: C_6  and  C_7
REMARK    7  A    between atoms: C_7  and  N_8
REMARK    8  A    between atoms: C_10  and  C_11
REMARK    9  A    between atoms: C_17  and  C_18
REMARK                            x       y       z     vdW  Elec       q    Type
REMARK                         _______ _______ _______ _____ _____    ______ ____
ROOT
ATOM      1  N   UNL     1       5.347   4.890  16.547  0.00  0.00    +0.000 N 
ATOM      2  N   UNL     1       4.562   4.273  17.498  0.00  0.00    +0.000 NA
ATOM      3  C   UNL     1       3.669   4.984  18.118  0.00  0.00    +0.000 A 
ATOM      4  C   UNL     1       3.501   6.463  17.914  0.00  0.00    +0.000 A 
ATOM      5  C   UNL     1       4.261   7.013  16.959  0.00  0.00    +0.000 A 
ATOM      6  C   UNL     1       5.207   6.214  16.169  0.00  0.00    +0.000 A 
ATOM      7  O   UNL     1       5.821   6.762  15.256  0.00  0.00    +0.000 OA
ENDROOT
BRANCH   3   8
ATOM      8  C   UNL     1       2.760   4.259  19.071  0.00  0.00    +0.000 A 
ATOM      9  C   UNL     1       1.462   3.920  18.661  0.00  0.00    +0.000 A 
ATOM     10  C   UNL     1       0.565   3.333  19.565  0.00  0.00    +0.000 A 
ATOM     11  C   UNL     1       0.964   3.065  20.875  0.00  0.00    +0.000 A 
ATOM     12  C   UNL     1       2.244   3.404  21.292  0.00  0.00    +0.000 A 
ATOM     13  C   UNL     1       3.119   4.028  20.400  0.00  0.00    +0.000 A 
ENDBRANCH   3   8
BRANCH   4  14
ATOM     14  C   UNL     1       2.615   7.348  18.673  0.00  0.00    +0.000 A 
ATOM     15  C   UNL     1       2.018   8.451  18.042  0.00  0.00    +0.000 A 
ATOM     16  C   UNL     1       1.112   9.256  18.730  0.00  0.00    +0.000 A 
ATOM     17  C   UNL     1       0.844   9.000  20.073  0.00  0.00    +0.000 A 
ATOM     18  C   UNL     1       1.480   7.946  20.727  0.00  0.00    +0.000 A 
ATOM     19  C   UNL     1       2.360   7.115  20.029  0.00  0.00    +0.000 A 
ENDBRANCH   4  14
BRANCH   1  20
ATOM     20  C   UNL     1       6.302   4.036  15.840  0.00  0.00    +0.000 C 
BRANCH  20  21
ATOM     21  C   UNL     1       6.490   4.430  14.372  0.00  0.00    +0.000 C 
BRANCH  21  22
ATOM     22  C   UNL     1       5.447   3.793  13.458  0.00  0.00    +0.000 C 
BRANCH  22  23
ATOM     23  C   UNL     1       6.082   3.259  12.175  0.00  0.00    +0.000 C 
BRANCH  23  24
ATOM     24  C   UNL     1       5.026   2.599  11.288  0.00  0.00    +0.000 C 
BRANCH  24  26
ATOM     25  C   UNL     1       3.252   3.751   9.934  0.00  0.00    +0.000 C 
ATOM     26  C   UNL     1       3.707   3.364  11.331  0.00  0.00    +0.000 C 
ENDBRANCH  24  26
ENDBRANCH  23  24
ENDBRANCH  22  23
ENDBRANCH  21  22
ENDBRANCH  20  21
ENDBRANCH   1  20
TORSDOF 8
ENDMDL
MODEL 8
REMARK VINA RESULT:      -8.5      0.896      1.264
REMARK  Name = 
REMARK  9 active torsions:
REMARK  status: ('A' for Active; 'I' for Inactive)
REMARK    1  A    between atoms: C_1  and  C_2
REMARK    2  A    between atoms: C_2  and  C_3
REMARK    3  A    between atoms: C_3  and  C_4
REMARK    4  A    between atoms: C_4  and  C_5
REMARK    5  A    between atoms: C_5  and  C_6
REMARK    6  A    between atoms: C_6  and  C_7
REMARK    7  A    between atoms: C_7  and  N_8
REMARK    8  A    between atoms: C_10  and  C_11
REMARK    9  A    between atoms: C_17  and  C_18
REMARK                            x       y       z     vdW  Elec       q    Type
REMARK                         _______ _______ _______ _____ _____    ______ ____
ROOT
ATOM      1  N   UNL     1       5.260   4.897  16.480  0.00  0.00    +0.000 N 
ATOM      2  N   UNL     1       4.500   4.266  17.442  0.00  0.00    +0.000 NA
ATOM      3  C   UNL     1       3.613   4.964  18.084  0.00  0.00    +0.000 A 
ATOM      4  C   UNL     1       3.427   6.443  17.893  0.00  0.00    +0.000 A 
ATOM      5  C   UNL     1       4.163   7.006  16.927  0.00  0.00    +0.000 A 
ATOM      6  C   UNL     1       5.100   6.222  16.113  0.00  0.00    +0.000 A 
ATOM      7  O   UNL     1       5.691   6.780  15.192  0.00  0.00    +0.000 OA
ENDROOT
BRANCH   3   8
ATOM      8  C   UNL     1       2.729   4.225  19.050  0.00  0.00    +0.000 A 
ATOM      9  C   UNL     1       1.435   3.857  18.656  0.00  0.00    +0.000 A 
ATOM     10  C   UNL     1       0.560   3.255  19.573  0.00  0.00    +0.000 A 
ATOM     11  C   UNL     1       0.978   3.002  20.879  0.00  0.00    +0.000 A 
ATOM     12  C   UNL     1       2.256   3.370  21.280  0.00  0.00    +0.000 A 
ATOM     13  C   UNL     1       3.108   4.008  20.377  0.00  0.00    +0.000 A 
ENDBRANCH   3   8
BRANCH   4  14
ATOM     14  C   UNL     1       2.548   7.315  18.675  0.00  0.00    +0.000 A 
ATOM     15  C   UNL     1       2.284   7.019  20.021  0.00  0.00    +0.000 A 
ATOM     16  C   UNL     1       1.513   7.882  20.799  0.00  0.00    +0.000 A 
ATOM     17  C   UNL     1       0.947   9.014  20.216  0.00  0.00    +0.000 A 
ATOM     18  C   UNL     1       1.149   9.283  18.864  0.00  0.00    +0.000 A 
ATOM     19  C   UNL     1       1.953   8.440  18.092  0.00  0.00    +0.000 A 
ENDBRANCH   4  14
BRANCH   1  20
ATOM     20  C   UNL     1       6.209   4.056  15.749  0.00  0.00    +0.000 C 
BRANCH  20  21
ATOM     21  C   UNL     1       5.704   3.642  14.364  0.00  0.00    +0.000 C 
BRANCH  21  22
ATOM     22  C   UNL     1       6.686   4.002  13.252  0.00  0.00    +0.000 C 
BRANCH  22  23
ATOM     23  C   UNL     1       6.100   3.704  11.873  0.00  0.00    +0.000 C 
BRANCH  23  24
ATOM     24  C   UNL     1       5.569   2.271  11.815  0.00  0.00    +0.000 C 
BRANCH  24  26
ATOM     25  C   UNL     1       6.130  -0.114  11.262  0.00  0.00    +0.000 C 
ATOM     26  C   UNL     1       6.563   1.336  11.131  0.00  0.00    +0.000 C 
ENDBRANCH  24  26
ENDBRANCH  23  24
ENDBRANCH  22  23
ENDBRANCH  21  22
ENDBRANCH  20  21
ENDBRANCH   1  20
TORSDOF 8
ENDMDL
MODEL 9
REMARK VINA RESULT:      -8.5      3.450      6.276
REMARK  Name = 
REMARK  9 active torsions:
REMARK  status: ('A' for Active; 'I' for Inactive)
REMARK    1  A    between atoms: C_1  and  C_2
REMARK    2  A    between atoms: C_2  and  C_3
REMARK    3  A    between atoms: C_3  and  C_4
REMARK    4  A    between atoms: C_4  and  C_5
REMARK    5  A    between atoms: C_5  and  C_6
REMARK    6  A    between atoms: C_6  and  C_7
REMARK    7  A    between atoms: C_7  and  N_8
REMARK    8  A    between atoms: C_10  and  C_11
REMARK    9  A    between atoms: C_17  and  C_18
REMARK                            x       y       z     vdW  Elec       q    Type
REMARK                         _______ _______ _______ _____ _____    ______ ____
ROOT
ATOM      1  N   UNL     1       6.306   6.258  17.683  0.00  0.00    +0.000 N 
ATOM      2  N   UNL     1       5.168   7.020  17.839  0.00  0.00    +0.000 NA
ATOM      3  C   UNL     1       4.113   6.459  18.348  0.00  0.00    +0.000 A 
ATOM      4  C   UNL     1       4.041   5.000  18.700  0.00  0.00    +0.000 A 
ATOM      5  C   UNL     1       5.178   4.306  18.562  0.00  0.00    +0.000 A 
ATOM      6  C   UNL     1       6.415   4.939  18.087  0.00  0.00    +0.000 A 
ATOM      7  O   UNL     1       7.444   4.268  18.054  0.00  0.00    +0.000 OA
ENDROOT
BRANCH   3   8
ATOM      8  C   UNL     1       2.924   7.342  18.603  0.00  0.00    +0.000 A 
ATOM      9  C   UNL     1       2.466   8.193  17.586  0.00  0.00    +0.000 A 
ATOM     10  C   UNL     1       1.422   9.095  17.834  0.00  0.00    +0.000 A 
ATOM     11  C   UNL     1       0.817   9.140  19.090  0.00  0.00    +0.000 A 
ATOM     12  C   UNL     1       1.268   8.307  20.105  0.00  0.00    +0.000 A 
ATOM     13  C   UNL     1       2.336   7.441  19.866  0.00  0.00    +0.000 A 
ENDBRANCH   3   8
BRANCH   4  14
ATOM     14  C   UNL     1       2.850   4.273  19.146  0.00  0.00    +0.000 A 
ATOM     15  C   UNL     1       2.598   4.116  20.517  0.00  0.00    +0.000 A 
ATOM     16  C   UNL     1       1.429   3.496  20.956  0.00  0.00    +0.000 A 
ATOM     17  C   UNL     1       0.535   2.971  20.025  0.00  0.00    +0.000 A 
ATOM     18  C   UNL     1       0.808   3.065  18.662  0.00  0.00    +0.000 A 
ATOM     19  C   UNL     1       1.959   3.720  18.218  0.00  0.00    +0.000 A 
ENDBRANCH   4  14
BRANCH   1  20
ATOM     20  C   UNL     1       7.483   6.949  17.155  0.00  0.00    +0.000 C 
BRANCH  20  21
ATOM     21  C   UNL     1       8.208   7.794  18.205  0.00  0.00    +0.000 C 
BRANCH  21  22
ATOM     22  C   UNL     1       8.178   9.285  17.879  0.00  0.00    +0.000 C 
BRANCH  22  23
ATOM     23  C   UNL     1       9.057  10.084  18.840  0.00  0.00    +0.000 C 
BRANCH  23  24
ATOM     24  C   UNL     1       9.320  11.485  18.287  0.00  0.00    +0.000 C 
BRANCH  24  26
ATOM     25  C   UNL     1      11.023  13.031  17.279  0.00  0.00    +0.000 C 
ATOM     26  C   UNL     1      10.745  11.616  17.758  0.00  0.00    +0.000 C 
ENDBRANCH  24  26
ENDBRANCH  23  24
ENDBRANCH  22  23
ENDBRANCH  21  22
ENDBRANCH  20  21
ENDBRANCH   1  20
TORSDOF 8
ENDMDL
