MODEL 1
REMARK VINA RESULT:      -8.4      0.000      0.000
REMARK  Name = 
REMARK  12 active torsions:
REMARK  status: ('A' for Active; 'I' for Inactive)
REMARK    1  A    between atoms: C_1  and  N_2
REMARK    2  A    between atoms: C_4  and  C_5
REMARK    3  A    between atoms: C_5  and  C_6
REMARK    4  A    between atoms: C_5  and  C_7
REMARK    5  A    between atoms: C_5  and  C_8
REMARK    6  A    between atoms: C_10  and  N_11
REMARK    7  A    between atoms: C_12  and  C_14
REMARK    8  A    between atoms: C_14  and  C_16
REMARK    9  A    between atoms: C_19  and  O_20
REMARK   10  A    between atoms: O_20  and  C_21
REMARK   11  A    between atoms: C_21  and  C_22
REMARK   12  A    between atoms: C_22  and  N_23
REMARK                            x       y       z     vdW  Elec       q    Type
REMARK                         _______ _______ _______ _____ _____    ______ ____
ROOT
ATOM      1  C   UNL     1       1.330  10.550  18.761  0.00  0.00    +0.000 A 
ATOM      2  C   UNL     1       2.070   9.867  17.778  0.00  0.00    +0.000 A 
ATOM      3  C   UNL     1       2.451   8.550  17.959  0.00  0.00    +0.000 A 
ATOM      4  C   UNL     1       2.140   7.885  19.145  0.00  0.00    +0.000 A 
ATOM      5  C   UNL     1       1.374   8.538  20.148  0.00  0.00    +0.000 A 
ATOM      6  C   UNL     1       1.008   7.856  21.327  0.00  0.00    +0.000 A 
ATOM      7  C   UNL     1       0.265   8.476  22.333  0.00  0.00    +0.000 A 
ATOM      8  C   UNL     1      -0.130   9.796  22.172  0.00  0.00    +0.000 A 
ATOM      9  C   UNL     1       0.213  10.489  21.009  0.00  0.00    +0.000 A 
ATOM     10  C   UNL     1       0.967   9.888  19.968  0.00  0.00    +0.000 A 
ENDROOT
BRANCH   1  11
ATOM     11  C   UNL     1       0.973  11.972  18.467  0.00  0.00    +0.000 C 
ATOM     12  O   UNL     1       1.785  12.873  18.308  0.00  0.00    +0.000 OA
BRANCH  11  14
ATOM     13  N   UNL     1      -1.328  11.231  17.757  0.00  0.00    +0.000 N 
ATOM     14  C   UNL     1      -0.495  12.302  18.264  0.00  0.00    +0.000 C 
ATOM     15  O   UNL     1      -0.930  13.396  18.582  0.00  0.00    +0.000 OA
ATOM     16  H   UNL     1      -0.865  10.363  17.499  0.00  0.00    +0.000 HD
BRANCH  13  22
ATOM     17  C   UNL     1      -3.045  10.734  15.157  0.00  0.00    +0.000 C 
ATOM     18  N   UNL     1      -3.473  11.136  16.475  0.00  0.00    +0.000 N 
ATOM     19  N   UNL     1      -4.789  11.335  16.671  0.00  0.00    +0.000 NA
ATOM     20  C   UNL     1      -4.891  11.726  17.946  0.00  0.00    +0.000 A 
ATOM     21  C   UNL     1      -3.620  11.738  18.564  0.00  0.00    +0.000 A 
ATOM     22  C   UNL     1      -2.709  11.354  17.602  0.00  0.00    +0.000 A 
BRANCH  20  23
ATOM     23  C   UNL     1      -6.240  12.091  18.542  0.00  0.00    +0.000 C 
ATOM     24  C   UNL     1      -7.105  12.815  17.492  0.00  0.00    +0.000 C 
ATOM     25  C   UNL     1      -7.013  10.840  19.015  0.00  0.00    +0.000 C 
ATOM     26  C   UNL     1      -6.047  13.015  19.761  0.00  0.00    +0.000 C 
ENDBRANCH  20  23
ENDBRANCH  13  22
ENDBRANCH  11  14
ENDBRANCH   1  11
BRANCH   4  27
ATOM     27  O   UNL     1       2.535   6.587  19.397  0.00  0.00    +0.000 OA
BRANCH  27  28
ATOM     28  C   UNL     1       3.011   5.839  18.269  0.00  0.00    +0.000 C 
BRANCH  28  29
ATOM     29  C   UNL     1       4.488   5.464  18.486  0.00  0.00    +0.000 C 
BRANCH  29  30
ATOM     30  N   UNL     1       5.423   6.275  17.683  0.00  0.00    +0.000 NA
ATOM     31  C   UNL     1       5.396   5.984  16.233  0.00  0.00    +0.000 C 
ATOM     32  C   UNL     1       6.103   4.681  15.816  0.00  0.00    +0.000 C 
ATOM     33  O   UNL     1       7.438   4.607  16.326  0.00  0.00    +0.000 OA
ATOM     34  C   UNL     1       7.457   4.775  17.748  0.00  0.00    +0.000 C 
ATOM     35  C   UNL     1       6.821   6.115  18.150  0.00  0.00    +0.000 C 
ENDBRANCH  29  30
ENDBRANCH  28  29
ENDBRANCH  27  28
ENDBRANCH   4  27
TORSDOF 8
ENDMDL
MODEL 2
REMARK VINA RESULT:      -8.2      3.252     10.017
REMARK  Name = 
REMARK  12 active torsions:
REMARK  status: ('A' for Active; 'I' for Inactive)
REMARK    1  A    between atoms: C_1  and  N_2
REMARK    2  A    between atoms: C_4  and  C_5
REMARK    3  A    between atoms: C_5  and  C_6
REMARK    4  A    between atoms: C_5  and  C_7
REMARK    5  A    between atoms: C_5  and  C_8
REMARK    6  A    between atoms: C_10  and  N_11
REMARK    7  A    between atoms: C_12  and  C_14
REMARK    8  A    between atoms: C_14  and  C_16
REMARK    9  A    between atoms: C_19  and  O_20
REMARK   10  A    between atoms: O_20  and  C_21
REMARK   11  A    between atoms: C_21  and  C_22
REMARK   12  A    between atoms: C_22  and  N_23
REMARK                            x       y       z     vdW  Elec       q    Type
REMARK                         _______ _______ _______ _____ _____    ______ ____
ROOT
ATOM      1  C   UNL     1       0.490  10.757  18.910  0.00  0.00    +0.000 A 
ATOM      2  C   UNL     1       0.806  11.579  20.008  0.00  0.00    +0.000 A 
ATOM      3  C   UNL     1      -0.170  12.329  20.641  0.00  0.00    +0.000 A 
ATOM      4  C   UNL     1      -1.484  12.312  20.173  0.00  0.00    +0.000 A 
ATOM      5  C   UNL     1      -1.840  11.475  19.081  0.00  0.00    +0.000 A 
ATOM      6  C   UNL     1      -3.177  11.409  18.634  0.00  0.00    +0.000 A 
ATOM      7  C   UNL     1      -3.552  10.603  17.559  0.00  0.00    +0.000 A 
ATOM      8  C   UNL     1      -2.592   9.842  16.911  0.00  0.00    +0.000 A 
ATOM      9  C   UNL     1      -1.263   9.883  17.340  0.00  0.00    +0.000 A 
ATOM     10  C   UNL     1      -0.848  10.691  18.430  0.00  0.00    +0.000 A 
ENDROOT
BRANCH   1  11
ATOM     11  C   UNL     1       1.620   9.993  18.298  0.00  0.00    +0.000 C 
ATOM     12  O   UNL     1       2.408  10.453  17.483  0.00  0.00    +0.000 OA
BRANCH  11  14
ATOM     13  N   UNL     1       2.433   7.655  17.825  0.00  0.00    +0.000 N 
ATOM     14  C   UNL     1       1.858   8.575  18.786  0.00  0.00    +0.000 C 
ATOM     15  O   UNL     1       1.629   8.277  19.945  0.00  0.00    +0.000 OA
ATOM     16  H   UNL     1       2.563   7.995  16.876  0.00  0.00    +0.000 HD
BRANCH  13  22
ATOM     17  C   UNL     1       5.279   6.308  17.620  0.00  0.00    +0.000 C 
ATOM     18  N   UNL     1       4.028   5.746  18.070  0.00  0.00    +0.000 N 
ATOM     19  N   UNL     1       4.031   4.463  18.474  0.00  0.00    +0.000 NA
ATOM     20  C   UNL     1       2.759   4.202  18.796  0.00  0.00    +0.000 A 
ATOM     21  C   UNL     1       1.957   5.353  18.620  0.00  0.00    +0.000 A 
ATOM     22  C   UNL     1       2.790   6.347  18.150  0.00  0.00    +0.000 A 
BRANCH  20  23
ATOM     23  C   UNL     1       2.344   2.818  19.267  0.00  0.00    +0.000 C 
ATOM     24  C   UNL     1       0.891   2.529  18.847  0.00  0.00    +0.000 C 
ATOM     25  C   UNL     1       3.243   1.717  18.666  0.00  0.00    +0.000 C 
ATOM     26  C   UNL     1       2.452   2.730  20.803  0.00  0.00    +0.000 C 
ENDBRANCH  20  23
ENDBRANCH  13  22
ENDBRANCH  11  14
ENDBRANCH   1  11
BRANCH   4  27
ATOM     27  O   UNL     1      -2.485  13.075  20.737  0.00  0.00    +0.000 OA
BRANCH  27  28
ATOM     28  C   UNL     1      -2.361  13.348  22.140  0.00  0.00    +0.000 C 
BRANCH  28  29
ATOM     29  C   UNL     1      -3.300  12.419  22.930  0.00  0.00    +0.000 C 
BRANCH  29  30
ATOM     30  N   UNL     1      -3.780  13.008  24.194  0.00  0.00    +0.000 NA
ATOM     31  C   UNL     1      -4.964  12.335  24.773  0.00  0.00    +0.000 C 
ATOM     32  C   UNL     1      -6.298  12.648  24.072  0.00  0.00    +0.000 C 
ATOM     33  O   UNL     1      -6.523  14.056  23.947  0.00  0.00    +0.000 OA
ATOM     34  C   UNL     1      -5.428  14.695  23.283  0.00  0.00    +0.000 C 
ATOM     35  C   UNL     1      -4.110  14.445  24.034  0.00  0.00    +0.000 C 
ENDBRANCH  29  30
ENDBRANCH  28  29
ENDBRANCH  27  28
ENDBRANCH   4  27
TORSDOF 8
ENDMDL
MODEL 3
REMARK VINA RESULT:      -8.1      3.544      9.937
REMARK  Name = 
REMARK  12 active torsions:
REMARK  status: ('A' for Active; 'I' for Inactive)
REMARK    1  A    between atoms: C_1  and  N_2
REMARK    2  A    between atoms: C_4  and  C_5
REMARK    3  A    between atoms: C_5  and  C_6
REMARK    4  A    between atoms: C_5  and  C_7
REMARK    5  A    between atoms: C_5  and  C_8
REMARK    6  A    between atoms: C_10  and  N_11
REMARK    7  A    between atoms: C_12  and  C_14
REMARK    8  A    between atoms: C_14  and  C_16
REMARK    9  A    between atoms: C_19  and  O_20
REMARK   10  A    between atoms: O_20  and  C_21
REMARK   11  A    between atoms: C_21  and  C_22
REMARK   12  A    between atoms: C_22  and  N_23
REMARK                            x       y       z     vdW  Elec       q    Type
REMARK                         _______ _______ _______ _____ _____    ______ ____
ROOT
ATOM      1  C   UNL     1      -0.501  10.772  22.149  0.00  0.00    +0.000 A 
ATOM      2  C   UNL     1      -1.536  11.065  23.058  0.00  0.00    +0.000 A 
ATOM      3  C   UNL     1      -2.445  12.075  22.800  0.00  0.00    +0.000 A 
ATOM      4  C   UNL     1      -2.327  12.851  21.647  0.00  0.00    +0.000 A 
ATOM      5  C   UNL     1      -1.308  12.566  20.698  0.00  0.00    +0.000 A 
ATOM      6  C   UNL     1      -1.214  13.309  19.503  0.00  0.00    +0.000 A 
ATOM      7  C   UNL     1      -0.217  13.057  18.559  0.00  0.00    +0.000 A 
ATOM      8  C   UNL     1       0.704  12.049  18.795  0.00  0.00    +0.000 A 
ATOM      9  C   UNL     1       0.626  11.293  19.967  0.00  0.00    +0.000 A 
ATOM     10  C   UNL     1      -0.374  11.522  20.947  0.00  0.00    +0.000 A 
ENDROOT
BRANCH   1  11
ATOM     11  C   UNL     1       0.430   9.664  22.526  0.00  0.00    +0.000 C 
ATOM     12  O   UNL     1       1.142   9.664  23.520  0.00  0.00    +0.000 OA
BRANCH  11  14
ATOM     13  N   UNL     1       1.716   7.965  21.182  0.00  0.00    +0.000 N 
ATOM     14  C   UNL     1       0.425   8.416  21.662  0.00  0.00    +0.000 C 
ATOM     15  O   UNL     1      -0.614   7.813  21.455  0.00  0.00    +0.000 OA
ATOM     16  H   UNL     1       2.521   8.552  21.388  0.00  0.00    +0.000 HD
BRANCH  13  22
ATOM     17  C   UNL     1       2.571   7.656  18.161  0.00  0.00    +0.000 C 
ATOM     18  N   UNL     1       2.261   6.637  19.135  0.00  0.00    +0.000 N 
ATOM     19  N   UNL     1       2.340   5.353  18.742  0.00  0.00    +0.000 NA
ATOM     20  C   UNL     1       1.973   4.643  19.815  0.00  0.00    +0.000 A 
ATOM     21  C   UNL     1       1.694   5.499  20.905  0.00  0.00    +0.000 A 
ATOM     22  C   UNL     1       1.884   6.789  20.453  0.00  0.00    +0.000 A 
BRANCH  20  23
ATOM     23  C   UNL     1       1.895   3.127  19.754  0.00  0.00    +0.000 C 
ATOM     24  C   UNL     1       1.537   2.558  21.141  0.00  0.00    +0.000 C 
ATOM     25  C   UNL     1       0.822   2.650  18.752  0.00  0.00    +0.000 C 
ATOM     26  C   UNL     1       3.251   2.546  19.306  0.00  0.00    +0.000 C 
ENDBRANCH  20  23
ENDBRANCH  13  22
ENDBRANCH  11  14
ENDBRANCH   1  11
BRANCH   4  27
ATOM     27  O   UNL     1      -3.178  13.899  21.364  0.00  0.00    +0.000 OA
BRANCH  27  28
ATOM     28  C   UNL     1      -4.536  13.750  21.803  0.00  0.00    +0.000 C 
BRANCH  28  29
ATOM     29  C   UNL     1      -5.487  13.946  20.608  0.00  0.00    +0.000 C 
BRANCH  29  30
ATOM     30  N   UNL     1      -6.684  13.086  20.664  0.00  0.00    +0.000 NA
ATOM     31  C   UNL     1      -6.417  11.649  20.436  0.00  0.00    +0.000 C 
ATOM     32  C   UNL     1      -6.155  11.260  18.969  0.00  0.00    +0.000 C 
ATOM     33  O   UNL     1      -7.186  11.732  18.096  0.00  0.00    +0.000 OA
ATOM     34  C   UNL     1      -7.370  13.145  18.232  0.00  0.00    +0.000 C 
ATOM     35  C   UNL     1      -7.710  13.516  19.684  0.00  0.00    +0.000 C 
ENDBRANCH  29  30
ENDBRANCH  28  29
ENDBRANCH  27  28
ENDBRANCH   4  27
TORSDOF 8
ENDMDL
MODEL 4
REMARK VINA RESULT:      -8.0      0.872      1.256
REMARK  Name = 
REMARK  12 active torsions:
REMARK  status: ('A' for Active; 'I' for Inactive)
REMARK    1  A    between atoms: C_1  and  N_2
REMARK    2  A    between atoms: C_4  and  C_5
REMARK    3  A    between atoms: C_5  and  C_6
REMARK    4  A    between atoms: C_5  and  C_7
REMARK    5  A    between atoms: C_5  and  C_8
REMARK    6  A    between atoms: C_10  and  N_11
REMARK    7  A    between atoms: C_12  and  C_14
REMARK    8  A    between atoms: C_14  and  C_16
REMARK    9  A    between atoms: C_19  and  O_20
REMARK   10  A    between atoms: O_20  and  C_21
REMARK   11  A    between atoms: C_21  and  C_22
REMARK   12  A    between atoms: C_22  and  N_23
REMARK                            x       y       z     vdW  Elec       q    Type
REMARK                         _______ _______ _______ _____ _____    ______ ____
ROOT
ATOM      1  C   UNL     1       1.210  10.571  18.898  0.00  0.00    +0.000 A 
ATOM      2  C   UNL     1       1.862   9.738  17.970  0.00  0.00    +0.000 A 
ATOM      3  C   UNL     1       2.169   8.426  18.283  0.00  0.00    +0.000 A 
ATOM      4  C   UNL     1       1.869   7.915  19.546  0.00  0.00    +0.000 A 
ATOM      5  C   UNL     1       1.190   8.723  20.498  0.00  0.00    +0.000 A 
ATOM      6  C   UNL     1       0.834   8.200  21.758  0.00  0.00    +0.000 A 
ATOM      7  C   UNL     1       0.175   8.974  22.715  0.00  0.00    +0.000 A 
ATOM      8  C   UNL     1      -0.144  10.291  22.423  0.00  0.00    +0.000 A 
ATOM      9  C   UNL     1       0.190  10.830  21.178  0.00  0.00    +0.000 A 
ATOM     10  C   UNL     1       0.859  10.070  20.183  0.00  0.00    +0.000 A 
ENDROOT
BRANCH   1  11
ATOM     11  C   UNL     1       0.929  11.973  18.460  0.00  0.00    +0.000 C 
ATOM     12  O   UNL     1       1.787  12.818  18.246  0.00  0.00    +0.000 OA
BRANCH  11  14
ATOM     13  N   UNL     1      -1.416  11.250  17.890  0.00  0.00    +0.000 N 
ATOM     14  C   UNL     1      -0.515  12.347  18.178  0.00  0.00    +0.000 C 
ATOM     15  O   UNL     1      -0.878  13.508  18.261  0.00  0.00    +0.000 OA
ATOM     16  H   UNL     1      -1.010  10.320  17.819  0.00  0.00    +0.000 HD
BRANCH  13  22
ATOM     17  C   UNL     1      -3.073  10.857  15.234  0.00  0.00    +0.000 C 
ATOM     18  N   UNL     1      -3.524  11.253  16.546  0.00  0.00    +0.000 N 
ATOM     19  N   UNL     1      -4.838  11.497  16.707  0.00  0.00    +0.000 NA
ATOM     20  C   UNL     1      -4.963  11.871  17.985  0.00  0.00    +0.000 A 
ATOM     21  C   UNL     1      -3.711  11.827  18.640  0.00  0.00    +0.000 A 
ATOM     22  C   UNL     1      -2.786  11.425  17.698  0.00  0.00    +0.000 A 
BRANCH  20  23
ATOM     23  C   UNL     1      -6.315  12.275  18.548  0.00  0.00    +0.000 C 
ATOM     24  C   UNL     1      -7.192  12.882  17.437  0.00  0.00    +0.000 C 
ATOM     25  C   UNL     1      -7.069  11.067  19.145  0.00  0.00    +0.000 C 
ATOM     26  C   UNL     1      -6.130  13.317  19.670  0.00  0.00    +0.000 C 
ENDBRANCH  20  23
ENDBRANCH  13  22
ENDBRANCH  11  14
ENDBRANCH   1  11
BRANCH   4  27
ATOM     27  O   UNL     1       2.194   6.630  19.926  0.00  0.00    +0.000 OA
BRANCH  27  28
ATOM     28  C   UNL     1       3.459   6.133  19.465  0.00  0.00    +0.000 C 
BRANCH  28  29
ATOM     29  C   UNL     1       3.230   5.100  18.348  0.00  0.00    +0.000 C 
BRANCH  29  30
ATOM     30  N   UNL     1       4.148   3.949  18.416  0.00  0.00    +0.000 NA
ATOM     31  C   UNL     1       5.508   4.278  18.899  0.00  0.00    +0.000 C 
ATOM     32  C   UNL     1       6.409   4.990  17.874  0.00  0.00    +0.000 C 
ATOM     33  O   UNL     1       6.467   4.286  16.629  0.00  0.00    +0.000 OA
ATOM     34  C   UNL     1       5.156   4.065  16.100  0.00  0.00    +0.000 C 
ATOM     35  C   UNL     1       4.287   3.283  17.098  0.00  0.00    +0.000 C 
ENDBRANCH  29  30
ENDBRANCH  28  29
ENDBRANCH  27  28
ENDBRANCH   4  27
TORSDOF 8
ENDMDL
MODEL 5
REMARK VINA RESULT:      -8.0      3.118     10.251
REMARK  Name = 
REMARK  12 active torsions:
REMARK  status: ('A' for Active; 'I' for Inactive)
REMARK    1  A    between atoms: C_1  and  N_2
REMARK    2  A    between atoms: C_4  and  C_5
REMARK    3  A    between atoms: C_5  and  C_6
REMARK    4  A    between atoms: C_5  and  C_7
REMARK    5  A    between atoms: C_5  and  C_8
REMARK    6  A    between atoms: C_10  and  N_11
REMARK    7  A    between atoms: C_12  and  C_14
REMARK    8  A    between atoms: C_14  and  C_16
REMARK    9  A    between atoms: C_19  and  O_20
REMARK   10  A    between atoms: O_20  and  C_21
REMARK   11  A    between atoms: C_21  and  C_22
REMARK   12  A    between atoms: C_22  and  N_23
REMARK                            x       y       z     vdW  Elec       q    Type
REMARK                         _______ _______ _______ _____ _____    ______ ____
ROOT
ATOM      1  C   UNL     1       0.485  10.635  19.098  0.00  0.00    +0.000 A 
ATOM      2  C   UNL     1       0.810  11.329  20.279  0.00  0.00    +0.000 A 
ATOM      3  C   UNL     1      -0.151  12.043  20.972  0.00  0.00    +0.000 A 
ATOM      4  C   UNL     1      -1.456  12.121  20.489  0.00  0.00    +0.000 A 
ATOM      5  C   UNL     1      -1.823  11.413  19.312  0.00  0.00    +0.000 A 
ATOM      6  C   UNL     1      -3.153  11.440  18.845  0.00  0.00    +0.000 A 
ATOM      7  C   UNL     1      -3.538  10.762  17.687  0.00  0.00    +0.000 A 
ATOM      8  C   UNL     1      -2.594  10.038  16.976  0.00  0.00    +0.000 A 
ATOM      9  C   UNL     1      -1.271   9.988  17.424  0.00  0.00    +0.000 A 
ATOM     10  C   UNL     1      -0.847  10.665  18.597  0.00  0.00    +0.000 A 
ENDROOT
BRANCH   1  11
ATOM     11  C   UNL     1       1.597   9.898  18.424  0.00  0.00    +0.000 C 
ATOM     12  O   UNL     1       2.341  10.383  17.582  0.00  0.00    +0.000 OA
BRANCH  11  14
ATOM     13  N   UNL     1       2.382   7.569  17.869  0.00  0.00    +0.000 N 
ATOM     14  C   UNL     1       1.879   8.478  18.880  0.00  0.00    +0.000 C 
ATOM     15  O   UNL     1       1.742   8.168  20.050  0.00  0.00    +0.000 OA
ATOM     16  H   UNL     1       2.437   7.918  16.915  0.00  0.00    +0.000 HD
BRANCH  13  22
ATOM     17  C   UNL     1       5.249   6.283  17.580  0.00  0.00    +0.000 C 
ATOM     18  N   UNL     1       4.017   5.685  18.036  0.00  0.00    +0.000 N 
ATOM     19  N   UNL     1       4.051   4.392  18.407  0.00  0.00    +0.000 NA
ATOM     20  C   UNL     1       2.790   4.099  18.742  0.00  0.00    +0.000 A 
ATOM     21  C   UNL     1       1.964   5.238  18.611  0.00  0.00    +0.000 A 
ATOM     22  C   UNL     1       2.770   6.260  18.153  0.00  0.00    +0.000 A 
BRANCH  20  23
ATOM     23  C   UNL     1       2.409   2.696  19.184  0.00  0.00    +0.000 C 
ATOM     24  C   UNL     1       0.957   2.386  18.774  0.00  0.00    +0.000 C 
ATOM     25  C   UNL     1       3.323   1.628  18.544  0.00  0.00    +0.000 C 
ATOM     26  C   UNL     1       2.539   2.571  20.716  0.00  0.00    +0.000 C 
ENDBRANCH  20  23
ENDBRANCH  13  22
ENDBRANCH  11  14
ENDBRANCH   1  11
BRANCH   4  27
ATOM     27  O   UNL     1      -2.440  12.857  21.115  0.00  0.00    +0.000 OA
BRANCH  27  28
ATOM     28  C   UNL     1      -2.809  12.429  22.435  0.00  0.00    +0.000 C 
BRANCH  28  29
ATOM     29  C   UNL     1      -3.712  13.492  23.087  0.00  0.00    +0.000 C 
BRANCH  29  30
ATOM     30  N   UNL     1      -4.897  13.831  22.277  0.00  0.00    +0.000 NA
ATOM     31  C   UNL     1      -5.396  15.210  22.470  0.00  0.00    +0.000 C 
ATOM     32  C   UNL     1      -6.171  15.445  23.779  0.00  0.00    +0.000 C 
ATOM     33  O   UNL     1      -7.224  14.493  23.959  0.00  0.00    +0.000 OA
ATOM     34  C   UNL     1      -6.725  13.153  23.886  0.00  0.00    +0.000 C 
ATOM     35  C   UNL     1      -6.022  12.902  22.543  0.00  0.00    +0.000 C 
ENDBRANCH  29  30
ENDBRANCH  28  29
ENDBRANCH  27  28
ENDBRANCH   4  27
TORSDOF 8
ENDMDL
MODEL 6
REMARK VINA RESULT:      -7.9      3.036     10.131
REMARK  Name = 
REMARK  12 active torsions:
REMARK  status: ('A' for Active; 'I' for Inactive)
REMARK    1  A    between atoms: C_1  and  N_2
REMARK    2  A    between atoms: C_4  and  C_5
REMARK    3  A    between atoms: C_5  and  C_6
REMARK    4  A    between atoms: C_5  and  C_7
REMARK    5  A    between atoms: C_5  and  C_8
REMARK    6  A    between atoms: C_10  and  N_11
REMARK    7  A    between atoms: C_12  and  C_14
REMARK    8  A    between atoms: C_14  and  C_16
REMARK    9  A    between atoms: C_19  and  O_20
REMARK   10  A    between atoms: O_20  and  C_21
REMARK   11  A    between atoms: C_21  and  C_22
REMARK   12  A    between atoms: C_22  and  N_23
REMARK                            x       y       z     vdW  Elec       q    Type
REMARK                         _______ _______ _______ _____ _____    ______ ____
ROOT
ATOM      1  C   UNL     1       0.410  10.814  18.904  0.00  0.00    +0.000 A 
ATOM      2  C   UNL     1       0.698  11.660  19.992  0.00  0.00    +0.000 A 
ATOM      3  C   UNL     1      -0.297  12.409  20.594  0.00  0.00    +0.000 A 
ATOM      4  C   UNL     1      -1.602  12.368  20.106  0.00  0.00    +0.000 A 
ATOM      5  C   UNL     1      -1.931  11.508  19.023  0.00  0.00    +0.000 A 
ATOM      6  C   UNL     1      -3.259  11.418  18.557  0.00  0.00    +0.000 A 
ATOM      7  C   UNL     1      -3.607  10.589  17.490  0.00  0.00    +0.000 A 
ATOM      8  C   UNL     1      -2.628   9.827  16.872  0.00  0.00    +0.000 A 
ATOM      9  C   UNL     1      -1.307   9.891  17.322  0.00  0.00    +0.000 A 
ATOM     10  C   UNL     1      -0.919  10.724  18.403  0.00  0.00    +0.000 A 
ENDROOT
BRANCH   1  11
ATOM     11  C   UNL     1       1.558  10.052  18.324  0.00  0.00    +0.000 C 
ATOM     12  O   UNL     1       2.368  10.513  17.532  0.00  0.00    +0.000 OA
BRANCH  11  14
ATOM     13  N   UNL     1       2.372   7.711  17.870  0.00  0.00    +0.000 N 
ATOM     14  C   UNL     1       1.785   8.635  18.820  0.00  0.00    +0.000 C 
ATOM     15  O   UNL     1       1.537   8.340  19.976  0.00  0.00    +0.000 OA
ATOM     16  H   UNL     1       2.518   8.048  16.922  0.00  0.00    +0.000 HD
BRANCH  13  22
ATOM     17  C   UNL     1       5.198   6.330  17.626  0.00  0.00    +0.000 C 
ATOM     18  N   UNL     1       3.950   5.787  18.106  0.00  0.00    +0.000 N 
ATOM     19  N   UNL     1       3.947   4.508  18.526  0.00  0.00    +0.000 NA
ATOM     20  C   UNL     1       2.678   4.266  18.875  0.00  0.00    +0.000 A 
ATOM     21  C   UNL     1       1.886   5.424  18.701  0.00  0.00    +0.000 A 
ATOM     22  C   UNL     1       2.721   6.403  18.203  0.00  0.00    +0.000 A 
BRANCH  20  23
ATOM     23  C   UNL     1       2.257   2.893  19.370  0.00  0.00    +0.000 C 
ATOM     24  C   UNL     1       2.183   2.884  20.909  0.00  0.00    +0.000 C 
ATOM     25  C   UNL     1       0.871   2.489  18.825  0.00  0.00    +0.000 C 
ATOM     26  C   UNL     1       3.274   1.830  18.908  0.00  0.00    +0.000 C 
ENDBRANCH  20  23
ENDBRANCH  13  22
ENDBRANCH  11  14
ENDBRANCH   1  11
BRANCH   4  27
ATOM     27  O   UNL     1      -2.622  13.130  20.639  0.00  0.00    +0.000 OA
BRANCH  27  28
ATOM     28  C   UNL     1      -2.774  13.077  22.064  0.00  0.00    +0.000 C 
BRANCH  28  29
ATOM     29  C   UNL     1      -4.197  12.607  22.414  0.00  0.00    +0.000 C 
BRANCH  29  30
ATOM     30  N   UNL     1      -5.092  13.704  22.827  0.00  0.00    +0.000 NA
ATOM     31  C   UNL     1      -6.074  13.334  23.870  0.00  0.00    +0.000 C 
ATOM     32  C   UNL     1      -7.265  12.493  23.374  0.00  0.00    +0.000 C 
ATOM     33  O   UNL     1      -7.917  13.095  22.251  0.00  0.00    +0.000 OA
ATOM     34  C   UNL     1      -6.988  13.351  21.192  0.00  0.00    +0.000 C 
ATOM     35  C   UNL     1      -5.844  14.257  21.675  0.00  0.00    +0.000 C 
ENDBRANCH  29  30
ENDBRANCH  28  29
ENDBRANCH  27  28
ENDBRANCH   4  27
TORSDOF 8
ENDMDL
MODEL 7
REMARK VINA RESULT:      -7.8      4.151     10.456
REMARK  Name = 
REMARK  12 active torsions:
REMARK  status: ('A' for Active; 'I' for Inactive)
REMARK    1  A    between atoms: C_1  and  N_2
REMARK    2  A    between atoms: C_4  and  C_5
REMARK    3  A    between atoms: C_5  and  C_6
REMARK    4  A    between atoms: C_5  and  C_7
REMARK    5  A    between atoms: C_5  and  C_8
REMARK    6  A    between atoms: C_10  and  N_11
REMARK    7  A    between atoms: C_12  and  C_14
REMARK    8  A    between atoms: C_14  and  C_16
REMARK    9  A    between atoms: C_19  and  O_20
REMARK   10  A    between atoms: O_20  and  C_21
REMARK   11  A    between atoms: C_21  and  C_22
REMARK   12  A    between atoms: C_22  and  N_23
REMARK                            x       y       z     vdW  Elec       q    Type
REMARK                         _______ _______ _______ _____ _____    ______ ____
ROOT
ATOM      1  C   UNL     1      -0.416  10.749  22.164  0.00  0.00    +0.000 A 
ATOM      2  C   UNL     1      -1.441  10.997  23.096  0.00  0.00    +0.000 A 
ATOM      3  C   UNL     1      -2.361  12.010  22.890  0.00  0.00    +0.000 A 
ATOM      4  C   UNL     1      -2.262  12.832  21.768  0.00  0.00    +0.000 A 
ATOM      5  C   UNL     1      -1.252  12.595  20.797  0.00  0.00    +0.000 A 
ATOM      6  C   UNL     1      -1.176  13.386  19.633  0.00  0.00    +0.000 A 
ATOM      7  C   UNL     1      -0.189  13.180  18.668  0.00  0.00    +0.000 A 
ATOM      8  C   UNL     1       0.742  12.170  18.851  0.00  0.00    +0.000 A 
ATOM      9  C   UNL     1       0.683  11.366  19.992  0.00  0.00    +0.000 A 
ATOM     10  C   UNL     1      -0.308  11.548  20.992  0.00  0.00    +0.000 A 
ENDROOT
BRANCH   1  11
ATOM     11  C   UNL     1       0.527   9.633  22.485  0.00  0.00    +0.000 C 
ATOM     12  O   UNL     1       1.274   9.612  23.454  0.00  0.00    +0.000 OA
BRANCH  11  14
ATOM     13  N   UNL     1       1.776   7.888  21.165  0.00  0.00    +0.000 N 
ATOM     14  C   UNL     1       0.492   8.404  21.595  0.00  0.00    +0.000 C 
ATOM     15  O   UNL     1      -0.569   7.866  21.329  0.00  0.00    +0.000 OA
ATOM     16  H   UNL     1       2.602   8.424  21.419  0.00  0.00    +0.000 HD
BRANCH  13  22
ATOM     17  C   UNL     1       2.571   7.600  18.125  0.00  0.00    +0.000 C 
ATOM     18  N   UNL     1       2.261   6.576  19.093  0.00  0.00    +0.000 N 
ATOM     19  N   UNL     1       2.311   5.295  18.683  0.00  0.00    +0.000 NA
ATOM     20  C   UNL     1       1.952   4.579  19.754  0.00  0.00    +0.000 A 
ATOM     21  C   UNL     1       1.707   5.426  20.859  0.00  0.00    +0.000 A 
ATOM     22  C   UNL     1       1.911   6.718  20.418  0.00  0.00    +0.000 A 
BRANCH  20  23
ATOM     23  C   UNL     1       1.846   3.065  19.677  0.00  0.00    +0.000 C 
ATOM     24  C   UNL     1       0.630   2.661  18.822  0.00  0.00    +0.000 C 
ATOM     25  C   UNL     1       3.105   2.436  19.042  0.00  0.00    +0.000 C 
ATOM     26  C   UNL     1       1.686   2.474  21.092  0.00  0.00    +0.000 C 
ENDBRANCH  20  23
ENDBRANCH  13  22
ENDBRANCH  11  14
ENDBRANCH   1  11
BRANCH   4  27
ATOM     27  O   UNL     1      -3.123  13.885  21.539  0.00  0.00    +0.000 OA
BRANCH  27  28
ATOM     28  C   UNL     1      -3.297  14.810  22.622  0.00  0.00    +0.000 C 
BRANCH  28  29
ATOM     29  C   UNL     1      -4.734  15.360  22.603  0.00  0.00    +0.000 C 
BRANCH  29  30
ATOM     30  N   UNL     1      -5.571  14.856  23.707  0.00  0.00    +0.000 NA
ATOM     31  C   UNL     1      -5.685  13.381  23.765  0.00  0.00    +0.000 C 
ATOM     32  C   UNL     1      -6.623  12.759  22.715  0.00  0.00    +0.000 C 
ATOM     33  O   UNL     1      -7.917  13.371  22.720  0.00  0.00    +0.000 OA
ATOM     34  C   UNL     1      -7.817  14.789  22.550  0.00  0.00    +0.000 C 
ATOM     35  C   UNL     1      -6.943  15.413  23.650  0.00  0.00    +0.000 C 
ENDBRANCH  29  30
ENDBRANCH  28  29
ENDBRANCH  27  28
ENDBRANCH   4  27
TORSDOF 8
ENDMDL
MODEL 8
REMARK VINA RESULT:      -7.8      3.613     10.106
REMARK  Name = 
REMARK  12 active torsions:
REMARK  status: ('A' for Active; 'I' for Inactive)
REMARK    1  A    between atoms: C_1  and  N_2
REMARK    2  A    between atoms: C_4  and  C_5
REMARK    3  A    between atoms: C_5  and  C_6
REMARK    4  A    between atoms: C_5  and  C_7
REMARK    5  A    between atoms: C_5  and  C_8
REMARK    6  A    between atoms: C_10  and  N_11
REMARK    7  A    between atoms: C_12  and  C_14
REMARK    8  A    between atoms: C_14  and  C_16
REMARK    9  A    between atoms: C_19  and  O_20
REMARK   10  A    between atoms: O_20  and  C_21
REMARK   11  A    between atoms: C_21  and  C_22
REMARK   12  A    between atoms: C_22  and  N_23
REMARK                            x       y       z     vdW  Elec       q    Type
REMARK                         _______ _______ _______ _____ _____    ______ ____
ROOT
ATOM      1  C   UNL     1      -0.476  10.828  22.105  0.00  0.00    +0.000 A 
ATOM      2  C   UNL     1      -1.519  11.151  22.994  0.00  0.00    +0.000 A 
ATOM      3  C   UNL     1      -2.364  12.218  22.744  0.00  0.00    +0.000 A 
ATOM      4  C   UNL     1      -2.171  13.020  21.619  0.00  0.00    +0.000 A 
ATOM      5  C   UNL     1      -1.142  12.707  20.690  0.00  0.00    +0.000 A 
ATOM      6  C   UNL     1      -0.973  13.479  19.521  0.00  0.00    +0.000 A 
ATOM      7  C   UNL     1       0.035  13.200  18.597  0.00  0.00    +0.000 A 
ATOM      8  C   UNL     1       0.893  12.135  18.826  0.00  0.00    +0.000 A 
ATOM      9  C   UNL     1       0.740  11.350  19.971  0.00  0.00    +0.000 A 
ATOM     10  C   UNL     1      -0.274  11.606  20.930  0.00  0.00    +0.000 A 
ENDROOT
BRANCH   1  11
ATOM     11  C   UNL     1       0.381   9.659  22.472  0.00  0.00    +0.000 C 
ATOM     12  O   UNL     1       0.983   9.545  23.531  0.00  0.00    +0.000 OA
BRANCH  11  14
ATOM     13  N   UNL     1       1.756   8.113  21.035  0.00  0.00    +0.000 N 
ATOM     14  C   UNL     1       0.438   8.495  21.500  0.00  0.00    +0.000 C 
ATOM     15  O   UNL     1      -0.579   7.895  21.196  0.00  0.00    +0.000 OA
ATOM     16  H   UNL     1       2.539   8.693  21.326  0.00  0.00    +0.000 HD
BRANCH  13  22
ATOM     17  C   UNL     1       2.581   8.098  17.990  0.00  0.00    +0.000 C 
ATOM     18  N   UNL     1       2.343   6.988  18.881  0.00  0.00    +0.000 N 
ATOM     19  N   UNL     1       2.487   5.746  18.384  0.00  0.00    +0.000 NA
ATOM     20  C   UNL     1       2.178   4.932  19.399  0.00  0.00    +0.000 A 
ATOM     21  C   UNL     1       1.868   5.680  20.558  0.00  0.00    +0.000 A 
ATOM     22  C   UNL     1       1.979   7.011  20.211  0.00  0.00    +0.000 A 
BRANCH  20  23
ATOM     23  C   UNL     1       2.183   3.424  19.216  0.00  0.00    +0.000 C 
ATOM     24  C   UNL     1       3.244   2.782  20.131  0.00  0.00    +0.000 C 
ATOM     25  C   UNL     1       0.814   2.801  19.564  0.00  0.00    +0.000 C 
ATOM     26  C   UNL     1       2.503   3.071  17.749  0.00  0.00    +0.000 C 
ENDBRANCH  20  23
ENDBRANCH  13  22
ENDBRANCH  11  14
ENDBRANCH   1  11
BRANCH   4  27
ATOM     27  O   UNL     1      -2.954  14.122  21.347  0.00  0.00    +0.000 OA
BRANCH  27  28
ATOM     28  C   UNL     1      -4.324  14.045  21.767  0.00  0.00    +0.000 C 
BRANCH  28  29
ATOM     29  C   UNL     1      -5.151  13.315  20.694  0.00  0.00    +0.000 C 
BRANCH  29  30
ATOM     30  N   UNL     1      -6.604  13.528  20.828  0.00  0.00    +0.000 NA
ATOM     31  C   UNL     1      -7.084  13.613  22.226  0.00  0.00    +0.000 C 
ATOM     32  C   UNL     1      -7.170  12.266  22.968  0.00  0.00    +0.000 C 
ATOM     33  O   UNL     1      -7.917  11.293  22.231  0.00  0.00    +0.000 OA
ATOM     34  C   UNL     1      -7.384  11.125  20.913  0.00  0.00    +0.000 C 
ATOM     35  C   UNL     1      -7.377  12.459  20.150  0.00  0.00    +0.000 C 
ENDBRANCH  29  30
ENDBRANCH  28  29
ENDBRANCH  27  28
ENDBRANCH   4  27
TORSDOF 8
ENDMDL
MODEL 9
REMARK VINA RESULT:      -7.8      3.215     10.340
REMARK  Name = 
REMARK  12 active torsions:
REMARK  status: ('A' for Active; 'I' for Inactive)
REMARK    1  A    between atoms: C_1  and  N_2
REMARK    2  A    between atoms: C_4  and  C_5
REMARK    3  A    between atoms: C_5  and  C_6
REMARK    4  A    between atoms: C_5  and  C_7
REMARK    5  A    between atoms: C_5  and  C_8
REMARK    6  A    between atoms: C_10  and  N_11
REMARK    7  A    between atoms: C_12  and  C_14
REMARK    8  A    between atoms: C_14  and  C_16
REMARK    9  A    between atoms: C_19  and  O_20
REMARK   10  A    between atoms: O_20  and  C_21
REMARK   11  A    between atoms: C_21  and  C_22
REMARK   12  A    between atoms: C_22  and  N_23
REMARK                            x       y       z     vdW  Elec       q    Type
REMARK                         _______ _______ _______ _____ _____    ______ ____
ROOT
ATOM      1  C   UNL     1       0.225  10.602  18.884  0.00  0.00    +0.000 A 
ATOM      2  C   UNL     1       0.436  11.353  20.056  0.00  0.00    +0.000 A 
ATOM      3  C   UNL     1      -0.596  12.063  20.642  0.00  0.00    +0.000 A 
ATOM      4  C   UNL     1      -1.862  12.079  20.056  0.00  0.00    +0.000 A 
ATOM      5  C   UNL     1      -2.114  11.313  18.885  0.00  0.00    +0.000 A 
ATOM      6  C   UNL     1      -3.403  11.278  18.315  0.00  0.00    +0.000 A 
ATOM      7  C   UNL     1      -3.676  10.542  17.161  0.00  0.00    +0.000 A 
ATOM      8  C   UNL     1      -2.658   9.821  16.557  0.00  0.00    +0.000 A 
ATOM      9  C   UNL     1      -1.374   9.832  17.108  0.00  0.00    +0.000 A 
ATOM     10  C   UNL     1      -1.063  10.569  18.280  0.00  0.00    +0.000 A 
ENDROOT
BRANCH   1  11
ATOM     11  C   UNL     1       1.409   9.874  18.331  0.00  0.00    +0.000 C 
ATOM     12  O   UNL     1       2.145  10.311  17.457  0.00  0.00    +0.000 OA
BRANCH  11  14
ATOM     13  N   UNL     1       2.404   7.574  18.084  0.00  0.00    +0.000 N 
ATOM     14  C   UNL     1       1.772   8.541  18.958  0.00  0.00    +0.000 C 
ATOM     15  O   UNL     1       1.590   8.349  20.148  0.00  0.00    +0.000 OA
ATOM     16  H   UNL     1       2.489   7.820  17.101  0.00  0.00    +0.000 HD
BRANCH  13  22
ATOM     17  C   UNL     1       5.283   6.336  17.709  0.00  0.00    +0.000 C 
ATOM     18  N   UNL     1       4.129   5.788  18.381  0.00  0.00    +0.000 N 
ATOM     19  N   UNL     1       4.256   4.575  18.950  0.00  0.00    +0.000 NA
ATOM     20  C   UNL     1       3.048   4.307  19.458  0.00  0.00    +0.000 A 
ATOM     21  C   UNL     1       2.164   5.386  19.231  0.00  0.00    +0.000 A 
ATOM     22  C   UNL     1       2.875   6.340  18.533  0.00  0.00    +0.000 A 
BRANCH  20  23
ATOM     23  C   UNL     1       2.775   2.986  20.158  0.00  0.00    +0.000 C 
ATOM     24  C   UNL     1       4.088   2.202  20.342  0.00  0.00    +0.000 C 
ATOM     25  C   UNL     1       2.147   3.198  21.552  0.00  0.00    +0.000 C 
ATOM     26  C   UNL     1       1.795   2.139  19.322  0.00  0.00    +0.000 C 
ENDBRANCH  20  23
ENDBRANCH  13  22
ENDBRANCH  11  14
ENDBRANCH   1  11
BRANCH   4  27
ATOM     27  O   UNL     1      -2.913  12.807  20.572  0.00  0.00    +0.000 OA
BRANCH  27  28
ATOM     28  C   UNL     1      -2.574  14.053  21.197  0.00  0.00    +0.000 C 
BRANCH  28  29
ATOM     29  C   UNL     1      -3.833  14.667  21.836  0.00  0.00    +0.000 C 
BRANCH  29  30
ATOM     30  N   UNL     1      -4.072  14.208  23.217  0.00  0.00    +0.000 NA
ATOM     31  C   UNL     1      -5.089  13.140  23.339  0.00  0.00    +0.000 C 
ATOM     32  C   UNL     1      -6.548  13.611  23.198  0.00  0.00    +0.000 C 
ATOM     33  O   UNL     1      -6.848  14.703  24.073  0.00  0.00    +0.000 OA
ATOM     34  C   UNL     1      -5.933  15.786  23.878  0.00  0.00    +0.000 C 
ATOM     35  C   UNL     1      -4.483  15.326  24.099  0.00  0.00    +0.000 C 
ENDBRANCH  29  30
ENDBRANCH  28  29
ENDBRANCH  27  28
ENDBRANCH   4  27
TORSDOF 8
ENDMDL
