MODEL 1
REMARK VINA RESULT:      -7.4      0.000      0.000
REMARK  Name = 
REMARK  8 active torsions:
REMARK  status: ('A' for Active; 'I' for Inactive)
REMARK    1  A    between atoms: C_1  and  C_2
REMARK    2  A    between atoms: C_5  and  C_6
REMARK    3  A    between atoms: N_8  and  N_9
REMARK    4  A    between atoms: C_10  and  C_12
REMARK    5  A    between atoms: C_12  and  N_13
REMARK    6  A    between atoms: C_16  and  N_17
REMARK    7  A    between atoms: N_17  and  C_18
REMARK    8  A    between atoms: C_18  and  C_19
REMARK                            x       y       z     vdW  Elec       q    Type
REMARK                         _______ _______ _______ _____ _____    ______ ____
ROOT
ATOM      1  C   UNL     1       8.395   7.632  18.309  0.00  0.00    +0.000 C 
ENDROOT
BRANCH   1   2
ATOM      2  N   UNL     1       7.132   6.857  18.214  0.00  0.00    +0.000 NA
ATOM      3  C   UNL     1       7.219   5.656  19.072  0.00  0.00    +0.000 C 
ATOM      4  C   UNL     1       7.887   4.602  18.206  0.00  0.00    +0.000 C 
ATOM      5  C   UNL     1       7.237   4.813  16.841  0.00  0.00    +0.000 C 
ATOM      6  C   UNL     1       6.884   6.321  16.856  0.00  0.00    +0.000 C 
BRANCH   5   7
ATOM      7  N   UNL     1       6.074   3.923  16.701  0.00  0.00    +0.000 NA
ATOM      8  H   UNL     1       6.034   3.276  17.489  0.00  0.00    +0.000 HD
BRANCH   7   9
ATOM      9  C   UNL     1       4.808   4.656  16.634  0.00  0.00    +0.000 C 
BRANCH   9  10
ATOM     10  C   UNL     1       3.879   4.234  17.749  0.00  0.00    +0.000 A 
ATOM     11  C   UNL     1       4.324   3.370  18.763  0.00  0.00    +0.000 A 
ATOM     12  C   UNL     1       3.465   2.989  19.795  0.00  0.00    +0.000 A 
ATOM     13  C   UNL     1       2.158   3.467  19.821  0.00  0.00    +0.000 A 
ATOM     14 CL   UNL     1       1.099   2.995  21.092  0.00  0.00    +0.000 Cl
ATOM     15  C   UNL     1       1.700   4.325  18.823  0.00  0.00    +0.000 A 
ATOM     16  C   UNL     1       2.560   4.708  17.790  0.00  0.00    +0.000 A 
ENDBRANCH   9  10
ENDBRANCH   7   9
ENDBRANCH   5   7
ENDBRANCH   1   2
BRANCH   1  18
ATOM     17  N   UNL     1       9.129   9.915  18.821  0.00  0.00    +0.000 N 
ATOM     18  C   UNL     1       8.199   9.141  18.168  0.00  0.00    +0.000 C 
ATOM     19  O   UNL     1       7.312   9.626  17.464  0.00  0.00    +0.000 OA
ATOM     20  H   UNL     1       9.779   9.507  19.495  0.00  0.00    +0.000 HD
BRANCH  17  23
ATOM     21  C   UNL     1       9.896  12.051  18.045  0.00  0.00    +0.000 C 
ATOM     22  O   UNL     1      10.867  11.517  17.506  0.00  0.00    +0.000 OA
ATOM     23  N   UNL     1       8.995  11.305  18.779  0.00  0.00    +0.000 N 
ATOM     24  H   UNL     1       8.158  11.709  19.198  0.00  0.00    +0.000 HD
BRANCH  21  29
ATOM     25  C   UNL     1      10.792  17.035  17.463  0.00  0.00    +0.000 C 
ATOM     26  C   UNL     1       9.999  15.793  17.691  0.00  0.00    +0.000 A 
ATOM     27  C   UNL     1       8.638  15.743  17.907  0.00  0.00    +0.000 A 
ATOM     28  S   UNL     1       8.062  14.148  18.133  0.00  0.00    +0.000 S 
ATOM     29  C   UNL     1       9.628  13.484  17.954  0.00  0.00    +0.000 A 
ATOM     30  C   UNL     1      10.561  14.476  17.716  0.00  0.00    +0.000 A 
ENDBRANCH  21  29
ENDBRANCH  17  23
ENDBRANCH   1  18
TORSDOF 7
ENDMDL
MODEL 2
REMARK VINA RESULT:      -7.2      0.818      1.091
REMARK  Name = 
REMARK  8 active torsions:
REMARK  status: ('A' for Active; 'I' for Inactive)
REMARK    1  A    between atoms: C_1  and  C_2
REMARK    2  A    between atoms: C_5  and  C_6
REMARK    3  A    between atoms: N_8  and  N_9
REMARK    4  A    between atoms: C_10  and  C_12
REMARK    5  A    between atoms: C_12  and  N_13
REMARK    6  A    between atoms: C_16  and  N_17
REMARK    7  A    between atoms: N_17  and  C_18
REMARK    8  A    between atoms: C_18  and  C_19
REMARK                            x       y       z     vdW  Elec       q    Type
REMARK                         _______ _______ _______ _____ _____    ______ ____
ROOT
ATOM      1  C   UNL     1       8.242   7.488  18.214  0.00  0.00    +0.000 C 
ENDROOT
BRANCH   1   2
ATOM      2  N   UNL     1       6.989   6.696  18.122  0.00  0.00    +0.000 NA
ATOM      3  C   UNL     1       7.113   5.472  18.943  0.00  0.00    +0.000 C 
ATOM      4  C   UNL     1       7.780   4.454  18.034  0.00  0.00    +0.000 C 
ATOM      5  C   UNL     1       7.100   4.693  16.688  0.00  0.00    +0.000 C 
ATOM      6  C   UNL     1       6.723   6.194  16.754  0.00  0.00    +0.000 C 
BRANCH   5   7
ATOM      7  N   UNL     1       5.949   3.789  16.545  0.00  0.00    +0.000 NA
ATOM      8  H   UNL     1       5.925   3.130  17.324  0.00  0.00    +0.000 HD
BRANCH   7   9
ATOM      9  C   UNL     1       4.672   4.504  16.499  0.00  0.00    +0.000 C 
BRANCH   9  10
ATOM     10  C   UNL     1       3.779   4.092  17.647  0.00  0.00    +0.000 A 
ATOM     11  C   UNL     1       4.252   3.226  18.646  0.00  0.00    +0.000 A 
ATOM     12  C   UNL     1       3.427   2.853  19.709  0.00  0.00    +0.000 A 
ATOM     13  C   UNL     1       2.125   3.342  19.779  0.00  0.00    +0.000 A 
ATOM     14 CL   UNL     1       1.108   2.882  21.088  0.00  0.00    +0.000 Cl
ATOM     15  C   UNL     1       1.640   4.203  18.796  0.00  0.00    +0.000 A 
ATOM     16  C   UNL     1       2.466   4.577  17.733  0.00  0.00    +0.000 A 
ENDBRANCH   9  10
ENDBRANCH   7   9
ENDBRANCH   5   7
ENDBRANCH   1   2
BRANCH   1  18
ATOM     17  N   UNL     1       9.018   9.803  18.444  0.00  0.00    +0.000 N 
ATOM     18  C   UNL     1       8.045   8.977  17.932  0.00  0.00    +0.000 C 
ATOM     19  O   UNL     1       7.118   9.398  17.239  0.00  0.00    +0.000 OA
ATOM     20  H   UNL     1       9.707   9.458  19.114  0.00  0.00    +0.000 HD
BRANCH  17  23
ATOM     21  C   UNL     1       9.923  12.015  18.651  0.00  0.00    +0.000 C 
ATOM     22  O   UNL     1      10.914  11.566  19.229  0.00  0.00    +0.000 OA
ATOM     23  N   UNL     1       8.890  11.183  18.268  0.00  0.00    +0.000 N 
ATOM     24  H   UNL     1       8.078  11.515  17.747  0.00  0.00    +0.000 HD
BRANCH  21  29
ATOM     25  C   UNL     1       7.763  16.624  18.395  0.00  0.00    +0.000 C 
ATOM     26  C   UNL     1       8.803  15.575  18.195  0.00  0.00    +0.000 A 
ATOM     27  C   UNL     1      10.012  15.760  17.559  0.00  0.00    +0.000 A 
ATOM     28  S   UNL     1      10.959  14.337  17.508  0.00  0.00    +0.000 S 
ATOM     29  C   UNL     1       9.765  13.431  18.333  0.00  0.00    +0.000 A 
ATOM     30  C   UNL     1       8.674  14.221  18.643  0.00  0.00    +0.000 A 
ENDBRANCH  21  29
ENDBRANCH  17  23
ENDBRANCH   1  18
TORSDOF 7
ENDMDL
MODEL 3
REMARK VINA RESULT:      -7.1      1.888      2.400
REMARK  Name = 
REMARK  8 active torsions:
REMARK  status: ('A' for Active; 'I' for Inactive)
REMARK    1  A    between atoms: C_1  and  C_2
REMARK    2  A    between atoms: C_5  and  C_6
REMARK    3  A    between atoms: N_8  and  N_9
REMARK    4  A    between atoms: C_10  and  C_12
REMARK    5  A    between atoms: C_12  and  N_13
REMARK    6  A    between atoms: C_16  and  N_17
REMARK    7  A    between atoms: N_17  and  C_18
REMARK    8  A    between atoms: C_18  and  C_19
REMARK                            x       y       z     vdW  Elec       q    Type
REMARK                         _______ _______ _______ _____ _____    ______ ____
ROOT
ATOM      1  C   UNL     1       7.218   7.466  17.106  0.00  0.00    +0.000 C 
ENDROOT
BRANCH   1   2
ATOM      2  N   UNL     1       6.608   6.313  17.815  0.00  0.00    +0.000 NA
ATOM      3  C   UNL     1       7.470   5.121  17.659  0.00  0.00    +0.000 C 
ATOM      4  C   UNL     1       7.040   4.493  16.345  0.00  0.00    +0.000 C 
ATOM      5  C   UNL     1       5.520   4.633  16.375  0.00  0.00    +0.000 C 
ATOM      6  C   UNL     1       5.308   5.902  17.237  0.00  0.00    +0.000 C 
BRANCH   5   7
ATOM      7  N   UNL     1       4.919   3.414  16.939  0.00  0.00    +0.000 NA
ATOM      8  H   UNL     1       5.212   3.299  17.910  0.00  0.00    +0.000 HD
BRANCH   7   9
ATOM      9  C   UNL     1       3.456   3.432  16.891  0.00  0.00    +0.000 C 
BRANCH   9  10
ATOM     10  C   UNL     1       2.868   3.224  18.267  0.00  0.00    +0.000 A 
ATOM     11  C   UNL     1       1.529   3.557  18.531  0.00  0.00    +0.000 A 
ATOM     12  C   UNL     1       0.987   3.356  19.802  0.00  0.00    +0.000 A 
ATOM     13  C   UNL     1       1.778   2.823  20.817  0.00  0.00    +0.000 A 
ATOM     14 CL   UNL     1       1.110   2.578  22.383  0.00  0.00    +0.000 Cl
ATOM     15  C   UNL     1       3.108   2.487  20.572  0.00  0.00    +0.000 A 
ATOM     16  C   UNL     1       3.651   2.686  19.300  0.00  0.00    +0.000 A 
ENDBRANCH   9  10
ENDBRANCH   7   9
ENDBRANCH   5   7
ENDBRANCH   1   2
BRANCH   1  18
ATOM     17  N   UNL     1       8.154   9.665  17.657  0.00  0.00    +0.000 N 
ATOM     18  C   UNL     1       8.102   8.335  18.000  0.00  0.00    +0.000 C 
ATOM     19  O   UNL     1       8.672   7.886  18.997  0.00  0.00    +0.000 OA
ATOM     20  H   UNL     1       7.780   9.997  16.766  0.00  0.00    +0.000 HD
BRANCH  17  23
ATOM     21  C   UNL     1       8.917  11.880  18.172  0.00  0.00    +0.000 C 
ATOM     22  O   UNL     1       8.223  12.341  17.264  0.00  0.00    +0.000 OA
ATOM     23  N   UNL     1       8.975  10.519  18.398  0.00  0.00    +0.000 N 
ATOM     24  H   UNL     1       9.503  10.110  19.168  0.00  0.00    +0.000 HD
BRANCH  21  29
ATOM     25  C   UNL     1      10.048  14.982  22.054  0.00  0.00    +0.000 C 
ATOM     26  C   UNL     1      10.282  14.150  20.840  0.00  0.00    +0.000 A 
ATOM     27  C   UNL     1      11.495  13.990  20.203  0.00  0.00    +0.000 A 
ATOM     28  S   UNL     1      11.397  12.967  18.837  0.00  0.00    +0.000 S 
ATOM     29  C   UNL     1       9.718  12.718  19.059  0.00  0.00    +0.000 A 
ATOM     30  C   UNL     1       9.261  13.404  20.169  0.00  0.00    +0.000 A 
ENDBRANCH  21  29
ENDBRANCH  17  23
ENDBRANCH   1  18
TORSDOF 7
ENDMDL
MODEL 4
REMARK VINA RESULT:      -7.1      3.536      4.714
REMARK  Name = 
REMARK  8 active torsions:
REMARK  status: ('A' for Active; 'I' for Inactive)
REMARK    1  A    between atoms: C_1  and  C_2
REMARK    2  A    between atoms: C_5  and  C_6
REMARK    3  A    between atoms: N_8  and  N_9
REMARK    4  A    between atoms: C_10  and  C_12
REMARK    5  A    between atoms: C_12  and  N_13
REMARK    6  A    between atoms: C_16  and  N_17
REMARK    7  A    between atoms: N_17  and  C_18
REMARK    8  A    between atoms: C_18  and  C_19
REMARK                            x       y       z     vdW  Elec       q    Type
REMARK                         _______ _______ _______ _____ _____    ______ ____
ROOT
ATOM      1  C   UNL     1       6.771   4.450  18.390  0.00  0.00    +0.000 C 
ENDROOT
BRANCH   1   2
ATOM      2  N   UNL     1       5.304   4.488  18.618  0.00  0.00    +0.000 NA
ATOM      3  C   UNL     1       4.597   4.288  17.334  0.00  0.00    +0.000 C 
ATOM      4  C   UNL     1       4.499   5.673  16.719  0.00  0.00    +0.000 C 
ATOM      5  C   UNL     1       4.171   6.562  17.916  0.00  0.00    +0.000 C 
ATOM      6  C   UNL     1       4.828   5.806  19.097  0.00  0.00    +0.000 C 
BRANCH   5   7
ATOM      7  N   UNL     1       2.713   6.717  18.035  0.00  0.00    +0.000 NA
ATOM      8  H   UNL     1       2.397   6.347  18.932  0.00  0.00    +0.000 HD
BRANCH   7   9
ATOM      9  C   UNL     1       2.283   8.112  17.928  0.00  0.00    +0.000 C 
BRANCH   9  10
ATOM     10  C   UNL     1       1.593   8.565  19.193  0.00  0.00    +0.000 A 
ATOM     11  C   UNL     1       1.725   7.830  20.383  0.00  0.00    +0.000 A 
ATOM     12  C   UNL     1       1.091   8.255  21.552  0.00  0.00    +0.000 A 
ATOM     13  C   UNL     1       0.322   9.416  21.540  0.00  0.00    +0.000 A 
ATOM     14 CL   UNL     1      -0.460   9.939  22.981  0.00  0.00    +0.000 Cl
ATOM     15  C   UNL     1       0.181  10.158  20.369  0.00  0.00    +0.000 A 
ATOM     16  C   UNL     1       0.816   9.733  19.199  0.00  0.00    +0.000 A 
ENDBRANCH   9  10
ENDBRANCH   7   9
ENDBRANCH   5   7
ENDBRANCH   1   2
BRANCH   1  18
ATOM     17  N   UNL     1       7.800   6.670  18.224  0.00  0.00    +0.000 N 
ATOM     18  C   UNL     1       7.522   5.607  19.050  0.00  0.00    +0.000 C 
ATOM     19  O   UNL     1       7.796   5.613  20.251  0.00  0.00    +0.000 OA
ATOM     20  H   UNL     1       7.679   6.601  17.212  0.00  0.00    +0.000 HD
BRANCH  17  23
ATOM     21  C   UNL     1       8.363   9.001  18.177  0.00  0.00    +0.000 C 
ATOM     22  O   UNL     1       7.666   9.159  17.174  0.00  0.00    +0.000 OA
ATOM     23  N   UNL     1       8.523   7.750  18.737  0.00  0.00    +0.000 N 
ATOM     24  H   UNL     1       9.056   7.592  19.593  0.00  0.00    +0.000 HD
BRANCH  21  29
ATOM     25  C   UNL     1       9.757  12.220  21.875  0.00  0.00    +0.000 C 
ATOM     26  C   UNL     1       9.734  11.605  20.517  0.00  0.00    +0.000 A 
ATOM     27  C   UNL     1      10.480  12.027  19.437  0.00  0.00    +0.000 A 
ATOM     28  S   UNL     1      10.201  11.092  18.032  0.00  0.00    +0.000 S 
ATOM     29  C   UNL     1       9.063  10.100  18.837  0.00  0.00    +0.000 A 
ATOM     30  C   UNL     1       8.919  10.484  20.157  0.00  0.00    +0.000 A 
ENDBRANCH  21  29
ENDBRANCH  17  23
ENDBRANCH   1  18
TORSDOF 7
ENDMDL
MODEL 5
REMARK VINA RESULT:      -7.0      6.834      8.857
REMARK  Name = 
REMARK  8 active torsions:
REMARK  status: ('A' for Active; 'I' for Inactive)
REMARK    1  A    between atoms: C_1  and  C_2
REMARK    2  A    between atoms: C_5  and  C_6
REMARK    3  A    between atoms: N_8  and  N_9
REMARK    4  A    between atoms: C_10  and  C_12
REMARK    5  A    between atoms: C_12  and  N_13
REMARK    6  A    between atoms: C_16  and  N_17
REMARK    7  A    between atoms: N_17  and  C_18
REMARK    8  A    between atoms: C_18  and  C_19
REMARK                            x       y       z     vdW  Elec       q    Type
REMARK                         _______ _______ _______ _____ _____    ______ ____
ROOT
ATOM      1  C   UNL     1       3.160   2.135  20.443  0.00  0.00    +0.000 C 
ENDROOT
BRANCH   1   2
ATOM      2  N   UNL     1       2.783   3.272  21.321  0.00  0.00    +0.000 NA
ATOM      3  C   UNL     1       1.311   3.334  21.450  0.00  0.00    +0.000 C 
ATOM      4  C   UNL     1       0.847   4.151  20.256  0.00  0.00    +0.000 C 
ATOM      5  C   UNL     1       1.893   5.259  20.166  0.00  0.00    +0.000 C 
ATOM      6  C   UNL     1       3.158   4.588  20.755  0.00  0.00    +0.000 C 
BRANCH   5   7
ATOM      7  N   UNL     1       1.432   6.439  20.916  0.00  0.00    +0.000 NA
ATOM      8  H   UNL     1       1.872   6.459  21.836  0.00  0.00    +0.000 HD
BRANCH   7   9
ATOM      9  C   UNL     1       1.731   7.696  20.227  0.00  0.00    +0.000 C 
BRANCH   9  10
ATOM     10  C   UNL     1       1.019   8.855  20.885  0.00  0.00    +0.000 A 
ATOM     11  C   UNL     1       0.732  10.023  20.160  0.00  0.00    +0.000 A 
ATOM     12  C   UNL     1       0.068  11.090  20.770  0.00  0.00    +0.000 A 
ATOM     13  C   UNL     1      -0.313  10.996  22.106  0.00  0.00    +0.000 A 
ATOM     14 CL   UNL     1      -1.130  12.311  22.857  0.00  0.00    +0.000 Cl
ATOM     15  C   UNL     1      -0.037   9.844  22.840  0.00  0.00    +0.000 A 
ATOM     16  C   UNL     1       0.627   8.776  22.230  0.00  0.00    +0.000 A 
ENDBRANCH   9  10
ENDBRANCH   7   9
ENDBRANCH   5   7
ENDBRANCH   1   2
BRANCH   1  18
ATOM     17  N   UNL     1       3.614   2.509  18.062  0.00  0.00    +0.000 N 
ATOM     18  C   UNL     1       4.138   2.519  19.333  0.00  0.00    +0.000 C 
ATOM     19  O   UNL     1       5.294   2.876  19.569  0.00  0.00    +0.000 OA
ATOM     20  H   UNL     1       2.700   2.096  17.870  0.00  0.00    +0.000 HD
BRANCH  17  23
ATOM     21  C   UNL     1       4.562   4.110  16.549  0.00  0.00    +0.000 C 
ATOM     22  O   UNL     1       3.859   4.999  17.033  0.00  0.00    +0.000 OA
ATOM     23  N   UNL     1       4.454   2.805  16.986  0.00  0.00    +0.000 N 
ATOM     24  H   UNL     1       5.052   2.056  16.639  0.00  0.00    +0.000 HD
BRANCH  21  29
ATOM     25  C   UNL     1       6.866   3.786  12.014  0.00  0.00    +0.000 C 
ATOM     26  C   UNL     1       6.635   4.240  13.415  0.00  0.00    +0.000 A 
ATOM     27  C   UNL     1       7.437   5.119  14.111  0.00  0.00    +0.000 A 
ATOM     28  S   UNL     1       6.875   5.414  15.700  0.00  0.00    +0.000 S 
ATOM     29  C   UNL     1       5.542   4.361  15.496  0.00  0.00    +0.000 A 
ATOM     30  C   UNL     1       5.537   3.811  14.228  0.00  0.00    +0.000 A 
ENDBRANCH  21  29
ENDBRANCH  17  23
ENDBRANCH   1  18
TORSDOF 7
ENDMDL
MODEL 6
REMARK VINA RESULT:      -6.9      3.381      4.152
REMARK  Name = 
REMARK  8 active torsions:
REMARK  status: ('A' for Active; 'I' for Inactive)
REMARK    1  A    between atoms: C_1  and  C_2
REMARK    2  A    between atoms: C_5  and  C_6
REMARK    3  A    between atoms: N_8  and  N_9
REMARK    4  A    between atoms: C_10  and  C_12
REMARK    5  A    between atoms: C_12  and  N_13
REMARK    6  A    between atoms: C_16  and  N_17
REMARK    7  A    between atoms: N_17  and  C_18
REMARK    8  A    between atoms: C_18  and  C_19
REMARK                            x       y       z     vdW  Elec       q    Type
REMARK                         _______ _______ _______ _____ _____    ______ ____
ROOT
ATOM      1  C   UNL     1       7.335   5.458  18.372  0.00  0.00    +0.000 C 
ENDROOT
BRANCH   1   2
ATOM      2  N   UNL     1       6.035   5.463  19.091  0.00  0.00    +0.000 NA
ATOM      3  C   UNL     1       5.323   4.192  18.839  0.00  0.00    +0.000 C 
ATOM      4  C   UNL     1       4.564   4.417  17.543  0.00  0.00    +0.000 C 
ATOM      5  C   UNL     1       4.044   5.845  17.688  0.00  0.00    +0.000 C 
ATOM      6  C   UNL     1       5.108   6.507  18.599  0.00  0.00    +0.000 C 
BRANCH   5   7
ATOM      7  N   UNL     1       2.689   5.825  18.260  0.00  0.00    +0.000 NA
ATOM      8  H   UNL     1       2.389   4.862  18.410  0.00  0.00    +0.000 HD
BRANCH   7   9
ATOM      9  C   UNL     1       2.603   6.544  19.532  0.00  0.00    +0.000 C 
BRANCH   9  10
ATOM     10  C   UNL     1       1.981   7.908  19.342  0.00  0.00    +0.000 A 
ATOM     11  C   UNL     1       1.460   8.617  20.437  0.00  0.00    +0.000 A 
ATOM     12  C   UNL     1       0.893   9.880  20.258  0.00  0.00    +0.000 A 
ATOM     13  C   UNL     1       0.841  10.442  18.985  0.00  0.00    +0.000 A 
ATOM     14 CL   UNL     1       0.140  11.998  18.765  0.00  0.00    +0.000 Cl
ATOM     15  C   UNL     1       1.353   9.753  17.887  0.00  0.00    +0.000 A 
ATOM     16  C   UNL     1       1.923   8.490  18.066  0.00  0.00    +0.000 A 
ENDBRANCH   9  10
ENDBRANCH   7   9
ENDBRANCH   5   7
ENDBRANCH   1   2
BRANCH   1  18
ATOM     17  N   UNL     1       8.208   7.743  18.548  0.00  0.00    +0.000 N 
ATOM     18  C   UNL     1       7.673   6.794  17.710  0.00  0.00    +0.000 C 
ATOM     19  O   UNL     1       7.537   6.980  16.499  0.00  0.00    +0.000 OA
ATOM     20  H   UNL     1       8.200   7.620  19.561  0.00  0.00    +0.000 HD
BRANCH  17  23
ATOM     21  C   UNL     1       8.990   9.987  18.872  0.00  0.00    +0.000 C 
ATOM     22  O   UNL     1       9.077   9.792  20.085  0.00  0.00    +0.000 OA
ATOM     23  N   UNL     1       8.504   9.007  18.030  0.00  0.00    +0.000 N 
ATOM     24  H   UNL     1       8.462   9.120  17.017  0.00  0.00    +0.000 HD
BRANCH  21  29
ATOM     25  C   UNL     1      12.016  13.578  16.890  0.00  0.00    +0.000 C 
ATOM     26  C   UNL     1      10.745  12.926  17.317  0.00  0.00    +0.000 A 
ATOM     27  C   UNL     1       9.486  13.475  17.193  0.00  0.00    +0.000 A 
ATOM     28  S   UNL     1       8.255  12.450  17.791  0.00  0.00    +0.000 S 
ATOM     29  C   UNL     1       9.383  11.244  18.241  0.00  0.00    +0.000 A 
ATOM     30  C   UNL     1      10.671  11.631  17.923  0.00  0.00    +0.000 A 
ENDBRANCH  21  29
ENDBRANCH  17  23
ENDBRANCH   1  18
TORSDOF 7
ENDMDL
MODEL 7
REMARK VINA RESULT:      -6.9      1.495      1.695
REMARK  Name = 
REMARK  8 active torsions:
REMARK  status: ('A' for Active; 'I' for Inactive)
REMARK    1  A    between atoms: C_1  and  C_2
REMARK    2  A    between atoms: C_5  and  C_6
REMARK    3  A    between atoms: N_8  and  N_9
REMARK    4  A    between atoms: C_10  and  C_12
REMARK    5  A    between atoms: C_12  and  N_13
REMARK    6  A    between atoms: C_16  and  N_17
REMARK    7  A    between atoms: N_17  and  C_18
REMARK    8  A    between atoms: C_18  and  C_19
REMARK                            x       y       z     vdW  Elec       q    Type
REMARK                         _______ _______ _______ _____ _____    ______ ____
ROOT
ATOM      1  C   UNL     1       7.993   7.487  17.256  0.00  0.00    +0.000 C 
ENDROOT
BRANCH   1   2
ATOM      2  N   UNL     1       6.810   6.650  17.579  0.00  0.00    +0.000 NA
ATOM      3  C   UNL     1       7.206   5.568  18.507  0.00  0.00    +0.000 C 
ATOM      4  C   UNL     1       7.708   4.448  17.613  0.00  0.00    +0.000 C 
ATOM      5  C   UNL     1       6.717   4.459  16.453  0.00  0.00    +0.000 C 
ATOM      6  C   UNL     1       6.265   5.940  16.400  0.00  0.00    +0.000 C 
BRANCH   5   7
ATOM      7  N   UNL     1       5.628   3.507  16.719  0.00  0.00    +0.000 NA
ATOM      8  H   UNL     1       5.785   3.041  17.613  0.00  0.00    +0.000 HD
BRANCH   7   9
ATOM      9  C   UNL     1       4.312   4.148  16.751  0.00  0.00    +0.000 C 
BRANCH   9  10
ATOM     10  C   UNL     1       3.556   3.770  18.004  0.00  0.00    +0.000 A 
ATOM     11  C   UNL     1       3.531   4.632  19.112  0.00  0.00    +0.000 A 
ATOM     12  C   UNL     1       2.826   4.283  20.265  0.00  0.00    +0.000 A 
ATOM     13  C   UNL     1       2.142   3.071  20.319  0.00  0.00    +0.000 A 
ATOM     14 CL   UNL     1       1.275   2.639  21.740  0.00  0.00    +0.000 Cl
ATOM     15  C   UNL     1       2.156   2.204  19.228  0.00  0.00    +0.000 A 
ATOM     16  C   UNL     1       2.861   2.554  18.073  0.00  0.00    +0.000 A 
ENDBRANCH   9  10
ENDBRANCH   7   9
ENDBRANCH   5   7
ENDBRANCH   1   2
BRANCH   1  18
ATOM     17  N   UNL     1       8.982   9.110  18.806  0.00  0.00    +0.000 N 
ATOM     18  C   UNL     1       7.965   8.866  17.915  0.00  0.00    +0.000 C 
ATOM     19  O   UNL     1       7.128   9.721  17.616  0.00  0.00    +0.000 OA
ATOM     20  H   UNL     1       9.591   8.358  19.134  0.00  0.00    +0.000 HD
BRANCH  17  23
ATOM     21  C   UNL     1       9.771  11.367  18.992  0.00  0.00    +0.000 C 
ATOM     22  O   UNL     1      10.506  11.201  18.018  0.00  0.00    +0.000 OA
ATOM     23  N   UNL     1       9.004  10.331  19.485  0.00  0.00    +0.000 N 
ATOM     24  H   UNL     1       8.351  10.447  20.261  0.00  0.00    +0.000 HD
BRANCH  21  29
ATOM     25  C   UNL     1       8.995  16.356  19.691  0.00  0.00    +0.000 C 
ATOM     26  C   UNL     1       9.305  14.944  20.054  0.00  0.00    +0.000 A 
ATOM     27  C   UNL     1       9.604  14.493  21.322  0.00  0.00    +0.000 A 
ATOM     28  S   UNL     1       9.910  12.811  21.373  0.00  0.00    +0.000 S 
ATOM     29  C   UNL     1       9.656  12.645  19.689  0.00  0.00    +0.000 A 
ATOM     30  C   UNL     1       9.334  13.862  19.117  0.00  0.00    +0.000 A 
ENDBRANCH  21  29
ENDBRANCH  17  23
ENDBRANCH   1  18
TORSDOF 7
ENDMDL
MODEL 8
REMARK VINA RESULT:      -6.9      1.621      1.973
REMARK  Name = 
REMARK  8 active torsions:
REMARK  status: ('A' for Active; 'I' for Inactive)
REMARK    1  A    between atoms: C_1  and  C_2
REMARK    2  A    between atoms: C_5  and  C_6
REMARK    3  A    between atoms: N_8  and  N_9
REMARK    4  A    between atoms: C_10  and  C_12
REMARK    5  A    between atoms: C_12  and  N_13
REMARK    6  A    between atoms: C_16  and  N_17
REMARK    7  A    between atoms: N_17  and  C_18
REMARK    8  A    between atoms: C_18  and  C_19
REMARK                            x       y       z     vdW  Elec       q    Type
REMARK                         _______ _______ _______ _____ _____    ______ ____
ROOT
ATOM      1  C   UNL     1       7.922   6.578  18.470  0.00  0.00    +0.000 C 
ENDROOT
BRANCH   1   2
ATOM      2  N   UNL     1       6.491   6.228  18.656  0.00  0.00    +0.000 NA
ATOM      3  C   UNL     1       6.349   4.760  18.764  0.00  0.00    +0.000 C 
ATOM      4  C   UNL     1       6.245   4.268  17.331  0.00  0.00    +0.000 C 
ATOM      5  C   UNL     1       5.353   5.315  16.669  0.00  0.00    +0.000 C 
ATOM      6  C   UNL     1       5.652   6.593  17.491  0.00  0.00    +0.000 C 
BRANCH   5   7
ATOM      7  N   UNL     1       3.949   4.878  16.723  0.00  0.00    +0.000 NA
ATOM      8  H   UNL     1       3.900   3.903  17.022  0.00  0.00    +0.000 HD
BRANCH   7   9
ATOM      9  C   UNL     1       3.141   5.688  17.636  0.00  0.00    +0.000 C 
BRANCH   9  10
ATOM     10  C   UNL     1       2.610   4.851  18.776  0.00  0.00    +0.000 A 
ATOM     11  C   UNL     1       2.029   3.595  18.533  0.00  0.00    +0.000 A 
ATOM     12  C   UNL     1       1.546   2.821  19.589  0.00  0.00    +0.000 A 
ATOM     13  C   UNL     1       1.639   3.297  20.895  0.00  0.00    +0.000 A 
ATOM     14 CL   UNL     1       1.042   2.343  22.197  0.00  0.00    +0.000 Cl
ATOM     15  C   UNL     1       2.213   4.540  21.155  0.00  0.00    +0.000 A 
ATOM     16  C   UNL     1       2.698   5.314  20.098  0.00  0.00    +0.000 A 
ENDBRANCH   9  10
ENDBRANCH   7   9
ENDBRANCH   5   7
ENDBRANCH   1   2
BRANCH   1  18
ATOM     17  N   UNL     1       8.802   8.804  19.005  0.00  0.00    +0.000 N 
ATOM     18  C   UNL     1       8.148   8.037  18.071  0.00  0.00    +0.000 C 
ATOM     19  O   UNL     1       7.826   8.472  16.964  0.00  0.00    +0.000 OA
ATOM     20  H   UNL     1       8.951   8.467  19.957  0.00  0.00    +0.000 HD
BRANCH  17  23
ATOM     21  C   UNL     1       9.363  11.009  19.765  0.00  0.00    +0.000 C 
ATOM     22  O   UNL     1       9.408  10.608  20.929  0.00  0.00    +0.000 OA
ATOM     23  N   UNL     1       9.009  10.160  18.736  0.00  0.00    +0.000 N 
ATOM     24  H   UNL     1       9.007  10.449  17.758  0.00  0.00    +0.000 HD
BRANCH  21  29
ATOM     25  C   UNL     1      11.290  15.716  20.097  0.00  0.00    +0.000 C 
ATOM     26  C   UNL     1      10.545  14.569  19.504  0.00  0.00    +0.000 A 
ATOM     27  C   UNL     1       9.885  14.586  18.294  0.00  0.00    +0.000 A 
ATOM     28  S   UNL     1       9.136  13.093  17.927  0.00  0.00    +0.000 S 
ATOM     29  C   UNL     1       9.672  12.386  19.389  0.00  0.00    +0.000 A 
ATOM     30  C   UNL     1      10.418  13.286  20.128  0.00  0.00    +0.000 A 
ENDBRANCH  21  29
ENDBRANCH  17  23
ENDBRANCH   1  18
TORSDOF 7
ENDMDL
MODEL 9
REMARK VINA RESULT:      -6.8      6.818      8.802
REMARK  Name = 
REMARK  8 active torsions:
REMARK  status: ('A' for Active; 'I' for Inactive)
REMARK    1  A    between atoms: C_1  and  C_2
REMARK    2  A    between atoms: C_5  and  C_6
REMARK    3  A    between atoms: N_8  and  N_9
REMARK    4  A    between atoms: C_10  and  C_12
REMARK    5  A    between atoms: C_12  and  N_13
REMARK    6  A    between atoms: C_16  and  N_17
REMARK    7  A    between atoms: N_17  and  C_18
REMARK    8  A    between atoms: C_18  and  C_19
REMARK                            x       y       z     vdW  Elec       q    Type
REMARK                         _______ _______ _______ _____ _____    ______ ____
ROOT
ATOM      1  C   UNL     1       3.215   2.064  20.738  0.00  0.00    +0.000 C 
ENDROOT
BRANCH   1   2
ATOM      2  N   UNL     1       2.684   3.240  21.474  0.00  0.00    +0.000 NA
ATOM      3  C   UNL     1       1.206   3.207  21.463  0.00  0.00    +0.000 C 
ATOM      4  C   UNL     1       0.808   3.888  20.165  0.00  0.00    +0.000 C 
ATOM      5  C   UNL     1       1.785   5.057  20.072  0.00  0.00    +0.000 C 
ATOM      6  C   UNL     1       3.028   4.528  20.830  0.00  0.00    +0.000 C 
BRANCH   5   7
ATOM      7  N   UNL     1       1.182   6.258  20.669  0.00  0.00    +0.000 NA
ATOM      8  H   UNL     1       1.008   6.103  21.662  0.00  0.00    +0.000 HD
BRANCH   7   9
ATOM      9  C   UNL     1       2.026   7.446  20.522  0.00  0.00    +0.000 C 
BRANCH   9  10
ATOM     10  C   UNL     1       1.238   8.603  19.954  0.00  0.00    +0.000 A 
ATOM     11  C   UNL     1       0.277   9.267  20.734  0.00  0.00    +0.000 A 
ATOM     12  C   UNL     1      -0.444  10.340  20.207  0.00  0.00    +0.000 A 
ATOM     13  C   UNL     1      -0.211  10.756  18.898  0.00  0.00    +0.000 A 
ATOM     14 CL   UNL     1      -1.101  12.077  18.249  0.00  0.00    +0.000 Cl
ATOM     15  C   UNL     1       0.739  10.108  18.110  0.00  0.00    +0.000 A 
ATOM     16  C   UNL     1       1.462   9.035  18.638  0.00  0.00    +0.000 A 
ENDBRANCH   9  10
ENDBRANCH   7   9
ENDBRANCH   5   7
ENDBRANCH   1   2
BRANCH   1  18
ATOM     17  N   UNL     1       3.562   2.424  18.337  0.00  0.00    +0.000 N 
ATOM     18  C   UNL     1       4.144   2.435  19.582  0.00  0.00    +0.000 C 
ATOM     19  O   UNL     1       5.312   2.785  19.764  0.00  0.00    +0.000 OA
ATOM     20  H   UNL     1       2.637   2.017  18.189  0.00  0.00    +0.000 HD
BRANCH  17  23
ATOM     21  C   UNL     1       4.460   4.012  16.780  0.00  0.00    +0.000 C 
ATOM     22  O   UNL     1       3.794   4.910  17.298  0.00  0.00    +0.000 OA
ATOM     23  N   UNL     1       4.353   2.708  17.222  0.00  0.00    +0.000 N 
ATOM     24  H   UNL     1       4.924   1.950  16.846  0.00  0.00    +0.000 HD
BRANCH  21  29
ATOM     25  C   UNL     1       6.562   3.627  12.153  0.00  0.00    +0.000 C 
ATOM     26  C   UNL     1       6.393   4.101  13.557  0.00  0.00    +0.000 A 
ATOM     27  C   UNL     1       7.223   4.991  14.205  0.00  0.00    +0.000 A 
ATOM     28  S   UNL     1       6.730   5.307  15.812  0.00  0.00    +0.000 S 
ATOM     29  C   UNL     1       5.392   4.249  15.682  0.00  0.00    +0.000 A 
ATOM     30  C   UNL     1       5.332   3.681  14.423  0.00  0.00    +0.000 A 
ENDBRANCH  21  29
ENDBRANCH  17  23
ENDBRANCH   1  18
TORSDOF 7
ENDMDL
