MODEL 1
REMARK VINA RESULT:      -8.5      0.000      0.000
REMARK  Name = 
REMARK  4 active torsions:
REMARK  status: ('A' for Active; 'I' for Inactive)
REMARK    1  A    between atoms: N_1  and  C_2
REMARK    2  A    between atoms: C_5  and  C_6
REMARK    3  A    between atoms: N_12  and  C_13
REMARK    4  A    between atoms: C_13  and  C_14
REMARK                            x       y       z     vdW  Elec       q    Type
REMARK                         _______ _______ _______ _____ _____    ______ ____
ROOT
ATOM      1  C   UNL     1       2.207   6.108  19.681  0.00  0.00    +0.000 A 
ATOM      2  C   UNL     1       1.673   5.522  20.804  0.00  0.00    +0.000 A 
ATOM      3  N   UNL     1       1.888   4.226  21.166  0.00  0.00    +0.000 NA
ATOM      4  C   UNL     1       2.703   3.505  20.328  0.00  0.00    +0.000 A 
ATOM      5  N   UNL     1       3.110   2.190  20.417  0.00  0.00    +0.000 NA
ATOM      6  C   UNL     1       3.882   1.996  19.373  0.00  0.00    +0.000 A 
ATOM      7  N   UNL     1       4.004   3.115  18.591  0.00  0.00    +0.000 N 
ATOM      8  C   UNL     1       3.244   4.097  19.199  0.00  0.00    +0.000 A 
ATOM      9  N   UNL     1       3.021   5.390  18.838  0.00  0.00    +0.000 NA
ENDROOT
BRANCH   1  13
ATOM     10  C   UNL     1       1.325  10.208  18.775  0.00  0.00    +0.000 A 
ATOM     11  C   UNL     1       1.011   9.679  20.009  0.00  0.00    +0.000 A 
ATOM     12  C   UNL     1       1.307   8.359  20.304  0.00  0.00    +0.000 A 
ATOM     13  C   UNL     1       1.906   7.525  19.366  0.00  0.00    +0.000 A 
ATOM     14  C   UNL     1       2.224   8.082  18.126  0.00  0.00    +0.000 A 
ATOM     15  C   UNL     1       1.946   9.406  17.840  0.00  0.00    +0.000 A 
BRANCH  10  16
ATOM     16  N   UNL     1       1.034  11.512  18.482  0.00  0.00    +0.000 N 
ATOM     17  H   UNL     1       1.714  12.232  18.653  0.00  0.00    +0.000 HD
ATOM     18  H   UNL     1       0.138  11.757  18.100  0.00  0.00    +0.000 HD
ENDBRANCH  10  16
ENDBRANCH   1  13
BRANCH   7  19
ATOM     19  C   UNL     1       4.784   3.210  17.369  0.00  0.00    +0.000 C 
BRANCH  19  20
ATOM     20  C   UNL     1       5.457   4.540  17.232  0.00  0.00    +0.000 A 
ATOM     21  C   UNL     1       5.206   5.404  16.199  0.00  0.00    +0.000 A 
ATOM     22  C   UNL     1       5.446   6.750  16.391  0.00  0.00    +0.000 A 
ATOM     23  C   UNL     1       6.470   7.148  17.174  0.00  0.00    +0.000 A 
ATOM     24  N   UNL     1       6.916   8.364  16.960  0.00  0.00    +0.000 NA
ATOM     25  C   UNL     1       7.930   8.622  17.751  0.00  0.00    +0.000 A 
ATOM     26  C   UNL     1       8.897   8.898  18.485  0.00  0.00    +0.000 A 
ATOM     27  C   UNL     1       8.127   7.159  18.715  0.00  0.00    +0.000 A 
ATOM     28  C   UNL     1       6.987   6.299  18.090  0.00  0.00    +0.000 A 
ATOM     29  C   UNL     1       6.336   4.986  18.203  0.00  0.00    +0.000 A 
ENDBRANCH  19  20
ENDBRANCH   7  19
TORSDOF 4
ENDMDL
MODEL 2
REMARK VINA RESULT:      -8.1      2.034      6.386
REMARK  Name = 
REMARK  4 active torsions:
REMARK  status: ('A' for Active; 'I' for Inactive)
REMARK    1  A    between atoms: N_1  and  C_2
REMARK    2  A    between atoms: C_5  and  C_6
REMARK    3  A    between atoms: N_12  and  C_13
REMARK    4  A    between atoms: C_13  and  C_14
REMARK                            x       y       z     vdW  Elec       q    Type
REMARK                         _______ _______ _______ _____ _____    ______ ____
ROOT
ATOM      1  C   UNL     1       3.837   4.091  17.181  0.00  0.00    +0.000 A 
ATOM      2  C   UNL     1       3.053   3.004  16.873  0.00  0.00    +0.000 A 
ATOM      3  N   UNL     1       1.985   2.597  17.613  0.00  0.00    +0.000 NA
ATOM      4  C   UNL     1       1.709   3.358  18.722  0.00  0.00    +0.000 A 
ATOM      5  N   UNL     1       0.708   3.211  19.660  0.00  0.00    +0.000 NA
ATOM      6  C   UNL     1       0.882   4.198  20.508  0.00  0.00    +0.000 A 
ATOM      7  N   UNL     1       1.952   4.991  20.185  0.00  0.00    +0.000 N 
ATOM      8  C   UNL     1       2.495   4.456  19.031  0.00  0.00    +0.000 A 
ATOM      9  N   UNL     1       3.566   4.855  18.292  0.00  0.00    +0.000 NA
ENDROOT
BRANCH   1  13
ATOM     10  C   UNL     1       7.166   5.143  14.687  0.00  0.00    +0.000 A 
ATOM     11  C   UNL     1       7.077   5.621  15.977  0.00  0.00    +0.000 A 
ATOM     12  C   UNL     1       6.008   5.271  16.784  0.00  0.00    +0.000 A 
ATOM     13  C   UNL     1       4.987   4.450  16.318  0.00  0.00    +0.000 A 
ATOM     14  C   UNL     1       5.100   3.969  15.013  0.00  0.00    +0.000 A 
ATOM     15  C   UNL     1       6.178   4.304  14.214  0.00  0.00    +0.000 A 
BRANCH  10  16
ATOM     16  N   UNL     1       8.222   5.486  13.888  0.00  0.00    +0.000 N 
ATOM     17  H   UNL     1       8.072   5.698  12.918  0.00  0.00    +0.000 HD
ATOM     18  H   UNL     1       9.151   5.524  14.267  0.00  0.00    +0.000 HD
ENDBRANCH  10  16
ENDBRANCH   1  13
BRANCH   7  19
ATOM     19  C   UNL     1       2.399   6.154  20.932  0.00  0.00    +0.000 C 
BRANCH  19  20
ATOM     20  C   UNL     1       1.884   7.432  20.348  0.00  0.00    +0.000 A 
ATOM     21  C   UNL     1       2.261   7.898  19.117  0.00  0.00    +0.000 A 
ATOM     22  C   UNL     1       1.411   8.756  18.447  0.00  0.00    +0.000 A 
ATOM     23  C   UNL     1       0.662   9.640  19.138  0.00  0.00    +0.000 A 
ATOM     24  N   UNL     1       0.246  10.688  18.466  0.00  0.00    +0.000 NA
ATOM     25  C   UNL     1      -0.437  11.489  19.249  0.00  0.00    +0.000 A 
ATOM     26  C   UNL     1      -1.087  12.272  19.966  0.00  0.00    +0.000 A 
ATOM     27  C   UNL     1      -0.443  10.680  20.817  0.00  0.00    +0.000 A 
ATOM     28  C   UNL     1       0.405   9.426  20.448  0.00  0.00    +0.000 A 
ATOM     29  C   UNL     1       0.934   8.180  21.021  0.00  0.00    +0.000 A 
ENDBRANCH  19  20
ENDBRANCH   7  19
TORSDOF 4
ENDMDL
MODEL 3
REMARK VINA RESULT:      -8.0      3.118      8.069
REMARK  Name = 
REMARK  4 active torsions:
REMARK  status: ('A' for Active; 'I' for Inactive)
REMARK    1  A    between atoms: N_1  and  C_2
REMARK    2  A    between atoms: C_5  and  C_6
REMARK    3  A    between atoms: N_12  and  C_13
REMARK    4  A    between atoms: C_13  and  C_14
REMARK                            x       y       z     vdW  Elec       q    Type
REMARK                         _______ _______ _______ _____ _____    ______ ____
ROOT
ATOM      1  C   UNL     1       3.590   5.912  18.222  0.00  0.00    +0.000 A 
ATOM      2  C   UNL     1       3.430   5.095  19.317  0.00  0.00    +0.000 A 
ATOM      3  N   UNL     1       2.700   5.426  20.418  0.00  0.00    +0.000 NA
ATOM      4  C   UNL     1       2.099   6.660  20.380  0.00  0.00    +0.000 A 
ATOM      5  N   UNL     1       1.303   7.277  21.323  0.00  0.00    +0.000 NA
ATOM      6  C   UNL     1       0.982   8.437  20.799  0.00  0.00    +0.000 A 
ATOM      7  N   UNL     1       1.530   8.625  19.557  0.00  0.00    +0.000 N 
ATOM      8  C   UNL     1       2.255   7.481  19.277  0.00  0.00    +0.000 A 
ATOM      9  N   UNL     1       2.991   7.150  18.181  0.00  0.00    +0.000 NA
ENDROOT
BRANCH   1  13
ATOM     10  C   UNL     1       5.968   4.633  14.889  0.00  0.00    +0.000 A 
ATOM     11  C   UNL     1       5.714   5.972  15.097  0.00  0.00    +0.000 A 
ATOM     12  C   UNL     1       4.956   6.384  16.179  0.00  0.00    +0.000 A 
ATOM     13  C   UNL     1       4.414   5.467  17.073  0.00  0.00    +0.000 A 
ATOM     14  C   UNL     1       4.690   4.117  16.851  0.00  0.00    +0.000 A 
ATOM     15  C   UNL     1       5.464   3.709  15.780  0.00  0.00    +0.000 A 
BRANCH  10  16
ATOM     16  N   UNL     1       6.718   4.224  13.820  0.00  0.00    +0.000 N 
ATOM     17  H   UNL     1       6.483   3.378  13.333  0.00  0.00    +0.000 HD
ATOM     18  H   UNL     1       7.509   4.766  13.520  0.00  0.00    +0.000 HD
ENDBRANCH  10  16
ENDBRANCH   1  13
BRANCH   7  19
ATOM     19  C   UNL     1       1.362   9.807  18.729  0.00  0.00    +0.000 C 
BRANCH  19  20
ATOM     20  C   UNL     1      -0.017  10.380  18.837  0.00  0.00    +0.000 A 
ATOM     21  C   UNL     1      -0.352  11.362  19.731  0.00  0.00    +0.000 A 
ATOM     22  C   UNL     1      -1.434  12.171  19.448  0.00  0.00    +0.000 A 
ATOM     23  C   UNL     1      -2.502  11.666  18.794  0.00  0.00    +0.000 A 
ATOM     24  N   UNL     1      -3.631  12.315  18.954  0.00  0.00    +0.000 NA
ATOM     25  C   UNL     1      -4.598  11.713  18.305  0.00  0.00    +0.000 A 
ATOM     26  C   UNL     1      -5.539  11.162  17.702  0.00  0.00    +0.000 A 
ATOM     27  C   UNL     1      -3.821  10.333  17.529  0.00  0.00    +0.000 A 
ATOM     28  C   UNL     1      -2.369  10.543  18.054  0.00  0.00    +0.000 A 
ATOM     29  C   UNL     1      -1.016   9.973  17.971  0.00  0.00    +0.000 A 
ENDBRANCH  19  20
ENDBRANCH   7  19
TORSDOF 4
ENDMDL
MODEL 4
REMARK VINA RESULT:      -7.9      3.400      8.220
REMARK  Name = 
REMARK  4 active torsions:
REMARK  status: ('A' for Active; 'I' for Inactive)
REMARK    1  A    between atoms: N_1  and  C_2
REMARK    2  A    between atoms: C_5  and  C_6
REMARK    3  A    between atoms: N_12  and  C_13
REMARK    4  A    between atoms: C_13  and  C_14
REMARK                            x       y       z     vdW  Elec       q    Type
REMARK                         _______ _______ _______ _____ _____    ______ ____
ROOT
ATOM      1  C   UNL     1       3.140   6.326  18.560  0.00  0.00    +0.000 A 
ATOM      2  C   UNL     1       2.973   5.603  19.717  0.00  0.00    +0.000 A 
ATOM      3  N   UNL     1       2.243   6.028  20.786  0.00  0.00    +0.000 NA
ATOM      4  C   UNL     1       1.649   7.258  20.645  0.00  0.00    +0.000 A 
ATOM      5  N   UNL     1       0.854   7.955  21.531  0.00  0.00    +0.000 NA
ATOM      6  C   UNL     1       0.541   9.069  20.912  0.00  0.00    +0.000 A 
ATOM      7  N   UNL     1       1.093   9.151  19.660  0.00  0.00    +0.000 N 
ATOM      8  C   UNL     1       1.812   7.984  19.477  0.00  0.00    +0.000 A 
ATOM      9  N   UNL     1       2.549   7.559  18.415  0.00  0.00    +0.000 NA
ENDROOT
BRANCH   1  13
ATOM     10  C   UNL     1       5.528   4.743  15.366  0.00  0.00    +0.000 A 
ATOM     11  C   UNL     1       4.869   3.899  16.234  0.00  0.00    +0.000 A 
ATOM     12  C   UNL     1       4.089   4.411  17.257  0.00  0.00    +0.000 A 
ATOM     13  C   UNL     1       3.963   5.782  17.454  0.00  0.00    +0.000 A 
ATOM     14  C   UNL     1       4.631   6.620  16.559  0.00  0.00    +0.000 A 
ATOM     15  C   UNL     1       5.394   6.106  15.526  0.00  0.00    +0.000 A 
BRANCH  10  16
ATOM     16  N   UNL     1       6.298   4.238  14.354  0.00  0.00    +0.000 N 
ATOM     17  H   UNL     1       5.958   4.245  13.410  0.00  0.00    +0.000 HD
ATOM     18  H   UNL     1       7.205   3.854  14.552  0.00  0.00    +0.000 HD
ENDBRANCH  10  16
ENDBRANCH   1  13
BRANCH   7  19
ATOM     19  C   UNL     1       0.934  10.261  18.737  0.00  0.00    +0.000 C 
BRANCH  19  20
ATOM     20  C   UNL     1      -0.505  10.533  18.424  0.00  0.00    +0.000 A 
ATOM     21  C   UNL     1      -1.155   9.986  17.350  0.00  0.00    +0.000 A 
ATOM     22  C   UNL     1      -2.528   9.860  17.403  0.00  0.00    +0.000 A 
ATOM     23  C   UNL     1      -3.267  10.787  18.049  0.00  0.00    +0.000 A 
ATOM     24  N   UNL     1      -4.527  10.867  17.692  0.00  0.00    +0.000 NA
ATOM     25  C   UNL     1      -5.129  11.822  18.358  0.00  0.00    +0.000 A 
ATOM     26  C   UNL     1      -5.729  12.724  18.972  0.00  0.00    +0.000 A 
ATOM     27  C   UNL     1      -3.883  12.478  19.420  0.00  0.00    +0.000 A 
ATOM     28  C   UNL     1      -2.690  11.577  18.981  0.00  0.00    +0.000 A 
ATOM     29  C   UNL     1      -1.271  11.320  19.267  0.00  0.00    +0.000 A 
ENDBRANCH  19  20
ENDBRANCH   7  19
TORSDOF 4
ENDMDL
MODEL 5
REMARK VINA RESULT:      -7.9      1.156      1.845
REMARK  Name = 
REMARK  4 active torsions:
REMARK  status: ('A' for Active; 'I' for Inactive)
REMARK    1  A    between atoms: N_1  and  C_2
REMARK    2  A    between atoms: C_5  and  C_6
REMARK    3  A    between atoms: N_12  and  C_13
REMARK    4  A    between atoms: C_13  and  C_14
REMARK                            x       y       z     vdW  Elec       q    Type
REMARK                         _______ _______ _______ _____ _____    ______ ____
ROOT
ATOM      1  C   UNL     1       1.872   5.713  19.791  0.00  0.00    +0.000 A 
ATOM      2  C   UNL     1       1.222   4.732  20.503  0.00  0.00    +0.000 A 
ATOM      3  N   UNL     1       1.407   3.396  20.308  0.00  0.00    +0.000 NA
ATOM      4  C   UNL     1       2.316   3.061  19.336  0.00  0.00    +0.000 A 
ATOM      5  N   UNL     1       2.723   1.814  18.908  0.00  0.00    +0.000 NA
ATOM      6  C   UNL     1       3.608   2.043  17.966  0.00  0.00    +0.000 A 
ATOM      7  N   UNL     1       3.806   3.380  17.742  0.00  0.00    +0.000 N 
ATOM      8  C   UNL     1       2.975   4.048  18.622  0.00  0.00    +0.000 A 
ATOM      9  N   UNL     1       2.781   5.381  18.814  0.00  0.00    +0.000 NA
ENDROOT
BRANCH   1  13
ATOM     10  C   UNL     1       1.082   9.854  20.587  0.00  0.00    +0.000 A 
ATOM     11  C   UNL     1       1.532   9.451  19.348  0.00  0.00    +0.000 A 
ATOM     12  C   UNL     1       1.775   8.113  19.089  0.00  0.00    +0.000 A 
ATOM     13  C   UNL     1       1.595   7.142  20.068  0.00  0.00    +0.000 A 
ATOM     14  C   UNL     1       1.131   7.569  21.313  0.00  0.00    +0.000 A 
ATOM     15  C   UNL     1       0.869   8.904  21.564  0.00  0.00    +0.000 A 
BRANCH  10  16
ATOM     16  N   UNL     1       0.841  11.176  20.844  0.00  0.00    +0.000 N 
ATOM     17  H   UNL     1       1.001  11.866  20.132  0.00  0.00    +0.000 HD
ATOM     18  H   UNL     1       0.507  11.462  21.747  0.00  0.00    +0.000 HD
ENDBRANCH  10  16
ENDBRANCH   1  13
BRANCH   7  19
ATOM     19  C   UNL     1       4.716   3.947  16.761  0.00  0.00    +0.000 C 
BRANCH  19  20
ATOM     20  C   UNL     1       5.667   4.927  17.374  0.00  0.00    +0.000 A 
ATOM     21  C   UNL     1       6.445   4.635  18.462  0.00  0.00    +0.000 A 
ATOM     22  C   UNL     1       7.611   5.349  18.652  0.00  0.00    +0.000 A 
ATOM     23  C   UNL     1       7.672   6.649  18.294  0.00  0.00    +0.000 A 
ATOM     24  N   UNL     1       8.596   7.365  18.890  0.00  0.00    +0.000 NA
ATOM     25  C   UNL     1       8.534   8.613  18.491  0.00  0.00    +0.000 A 
ATOM     26  C   UNL     1       8.498   9.805  18.136  0.00  0.00    +0.000 A 
ATOM     27  C   UNL     1       7.217   8.639  17.318  0.00  0.00    +0.000 A 
ATOM     28  C   UNL     1       6.794   7.141  17.392  0.00  0.00    +0.000 A 
ATOM     29  C   UNL     1       5.848   6.178  16.811  0.00  0.00    +0.000 A 
ENDBRANCH  19  20
ENDBRANCH   7  19
TORSDOF 4
ENDMDL
MODEL 6
REMARK VINA RESULT:      -7.9      2.207      6.729
REMARK  Name = 
REMARK  4 active torsions:
REMARK  status: ('A' for Active; 'I' for Inactive)
REMARK    1  A    between atoms: N_1  and  C_2
REMARK    2  A    between atoms: C_5  and  C_6
REMARK    3  A    between atoms: N_12  and  C_13
REMARK    4  A    between atoms: C_13  and  C_14
REMARK                            x       y       z     vdW  Elec       q    Type
REMARK                         _______ _______ _______ _____ _____    ______ ____
ROOT
ATOM      1  C   UNL     1       3.816   4.292  17.184  0.00  0.00    +0.000 A 
ATOM      2  C   UNL     1       3.025   3.188  16.965  0.00  0.00    +0.000 A 
ATOM      3  N   UNL     1       1.964   2.841  17.745  0.00  0.00    +0.000 NA
ATOM      4  C   UNL     1       1.702   3.684  18.797  0.00  0.00    +0.000 A 
ATOM      5  N   UNL     1       0.710   3.612  19.753  0.00  0.00    +0.000 NA
ATOM      6  C   UNL     1       0.895   4.659  20.523  0.00  0.00    +0.000 A 
ATOM      7  N   UNL     1       1.964   5.422  20.130  0.00  0.00    +0.000 N 
ATOM      8  C   UNL     1       2.494   4.799  19.015  0.00  0.00    +0.000 A 
ATOM      9  N   UNL     1       3.558   5.138  18.237  0.00  0.00    +0.000 NA
ENDROOT
BRANCH   1  13
ATOM     10  C   UNL     1       7.121   5.142  14.584  0.00  0.00    +0.000 A 
ATOM     11  C   UNL     1       7.070   5.680  15.852  0.00  0.00    +0.000 A 
ATOM     12  C   UNL     1       6.008   5.395  16.694  0.00  0.00    +0.000 A 
ATOM     13  C   UNL     1       4.957   4.581  16.284  0.00  0.00    +0.000 A 
ATOM     14  C   UNL     1       5.032   4.039  15.000  0.00  0.00    +0.000 A 
ATOM     15  C   UNL     1       6.103   4.309  14.168  0.00  0.00    +0.000 A 
BRANCH  10  16
ATOM     16  N   UNL     1       8.170   5.421  13.751  0.00  0.00    +0.000 N 
ATOM     17  H   UNL     1       9.067   5.663  14.133  0.00  0.00    +0.000 HD
ATOM     18  H   UNL     1       8.046   5.390  12.755  0.00  0.00    +0.000 HD
ENDBRANCH  10  16
ENDBRANCH   1  13
BRANCH   7  19
ATOM     19  C   UNL     1       2.423   6.635  20.784  0.00  0.00    +0.000 C 
BRANCH  19  20
ATOM     20  C   UNL     1       1.447   7.760  20.634  0.00  0.00    +0.000 A 
ATOM     21  C   UNL     1       0.539   8.098  21.602  0.00  0.00    +0.000 A 
ATOM     22  C   UNL     1       0.050   9.389  21.627  0.00  0.00    +0.000 A 
ATOM     23  C   UNL     1      -0.135  10.063  20.473  0.00  0.00    +0.000 A 
ATOM     24  N   UNL     1      -0.991  11.057  20.520  0.00  0.00    +0.000 NA
ATOM     25  C   UNL     1      -1.113  11.609  19.337  0.00  0.00    +0.000 A 
ATOM     26  C   UNL     1      -1.255  12.153  18.226  0.00  0.00    +0.000 A 
ATOM     27  C   UNL     1      -0.007  10.702  18.306  0.00  0.00    +0.000 A 
ATOM     28  C   UNL     1       0.527   9.683  19.357  0.00  0.00    +0.000 A 
ATOM     29  C   UNL     1       1.467   8.563  19.506  0.00  0.00    +0.000 A 
ENDBRANCH  19  20
ENDBRANCH   7  19
TORSDOF 4
ENDMDL
MODEL 7
REMARK VINA RESULT:      -7.7      3.092      7.752
REMARK  Name = 
REMARK  4 active torsions:
REMARK  status: ('A' for Active; 'I' for Inactive)
REMARK    1  A    between atoms: N_1  and  C_2
REMARK    2  A    between atoms: C_5  and  C_6
REMARK    3  A    between atoms: N_12  and  C_13
REMARK    4  A    between atoms: C_13  and  C_14
REMARK                            x       y       z     vdW  Elec       q    Type
REMARK                         _______ _______ _______ _____ _____    ______ ____
ROOT
ATOM      1  C   UNL     1       3.026   6.260  18.732  0.00  0.00    +0.000 A 
ATOM      2  C   UNL     1       2.720   5.348  19.714  0.00  0.00    +0.000 A 
ATOM      3  N   UNL     1       1.939   5.623  20.796  0.00  0.00    +0.000 NA
ATOM      4  C   UNL     1       1.444   6.903  20.858  0.00  0.00    +0.000 A 
ATOM      5  N   UNL     1       0.632   7.484  21.810  0.00  0.00    +0.000 NA
ATOM      6  C   UNL     1       0.447   8.717  21.400  0.00  0.00    +0.000 A 
ATOM      7  N   UNL     1       1.099   8.987  20.225  0.00  0.00    +0.000 N 
ATOM      8  C   UNL     1       1.748   7.820  19.866  0.00  0.00    +0.000 A 
ATOM      9  N   UNL     1       2.535   7.542  18.791  0.00  0.00    +0.000 NA
ENDROOT
BRANCH   1  13
ATOM     10  C   UNL     1       5.535   5.136  15.438  0.00  0.00    +0.000 A 
ATOM     11  C   UNL     1       5.358   6.464  15.764  0.00  0.00    +0.000 A 
ATOM     12  C   UNL     1       4.557   6.824  16.834  0.00  0.00    +0.000 A 
ATOM     13  C   UNL     1       3.895   5.868  17.596  0.00  0.00    +0.000 A 
ATOM     14  C   UNL     1       4.094   4.529  17.256  0.00  0.00    +0.000 A 
ATOM     15  C   UNL     1       4.910   4.170  16.198  0.00  0.00    +0.000 A 
BRANCH  10  16
ATOM     16  N   UNL     1       6.327   4.778  14.381  0.00  0.00    +0.000 N 
ATOM     17  H   UNL     1       6.900   5.465  13.924  0.00  0.00    +0.000 HD
ATOM     18  H   UNL     1       6.334   3.828  14.054  0.00  0.00    +0.000 HD
ENDBRANCH  10  16
ENDBRANCH   1  13
BRANCH   7  19
ATOM     19  C   UNL     1       1.090  10.261  19.527  0.00  0.00    +0.000 C 
BRANCH  19  20
ATOM     20  C   UNL     1      -0.205  10.506  18.817  0.00  0.00    +0.000 A 
ATOM     21  C   UNL     1      -1.173  11.349  19.295  0.00  0.00    +0.000 A 
ATOM     22  C   UNL     1      -2.063  11.906  18.400  0.00  0.00    +0.000 A 
ATOM     23  C   UNL     1      -2.462  11.205  17.319  0.00  0.00    +0.000 A 
ATOM     24  N   UNL     1      -3.600  11.578  16.782  0.00  0.00    +0.000 NA
ATOM     25  C   UNL     1      -3.901  10.803  15.767  0.00  0.00    +0.000 A 
ATOM     26  C   UNL     1      -4.216  10.082  14.802  0.00  0.00    +0.000 A 
ATOM     27  C   UNL     1      -2.556   9.666  15.663  0.00  0.00    +0.000 A 
ATOM     28  C   UNL     1      -1.713  10.173  16.871  0.00  0.00    +0.000 A 
ATOM     29  C   UNL     1      -0.454   9.923  17.587  0.00  0.00    +0.000 A 
ENDBRANCH  19  20
ENDBRANCH   7  19
TORSDOF 4
ENDMDL
MODEL 8
REMARK VINA RESULT:      -7.7      0.962      1.610
REMARK  Name = 
REMARK  4 active torsions:
REMARK  status: ('A' for Active; 'I' for Inactive)
REMARK    1  A    between atoms: N_1  and  C_2
REMARK    2  A    between atoms: C_5  and  C_6
REMARK    3  A    between atoms: N_12  and  C_13
REMARK    4  A    between atoms: C_13  and  C_14
REMARK                            x       y       z     vdW  Elec       q    Type
REMARK                         _______ _______ _______ _____ _____    ______ ____
ROOT
ATOM      1  C   UNL     1       2.178   6.476  19.773  0.00  0.00    +0.000 A 
ATOM      2  C   UNL     1       1.532   5.651  20.663  0.00  0.00    +0.000 A 
ATOM      3  N   UNL     1       1.838   4.336  20.849  0.00  0.00    +0.000 NA
ATOM      4  C   UNL     1       2.869   3.855  20.081  0.00  0.00    +0.000 A 
ATOM      5  N   UNL     1       3.413   2.589  20.037  0.00  0.00    +0.000 NA
ATOM      6  C   UNL     1       4.375   2.656  19.145  0.00  0.00    +0.000 A 
ATOM      7  N   UNL     1       4.494   3.903  18.590  0.00  0.00    +0.000 N 
ATOM      8  C   UNL     1       3.524   4.687  19.187  0.00  0.00    +0.000 A 
ATOM      9  N   UNL     1       3.210   5.998  19.000  0.00  0.00    +0.000 NA
ENDROOT
BRANCH   1  13
ATOM     10  C   UNL     1       0.972  10.575  19.382  0.00  0.00    +0.000 A 
ATOM     11  C   UNL     1       0.827   9.912  20.582  0.00  0.00    +0.000 A 
ATOM     12  C   UNL     1       1.227   8.593  20.710  0.00  0.00    +0.000 A 
ATOM     13  C   UNL     1       1.765   7.893  19.635  0.00  0.00    +0.000 A 
ATOM     14  C   UNL     1       1.912   8.584  18.431  0.00  0.00    +0.000 A 
ATOM     15  C   UNL     1       1.530   9.907  18.311  0.00  0.00    +0.000 A 
BRANCH  10  16
ATOM     16  N   UNL     1       0.578  11.879  19.254  0.00  0.00    +0.000 N 
ATOM     17  H   UNL     1       0.187  12.367  20.039  0.00  0.00    +0.000 HD
ATOM     18  H   UNL     1       0.674  12.351  18.373  0.00  0.00    +0.000 HD
ENDBRANCH  10  16
ENDBRANCH   1  13
BRANCH   7  19
ATOM     19  C   UNL     1       5.458   4.287  17.573  0.00  0.00    +0.000 C 
BRANCH  19  20
ATOM     20  C   UNL     1       6.310   5.438  18.011  0.00  0.00    +0.000 A 
ATOM     21  C   UNL     1       7.121   5.393  19.113  0.00  0.00    +0.000 A 
ATOM     22  C   UNL     1       8.210   6.239  19.167  0.00  0.00    +0.000 A 
ATOM     23  C   UNL     1       8.138   7.468  18.616  0.00  0.00    +0.000 A 
ATOM     24  N   UNL     1       8.990   8.354  19.077  0.00  0.00    +0.000 NA
ATOM     25  C   UNL     1       8.800   9.514  18.495  0.00  0.00    +0.000 A 
ATOM     26  C   UNL     1       8.642  10.629  17.964  0.00  0.00    +0.000 A 
ATOM     27  C   UNL     1       7.480   9.232  17.360  0.00  0.00    +0.000 A 
ATOM     28  C   UNL     1       7.210   7.728  17.669  0.00  0.00    +0.000 A 
ATOM     29  C   UNL     1       6.361   6.600  17.261  0.00  0.00    +0.000 A 
ENDBRANCH  19  20
ENDBRANCH   7  19
TORSDOF 4
ENDMDL
MODEL 9
REMARK VINA RESULT:      -7.6      2.636      7.551
REMARK  Name = 
REMARK  4 active torsions:
REMARK  status: ('A' for Active; 'I' for Inactive)
REMARK    1  A    between atoms: N_1  and  C_2
REMARK    2  A    between atoms: C_5  and  C_6
REMARK    3  A    between atoms: N_12  and  C_13
REMARK    4  A    between atoms: C_13  and  C_14
REMARK                            x       y       z     vdW  Elec       q    Type
REMARK                         _______ _______ _______ _____ _____    ______ ____
ROOT
ATOM      1  C   UNL     1       4.033   5.455  17.989  0.00  0.00    +0.000 A 
ATOM      2  C   UNL     1       3.634   4.327  18.667  0.00  0.00    +0.000 A 
ATOM      3  N   UNL     1       2.730   4.327  19.687  0.00  0.00    +0.000 NA
ATOM      4  C   UNL     1       2.207   5.554  20.013  0.00  0.00    +0.000 A 
ATOM      5  N   UNL     1       1.282   5.883  20.982  0.00  0.00    +0.000 NA
ATOM      6  C   UNL     1       1.121   7.182  20.879  0.00  0.00    +0.000 A 
ATOM      7  N   UNL     1       1.897   7.734  19.893  0.00  0.00    +0.000 N 
ATOM      8  C   UNL     1       2.605   6.689  19.328  0.00  0.00    +0.000 A 
ATOM      9  N   UNL     1       3.514   6.685  18.315  0.00  0.00    +0.000 NA
ENDROOT
BRANCH   1  13
ATOM     10  C   UNL     1       6.923   5.151  14.833  0.00  0.00    +0.000 A 
ATOM     11  C   UNL     1       5.787   4.370  14.821  0.00  0.00    +0.000 A 
ATOM     12  C   UNL     1       4.850   4.478  15.835  0.00  0.00    +0.000 A 
ATOM     13  C   UNL     1       5.032   5.355  16.899  0.00  0.00    +0.000 A 
ATOM     14  C   UNL     1       6.184   6.143  16.887  0.00  0.00    +0.000 A 
ATOM     15  C   UNL     1       7.109   6.049  15.864  0.00  0.00    +0.000 A 
BRANCH  10  16
ATOM     16  N   UNL     1       7.850   5.047  13.832  0.00  0.00    +0.000 N 
ATOM     17  H   UNL     1       8.524   4.303  13.844  0.00  0.00    +0.000 HD
ATOM     18  H   UNL     1       7.863   5.717  13.083  0.00  0.00    +0.000 HD
ENDBRANCH  10  16
ENDBRANCH   1  13
BRANCH   7  19
ATOM     19  C   UNL     1       1.943   9.143  19.544  0.00  0.00    +0.000 C 
BRANCH  19  20
ATOM     20  C   UNL     1       0.580   9.704  19.281  0.00  0.00    +0.000 A 
ATOM     21  C   UNL     1      -0.157  10.358  20.232  0.00  0.00    +0.000 A 
ATOM     22  C   UNL     1      -1.120  11.256  19.819  0.00  0.00    +0.000 A 
ATOM     23  C   UNL     1      -1.810  11.030  18.681  0.00  0.00    +0.000 A 
ATOM     24  N   UNL     1      -2.969  11.637  18.584  0.00  0.00    +0.000 NA
ATOM     25  C   UNL     1      -3.559  11.313  17.458  0.00  0.00    +0.000 A 
ATOM     26  C   UNL     1      -4.147  11.024  16.399  0.00  0.00    +0.000 A 
ATOM     27  C   UNL     1      -2.423  10.228  16.656  0.00  0.00    +0.000 A 
ATOM     28  C   UNL     1      -1.304  10.202  17.740  0.00  0.00    +0.000 A 
ATOM     29  C   UNL     1       0.025   9.636  18.015  0.00  0.00    +0.000 A 
ENDBRANCH  19  20
ENDBRANCH   7  19
TORSDOF 4
ENDMDL
