MODEL 1
REMARK VINA RESULT:      -7.5      0.000      0.000
REMARK  Name = 
REMARK  9 active torsions:
REMARK  status: ('A' for Active; 'I' for Inactive)
REMARK    1  A    between atoms: C_1  and  O_2
REMARK    2  A    between atoms: O_2  and  C_3
REMARK    3  A    between atoms: C_6  and  C_7
REMARK    4  A    between atoms: C_7  and  N_8
REMARK    5  A    between atoms: N_8  and  C_22
REMARK    6  A    between atoms: C_9  and  C_11
REMARK    7  A    between atoms: C_13  and  C_14
REMARK    8  A    between atoms: C_30  and  O_31
REMARK    9  A    between atoms: O_31  and  C_32
REMARK                            x       y       z     vdW  Elec       q    Type
REMARK                         _______ _______ _______ _____ _____    ______ ____
ROOT
ATOM      1  N   UNL     1      -0.015  11.752  19.435  0.00  0.00    +0.000 N 
ATOM      2  C   UNL     1      -0.273  10.377  19.130  0.00  0.00    +0.000 C 
ATOM      3  O   UNL     1      -1.425   9.973  18.968  0.00  0.00    +0.000 OA
ENDROOT
BRANCH   1   4
ATOM      4  C   UNL     1       1.361  12.274  19.603  0.00  0.00    +0.000 C 
ATOM      5  C   UNL     1       1.859  13.027  18.344  0.00  0.00    +0.000 C 
ATOM      6  C   UNL     1       3.181  13.659  18.732  0.00  0.00    +0.000 C 
ATOM      7  S   UNL     1       2.902  14.275  20.371  0.00  0.00    +0.000 S 
ATOM      8  O   UNL     1       2.327  15.605  20.255  0.00  0.00    +0.000 OA
ATOM      9  O   UNL     1       4.063  14.020  21.178  0.00  0.00    +0.000 OA
ATOM     10  C   UNL     1       1.598  13.158  20.828  0.00  0.00    +0.000 C 
ENDBRANCH   1   4
BRANCH   2  11
ATOM     11  C   UNL     1       0.868   9.420  19.056  0.00  0.00    +0.000 A 
ATOM     12  C   UNL     1       1.633   9.003  17.919  0.00  0.00    +0.000 A 
ATOM     13  C   UNL     1       2.377   7.922  18.360  0.00  0.00    +0.000 A 
ATOM     14  O   UNL     1       2.216   7.832  19.707  0.00  0.00    +0.000 OA
ATOM     15  N   UNL     1       1.353   8.795  20.139  0.00  0.00    +0.000 NA
BRANCH  13  16
ATOM     16  C   UNL     1       3.201   6.862  17.774  0.00  0.00    +0.000 A 
ATOM     17  C   UNL     1       2.857   5.511  17.906  0.00  0.00    +0.000 A 
ATOM     18  C   UNL     1       3.717   4.506  17.442  0.00  0.00    +0.000 A 
ATOM     19  C   UNL     1       4.919   4.833  16.817  0.00  0.00    +0.000 A 
ATOM     20  C   UNL     1       5.260   6.168  16.638  0.00  0.00    +0.000 A 
ATOM     21  C   UNL     1       4.412   7.170  17.120  0.00  0.00    +0.000 A 
ENDBRANCH  13  16
ENDBRANCH   2  11
BRANCH   1  22
ATOM     22  C   UNL     1      -1.128  12.729  19.349  0.00  0.00    +0.000 C 
BRANCH  22  26
ATOM     23  C   UNL     1      -4.177  12.624  22.503  0.00  0.00    +0.000 A 
ATOM     24  C   UNL     1      -2.810  12.529  22.796  0.00  0.00    +0.000 A 
ATOM     25  C   UNL     1      -1.845  12.553  21.776  0.00  0.00    +0.000 A 
ATOM     26  C   UNL     1      -2.209  12.643  20.422  0.00  0.00    +0.000 A 
ATOM     27  C   UNL     1      -3.574  12.772  20.143  0.00  0.00    +0.000 A 
ATOM     28  C   UNL     1      -4.555  12.816  21.163  0.00  0.00    +0.000 A 
BRANCH  23  30
ATOM     29  C   UNL     1      -4.679  12.452  24.827  0.00  0.00    +0.000 C 
ATOM     30  O   UNL     1      -5.144  12.526  23.476  0.00  0.00    +0.000 OA
ENDBRANCH  23  30
BRANCH  28  31
ATOM     31  O   UNL     1      -5.820  12.965  20.663  0.00  0.00    +0.000 OA
ATOM     32  C   UNL     1      -6.610  11.812  20.393  0.00  0.00    +0.000 C 
ENDBRANCH  28  31
ENDBRANCH  22  26
ENDBRANCH   1  22
TORSDOF 7
ENDMDL
MODEL 2
REMARK VINA RESULT:      -7.4      4.400      8.021
REMARK  Name = 
REMARK  9 active torsions:
REMARK  status: ('A' for Active; 'I' for Inactive)
REMARK    1  A    between atoms: C_1  and  O_2
REMARK    2  A    between atoms: O_2  and  C_3
REMARK    3  A    between atoms: C_6  and  C_7
REMARK    4  A    between atoms: C_7  and  N_8
REMARK    5  A    between atoms: N_8  and  C_22
REMARK    6  A    between atoms: C_9  and  C_11
REMARK    7  A    between atoms: C_13  and  C_14
REMARK    8  A    between atoms: C_30  and  O_31
REMARK    9  A    between atoms: O_31  and  C_32
REMARK                            x       y       z     vdW  Elec       q    Type
REMARK                         _______ _______ _______ _____ _____    ______ ____
ROOT
ATOM      1  N   UNL     1       3.858   5.754  18.236  0.00  0.00    +0.000 N 
ATOM      2  C   UNL     1       4.976   6.237  17.481  0.00  0.00    +0.000 C 
ATOM      3  O   UNL     1       5.474   7.336  17.727  0.00  0.00    +0.000 OA
ENDROOT
BRANCH   1   4
ATOM      4  C   UNL     1       3.259   4.422  17.986  0.00  0.00    +0.000 C 
ATOM      5  C   UNL     1       4.073   3.281  18.644  0.00  0.00    +0.000 C 
ATOM      6  C   UNL     1       3.244   2.023  18.469  0.00  0.00    +0.000 C 
ATOM      7  S   UNL     1       1.583   2.551  18.797  0.00  0.00    +0.000 S 
ATOM      8  O   UNL     1       1.364   2.468  20.232  0.00  0.00    +0.000 OA
ATOM      9  O   UNL     1       0.693   1.927  17.857  0.00  0.00    +0.000 OA
ATOM     10  C   UNL     1       1.789   4.266  18.378  0.00  0.00    +0.000 C 
ENDBRANCH   1   4
BRANCH   2  11
ATOM     11  C   UNL     1       5.506   5.414  16.356  0.00  0.00    +0.000 A 
ATOM     12  C   UNL     1       5.240   5.513  14.953  0.00  0.00    +0.000 A 
ATOM     13  C   UNL     1       5.770   4.359  14.401  0.00  0.00    +0.000 A 
ATOM     14  O   UNL     1       6.474   3.722  15.374  0.00  0.00    +0.000 OA
ATOM     15  N   UNL     1       6.373   4.408  16.548  0.00  0.00    +0.000 NA
BRANCH  13  16
ATOM     16  C   UNL     1       5.719   3.648  13.122  0.00  0.00    +0.000 A 
ATOM     17  C   UNL     1       4.517   3.488  12.422  0.00  0.00    +0.000 A 
ATOM     18  C   UNL     1       4.466   2.704  11.261  0.00  0.00    +0.000 A 
ATOM     19  C   UNL     1       5.615   2.089  10.767  0.00  0.00    +0.000 A 
ATOM     20  C   UNL     1       6.826   2.269  11.423  0.00  0.00    +0.000 A 
ATOM     21  C   UNL     1       6.874   3.034  12.592  0.00  0.00    +0.000 A 
ENDBRANCH  13  16
ENDBRANCH   2  11
BRANCH   1  22
ATOM     22  C   UNL     1       3.437   6.493  19.451  0.00  0.00    +0.000 C 
BRANCH  22  26
ATOM     23  C   UNL     1       0.586   9.763  18.791  0.00  0.00    +0.000 A 
ATOM     24  C   UNL     1       1.238   9.127  17.725  0.00  0.00    +0.000 A 
ATOM     25  C   UNL     1       2.156   8.090  17.951  0.00  0.00    +0.000 A 
ATOM     26  C   UNL     1       2.482   7.666  19.251  0.00  0.00    +0.000 A 
ATOM     27  C   UNL     1       1.800   8.284  20.305  0.00  0.00    +0.000 A 
ATOM     28  C   UNL     1       0.823   9.286  20.091  0.00  0.00    +0.000 A 
BRANCH  23  30
ATOM     29  C   UNL     1      -1.628  10.517  18.330  0.00  0.00    +0.000 C 
ATOM     30  O   UNL     1      -0.259  10.832  18.601  0.00  0.00    +0.000 OA
ENDBRANCH  23  30
BRANCH  28  31
ATOM     31  O   UNL     1       0.273   9.735  21.261  0.00  0.00    +0.000 OA
ATOM     32  C   UNL     1      -0.541   8.862  22.036  0.00  0.00    +0.000 C 
ENDBRANCH  28  31
ENDBRANCH  22  26
ENDBRANCH   1  22
TORSDOF 7
ENDMDL
MODEL 3
REMARK VINA RESULT:      -7.4      2.348      3.692
REMARK  Name = 
REMARK  9 active torsions:
REMARK  status: ('A' for Active; 'I' for Inactive)
REMARK    1  A    between atoms: C_1  and  O_2
REMARK    2  A    between atoms: O_2  and  C_3
REMARK    3  A    between atoms: C_6  and  C_7
REMARK    4  A    between atoms: C_7  and  N_8
REMARK    5  A    between atoms: N_8  and  C_22
REMARK    6  A    between atoms: C_9  and  C_11
REMARK    7  A    between atoms: C_13  and  C_14
REMARK    8  A    between atoms: C_30  and  O_31
REMARK    9  A    between atoms: O_31  and  C_32
REMARK                            x       y       z     vdW  Elec       q    Type
REMARK                         _______ _______ _______ _____ _____    ______ ____
ROOT
ATOM      1  N   UNL     1      -0.465  11.844  18.738  0.00  0.00    +0.000 N 
ATOM      2  C   UNL     1       0.805  11.377  19.210  0.00  0.00    +0.000 C 
ATOM      3  O   UNL     1       1.475  12.054  19.990  0.00  0.00    +0.000 OA
ENDROOT
BRANCH   1   4
ATOM      4  C   UNL     1      -1.308  11.037  17.826  0.00  0.00    +0.000 C 
ATOM      5  C   UNL     1      -2.248  10.075  18.595  0.00  0.00    +0.000 C 
ATOM      6  C   UNL     1      -3.168   9.470  17.553  0.00  0.00    +0.000 C 
ATOM      7  S   UNL     1      -3.579  10.833  16.495  0.00  0.00    +0.000 S 
ATOM      8  O   UNL     1      -4.723  11.518  17.075  0.00  0.00    +0.000 OA
ATOM      9  O   UNL     1      -3.574  10.391  15.128  0.00  0.00    +0.000 OA
ATOM     10  C   UNL     1      -2.137  11.823  16.810  0.00  0.00    +0.000 C 
ENDBRANCH   1   4
BRANCH   2  11
ATOM     11  C   UNL     1       1.335  10.077  18.709  0.00  0.00    +0.000 A 
ATOM     12  C   UNL     1       1.372   8.799  19.356  0.00  0.00    +0.000 A 
ATOM     13  C   UNL     1       2.197   8.017  18.566  0.00  0.00    +0.000 A 
ATOM     14  O   UNL     1       2.465   8.715  17.431  0.00  0.00    +0.000 OA
ATOM     15  N   UNL     1       1.876   9.944  17.488  0.00  0.00    +0.000 NA
BRANCH  13  16
ATOM     16  C   UNL     1       2.875   6.722  18.658  0.00  0.00    +0.000 A 
ATOM     17  C   UNL     1       2.546   5.794  19.653  0.00  0.00    +0.000 A 
ATOM     18  C   UNL     1       3.285   4.611  19.800  0.00  0.00    +0.000 A 
ATOM     19  C   UNL     1       4.345   4.325  18.942  0.00  0.00    +0.000 A 
ATOM     20  C   UNL     1       4.661   5.212  17.921  0.00  0.00    +0.000 A 
ATOM     21  C   UNL     1       3.938   6.402  17.788  0.00  0.00    +0.000 A 
ENDBRANCH  13  16
ENDBRANCH   2  11
BRANCH   1  22
ATOM     22  C   UNL     1      -1.062  13.052  19.358  0.00  0.00    +0.000 C 
BRANCH  22  26
ATOM     23  C   UNL     1      -4.001  12.536  22.576  0.00  0.00    +0.000 A 
ATOM     24  C   UNL     1      -2.624  12.396  22.804  0.00  0.00    +0.000 A 
ATOM     25  C   UNL     1      -1.696  12.553  21.763  0.00  0.00    +0.000 A 
ATOM     26  C   UNL     1      -2.106  12.827  20.448  0.00  0.00    +0.000 A 
ATOM     27  C   UNL     1      -3.478  12.998  20.237  0.00  0.00    +0.000 A 
ATOM     28  C   UNL     1      -4.422  12.908  21.289  0.00  0.00    +0.000 A 
BRANCH  23  30
ATOM     29  C   UNL     1      -4.472  12.427  24.910  0.00  0.00    +0.000 C 
ATOM     30  O   UNL     1      -4.934  12.312  23.561  0.00  0.00    +0.000 OA
ENDBRANCH  23  30
BRANCH  28  31
ATOM     31  O   UNL     1      -5.703  13.129  20.859  0.00  0.00    +0.000 OA
ATOM     32  C   UNL     1      -6.504  12.029  20.440  0.00  0.00    +0.000 C 
ENDBRANCH  28  31
ENDBRANCH  22  26
ENDBRANCH   1  22
TORSDOF 7
ENDMDL
MODEL 4
REMARK VINA RESULT:      -7.4      0.652      1.071
REMARK  Name = 
REMARK  9 active torsions:
REMARK  status: ('A' for Active; 'I' for Inactive)
REMARK    1  A    between atoms: C_1  and  O_2
REMARK    2  A    between atoms: O_2  and  C_3
REMARK    3  A    between atoms: C_6  and  C_7
REMARK    4  A    between atoms: C_7  and  N_8
REMARK    5  A    between atoms: N_8  and  C_22
REMARK    6  A    between atoms: C_9  and  C_11
REMARK    7  A    between atoms: C_13  and  C_14
REMARK    8  A    between atoms: C_30  and  O_31
REMARK    9  A    between atoms: O_31  and  C_32
REMARK                            x       y       z     vdW  Elec       q    Type
REMARK                         _______ _______ _______ _____ _____    ______ ____
ROOT
ATOM      1  N   UNL     1      -0.120  11.724  19.320  0.00  0.00    +0.000 N 
ATOM      2  C   UNL     1      -0.346  10.355  18.964  0.00  0.00    +0.000 C 
ATOM      3  O   UNL     1      -1.478   9.954  18.690  0.00  0.00    +0.000 OA
ENDROOT
BRANCH   1   4
ATOM      4  C   UNL     1       1.234  12.243  19.622  0.00  0.00    +0.000 C 
ATOM      5  C   UNL     1       1.747  13.213  18.528  0.00  0.00    +0.000 C 
ATOM      6  C   UNL     1       3.037  13.801  19.064  0.00  0.00    +0.000 C 
ATOM      7  S   UNL     1       2.689  14.120  20.773  0.00  0.00    +0.000 S 
ATOM      8  O   UNL     1       2.078  15.436  20.865  0.00  0.00    +0.000 OA
ATOM      9  O   UNL     1       3.833  13.759  21.566  0.00  0.00    +0.000 OA
ATOM     10  C   UNL     1       1.406  12.910  20.987  0.00  0.00    +0.000 C 
ENDBRANCH   1   4
BRANCH   2  11
ATOM     11  C   UNL     1       0.799   9.400  18.975  0.00  0.00    +0.000 A 
ATOM     12  C   UNL     1       1.621   8.953  17.890  0.00  0.00    +0.000 A 
ATOM     13  C   UNL     1       2.345   7.888  18.399  0.00  0.00    +0.000 A 
ATOM     14  O   UNL     1       2.117   7.837  19.739  0.00  0.00    +0.000 OA
ATOM     15  N   UNL     1       1.231   8.809  20.099  0.00  0.00    +0.000 NA
BRANCH  13  16
ATOM     16  C   UNL     1       3.198   6.815  17.886  0.00  0.00    +0.000 A 
ATOM     17  C   UNL     1       4.368   7.091  17.169  0.00  0.00    +0.000 A 
ATOM     18  C   UNL     1       5.110   6.055  16.583  0.00  0.00    +0.000 A 
ATOM     19  C   UNL     1       4.710   4.728  16.726  0.00  0.00    +0.000 A 
ATOM     20  C   UNL     1       3.576   4.428  17.470  0.00  0.00    +0.000 A 
ATOM     21  C   UNL     1       2.825   5.463  18.036  0.00  0.00    +0.000 A 
ENDBRANCH  13  16
ENDBRANCH   2  11
BRANCH   1  22
ATOM     22  C   UNL     1      -1.223  12.702  19.152  0.00  0.00    +0.000 C 
BRANCH  22  26
ATOM     23  C   UNL     1      -4.483  12.640  22.090  0.00  0.00    +0.000 A 
ATOM     24  C   UNL     1      -3.137  12.684  22.482  0.00  0.00    +0.000 A 
ATOM     25  C   UNL     1      -2.104  12.691  21.532  0.00  0.00    +0.000 A 
ATOM     26  C   UNL     1      -2.372  12.627  20.154  0.00  0.00    +0.000 A 
ATOM     27  C   UNL     1      -3.718  12.619  19.773  0.00  0.00    +0.000 A 
ATOM     28  C   UNL     1      -4.772  12.677  20.716  0.00  0.00    +0.000 A 
BRANCH  23  30
ATOM     29  C   UNL     1      -5.976  13.791  23.548  0.00  0.00    +0.000 C 
ATOM     30  O   UNL     1      -5.509  12.554  23.001  0.00  0.00    +0.000 OA
ENDBRANCH  23  30
BRANCH  28  31
ATOM     31  O   UNL     1      -6.005  12.677  20.120  0.00  0.00    +0.000 OA
ATOM     32  C   UNL     1      -6.626  13.914  19.790  0.00  0.00    +0.000 C 
ENDBRANCH  28  31
ENDBRANCH  22  26
ENDBRANCH   1  22
TORSDOF 7
ENDMDL
MODEL 5
REMARK VINA RESULT:      -7.3      0.875      1.937
REMARK  Name = 
REMARK  9 active torsions:
REMARK  status: ('A' for Active; 'I' for Inactive)
REMARK    1  A    between atoms: C_1  and  O_2
REMARK    2  A    between atoms: O_2  and  C_3
REMARK    3  A    between atoms: C_6  and  C_7
REMARK    4  A    between atoms: C_7  and  N_8
REMARK    5  A    between atoms: N_8  and  C_22
REMARK    6  A    between atoms: C_9  and  C_11
REMARK    7  A    between atoms: C_13  and  C_14
REMARK    8  A    between atoms: C_30  and  O_31
REMARK    9  A    between atoms: O_31  and  C_32
REMARK                            x       y       z     vdW  Elec       q    Type
REMARK                         _______ _______ _______ _____ _____    ______ ____
ROOT
ATOM      1  N   UNL     1      -0.046  11.760  19.121  0.00  0.00    +0.000 N 
ATOM      2  C   UNL     1      -0.249  10.397  18.731  0.00  0.00    +0.000 C 
ATOM      3  O   UNL     1      -1.361  10.002  18.381  0.00  0.00    +0.000 OA
ENDROOT
BRANCH   1   4
ATOM      4  C   UNL     1       1.287  12.274  19.515  0.00  0.00    +0.000 C 
ATOM      5  C   UNL     1       1.833  13.317  18.508  0.00  0.00    +0.000 C 
ATOM      6  C   UNL     1       3.091  13.884  19.136  0.00  0.00    +0.000 C 
ATOM      7  S   UNL     1       2.667  14.088  20.846  0.00  0.00    +0.000 S 
ATOM      8  O   UNL     1       2.034  15.388  20.995  0.00  0.00    +0.000 OA
ATOM      9  O   UNL     1       3.780  13.689  21.662  0.00  0.00    +0.000 OA
ATOM     10  C   UNL     1       1.392  12.853  20.926  0.00  0.00    +0.000 C 
ENDBRANCH   1   4
BRANCH   2  11
ATOM     11  C   UNL     1       0.894   9.442  18.796  0.00  0.00    +0.000 A 
ATOM     12  C   UNL     1       1.789   9.021  17.760  0.00  0.00    +0.000 A 
ATOM     13  C   UNL     1       2.477   7.943  18.291  0.00  0.00    +0.000 A 
ATOM     14  O   UNL     1       2.157   7.859  19.610  0.00  0.00    +0.000 OA
ATOM     15  N   UNL     1       1.248   8.822  19.932  0.00  0.00    +0.000 NA
BRANCH  13  16
ATOM     16  C   UNL     1       3.365   6.883  17.810  0.00  0.00    +0.000 A 
ATOM     17  C   UNL     1       4.410   7.152  16.919  0.00  0.00    +0.000 A 
ATOM     18  C   UNL     1       5.175   6.109  16.378  0.00  0.00    +0.000 A 
ATOM     19  C   UNL     1       4.926   4.786  16.737  0.00  0.00    +0.000 A 
ATOM     20  C   UNL     1       3.922   4.500  17.653  0.00  0.00    +0.000 A 
ATOM     21  C   UNL     1       3.145   5.538  18.176  0.00  0.00    +0.000 A 
ENDBRANCH  13  16
ENDBRANCH   2  11
BRANCH   1  22
ATOM     22  C   UNL     1      -1.136  12.742  18.902  0.00  0.00    +0.000 C 
BRANCH  22  26
ATOM     23  C   UNL     1      -4.398  12.662  21.837  0.00  0.00    +0.000 A 
ATOM     24  C   UNL     1      -4.632  12.465  20.469  0.00  0.00    +0.000 A 
ATOM     25  C   UNL     1      -3.581  12.504  19.539  0.00  0.00    +0.000 A 
ATOM     26  C   UNL     1      -2.259  12.770  19.935  0.00  0.00    +0.000 A 
ATOM     27  C   UNL     1      -2.032  12.932  21.306  0.00  0.00    +0.000 A 
ATOM     28  C   UNL     1      -3.070  12.830  22.263  0.00  0.00    +0.000 A 
BRANCH  23  30
ATOM     29  C   UNL     1      -6.500  13.597  22.464  0.00  0.00    +0.000 C 
ATOM     30  O   UNL     1      -5.420  12.705  22.757  0.00  0.00    +0.000 OA
ENDBRANCH  23  30
BRANCH  28  31
ATOM     31  O   UNL     1      -2.617  13.004  23.543  0.00  0.00    +0.000 OA
ATOM     32  C   UNL     1      -1.856  14.162  23.868  0.00  0.00    +0.000 C 
ENDBRANCH  28  31
ENDBRANCH  22  26
ENDBRANCH   1  22
TORSDOF 7
ENDMDL
MODEL 6
REMARK VINA RESULT:      -7.2      1.063      1.106
REMARK  Name = 
REMARK  9 active torsions:
REMARK  status: ('A' for Active; 'I' for Inactive)
REMARK    1  A    between atoms: C_1  and  O_2
REMARK    2  A    between atoms: O_2  and  C_3
REMARK    3  A    between atoms: C_6  and  C_7
REMARK    4  A    between atoms: C_7  and  N_8
REMARK    5  A    between atoms: N_8  and  C_22
REMARK    6  A    between atoms: C_9  and  C_11
REMARK    7  A    between atoms: C_13  and  C_14
REMARK    8  A    between atoms: C_30  and  O_31
REMARK    9  A    between atoms: O_31  and  C_32
REMARK                            x       y       z     vdW  Elec       q    Type
REMARK                         _______ _______ _______ _____ _____    ______ ____
ROOT
ATOM      1  N   UNL     1      -0.032  11.938  19.123  0.00  0.00    +0.000 N 
ATOM      2  C   UNL     1      -0.308  10.578  18.771  0.00  0.00    +0.000 C 
ATOM      3  O   UNL     1      -1.444  10.228  18.452  0.00  0.00    +0.000 OA
ENDROOT
BRANCH   1   4
ATOM      4  C   UNL     1       1.331  12.397  19.480  0.00  0.00    +0.000 C 
ATOM      5  C   UNL     1       1.880  13.439  18.474  0.00  0.00    +0.000 C 
ATOM      6  C   UNL     1       3.178  13.948  19.069  0.00  0.00    +0.000 C 
ATOM      7  S   UNL     1       2.819  14.134  20.795  0.00  0.00    +0.000 S 
ATOM      8  O   UNL     1       2.240  15.454  20.990  0.00  0.00    +0.000 OA
ATOM      9  O   UNL     1       3.944  13.680  21.566  0.00  0.00    +0.000 OA
ATOM     10  C   UNL     1       1.504  12.944  20.897  0.00  0.00    +0.000 C 
ENDBRANCH   1   4
BRANCH   2  11
ATOM     11  C   UNL     1       0.789   9.570  18.841  0.00  0.00    +0.000 A 
ATOM     12  C   UNL     1       1.603   9.037  17.791  0.00  0.00    +0.000 A 
ATOM     13  C   UNL     1       2.266   7.961  18.356  0.00  0.00    +0.000 A 
ATOM     14  O   UNL     1       2.017   7.979  19.693  0.00  0.00    +0.000 OA
ATOM     15  N   UNL     1       1.175   9.007  19.997  0.00  0.00    +0.000 NA
BRANCH  13  16
ATOM     16  C   UNL     1       3.074   6.826  17.903  0.00  0.00    +0.000 A 
ATOM     17  C   UNL     1       2.637   5.507  18.066  0.00  0.00    +0.000 A 
ATOM     18  C   UNL     1       3.473   4.431  17.735  0.00  0.00    +0.000 A 
ATOM     19  C   UNL     1       4.745   4.655  17.213  0.00  0.00    +0.000 A 
ATOM     20  C   UNL     1       5.182   5.956  17.003  0.00  0.00    +0.000 A 
ATOM     21  C   UNL     1       4.357   7.029  17.353  0.00  0.00    +0.000 A 
ENDBRANCH  13  16
ENDBRANCH   2  11
BRANCH   1  22
ATOM     22  C   UNL     1      -1.078  12.966  18.898  0.00  0.00    +0.000 C 
BRANCH  22  26
ATOM     23  C   UNL     1      -3.420  14.410  22.317  0.00  0.00    +0.000 A 
ATOM     24  C   UNL     1      -2.343  15.143  21.798  0.00  0.00    +0.000 A 
ATOM     25  C   UNL     1      -1.595  14.664  20.711  0.00  0.00    +0.000 A 
ATOM     26  C   UNL     1      -1.875  13.421  20.118  0.00  0.00    +0.000 A 
ATOM     27  C   UNL     1      -2.972  12.715  20.620  0.00  0.00    +0.000 A 
ATOM     28  C   UNL     1      -3.777  13.214  21.673  0.00  0.00    +0.000 A 
BRANCH  23  30
ATOM     29  C   UNL     1      -3.585  14.422  24.695  0.00  0.00    +0.000 C 
ATOM     30  O   UNL     1      -4.119  14.821  23.428  0.00  0.00    +0.000 OA
ENDBRANCH  23  30
BRANCH  28  31
ATOM     31  O   UNL     1      -4.804  12.367  21.990  0.00  0.00    +0.000 OA
ATOM     32  C   UNL     1      -5.946  12.299  21.142  0.00  0.00    +0.000 C 
ENDBRANCH  28  31
ENDBRANCH  22  26
ENDBRANCH   1  22
TORSDOF 7
ENDMDL
MODEL 7
REMARK VINA RESULT:      -7.0      4.485     11.190
REMARK  Name = 
REMARK  9 active torsions:
REMARK  status: ('A' for Active; 'I' for Inactive)
REMARK    1  A    between atoms: C_1  and  O_2
REMARK    2  A    between atoms: O_2  and  C_3
REMARK    3  A    between atoms: C_6  and  C_7
REMARK    4  A    between atoms: C_7  and  N_8
REMARK    5  A    between atoms: N_8  and  C_22
REMARK    6  A    between atoms: C_9  and  C_11
REMARK    7  A    between atoms: C_13  and  C_14
REMARK    8  A    between atoms: C_30  and  O_31
REMARK    9  A    between atoms: O_31  and  C_32
REMARK                            x       y       z     vdW  Elec       q    Type
REMARK                         _______ _______ _______ _____ _____    ______ ____
ROOT
ATOM      1  N   UNL     1       4.517   5.473  18.454  0.00  0.00    +0.000 N 
ATOM      2  C   UNL     1       4.420   6.862  18.118  0.00  0.00    +0.000 C 
ATOM      3  O   UNL     1       5.390   7.469  17.663  0.00  0.00    +0.000 OA
ENDROOT
BRANCH   1   4
ATOM      4  C   UNL     1       3.358   4.708  18.971  0.00  0.00    +0.000 C 
ATOM      5  C   UNL     1       2.360   4.328  17.849  0.00  0.00    +0.000 C 
ATOM      6  C   UNL     1       1.348   3.398  18.490  0.00  0.00    +0.000 C 
ATOM      7  S   UNL     1       2.325   2.344  19.529  0.00  0.00    +0.000 S 
ATOM      8  O   UNL     1       2.797   1.234  18.717  0.00  0.00    +0.000 OA
ATOM      9  O   UNL     1       1.638   2.135  20.773  0.00  0.00    +0.000 OA
ATOM     10  C   UNL     1       3.691   3.453  19.778  0.00  0.00    +0.000 C 
ENDBRANCH   1   4
BRANCH   2  11
ATOM     11  C   UNL     1       3.141   7.586  18.369  0.00  0.00    +0.000 A 
ATOM     12  C   UNL     1       2.413   8.472  17.510  0.00  0.00    +0.000 A 
ATOM     13  C   UNL     1       1.458   9.060  18.322  0.00  0.00    +0.000 A 
ATOM     14  O   UNL     1       1.488   8.422  19.522  0.00  0.00    +0.000 OA
ATOM     15  N   UNL     1       2.466   7.472  19.523  0.00  0.00    +0.000 NA
BRANCH  13  16
ATOM     16  C   UNL     1       0.516  10.179  18.250  0.00  0.00    +0.000 A 
ATOM     17  C   UNL     1       0.872  11.463  18.678  0.00  0.00    +0.000 A 
ATOM     18  C   UNL     1      -0.078  12.494  18.713  0.00  0.00    +0.000 A 
ATOM     19  C   UNL     1      -1.389  12.265  18.297  0.00  0.00    +0.000 A 
ATOM     20  C   UNL     1      -1.752  11.009  17.829  0.00  0.00    +0.000 A 
ATOM     21  C   UNL     1      -0.810   9.976  17.814  0.00  0.00    +0.000 A 
ENDBRANCH  13  16
ENDBRANCH   2  11
BRANCH   1  22
ATOM     22  C   UNL     1       5.731   4.720  18.055  0.00  0.00    +0.000 C 
BRANCH  22  26
ATOM     23  C   UNL     1       6.209   4.159  13.729  0.00  0.00    +0.000 A 
ATOM     24  C   UNL     1       5.086   3.675  14.416  0.00  0.00    +0.000 A 
ATOM     25  C   UNL     1       4.952   3.851  15.802  0.00  0.00    +0.000 A 
ATOM     26  C   UNL     1       5.945   4.492  16.561  0.00  0.00    +0.000 A 
ATOM     27  C   UNL     1       7.044   5.002  15.862  0.00  0.00    +0.000 A 
ATOM     28  C   UNL     1       7.164   4.890  14.455  0.00  0.00    +0.000 A 
BRANCH  23  30
ATOM     29  C   UNL     1       5.969   2.662  11.890  0.00  0.00    +0.000 C 
ATOM     30  O   UNL     1       6.401   3.932  12.386  0.00  0.00    +0.000 OA
ENDBRANCH  23  30
BRANCH  28  31
ATOM     31  O   UNL     1       8.307   5.475  13.982  0.00  0.00    +0.000 OA
ATOM     32  C   UNL     1       8.367   5.906  12.627  0.00  0.00    +0.000 C 
ENDBRANCH  28  31
ENDBRANCH  22  26
ENDBRANCH   1  22
TORSDOF 7
ENDMDL
MODEL 8
REMARK VINA RESULT:      -7.0      1.189      1.897
REMARK  Name = 
REMARK  9 active torsions:
REMARK  status: ('A' for Active; 'I' for Inactive)
REMARK    1  A    between atoms: C_1  and  O_2
REMARK    2  A    between atoms: O_2  and  C_3
REMARK    3  A    between atoms: C_6  and  C_7
REMARK    4  A    between atoms: C_7  and  N_8
REMARK    5  A    between atoms: N_8  and  C_22
REMARK    6  A    between atoms: C_9  and  C_11
REMARK    7  A    between atoms: C_13  and  C_14
REMARK    8  A    between atoms: C_30  and  O_31
REMARK    9  A    between atoms: O_31  and  C_32
REMARK                            x       y       z     vdW  Elec       q    Type
REMARK                         _______ _______ _______ _____ _____    ______ ____
ROOT
ATOM      1  N   UNL     1      -0.070  11.992  19.166  0.00  0.00    +0.000 N 
ATOM      2  C   UNL     1      -0.348  10.637  18.795  0.00  0.00    +0.000 C 
ATOM      3  O   UNL     1      -1.483  10.296  18.459  0.00  0.00    +0.000 OA
ENDROOT
BRANCH   1   4
ATOM      4  C   UNL     1       1.291  12.440  19.543  0.00  0.00    +0.000 C 
ATOM      5  C   UNL     1       1.847  13.508  18.568  0.00  0.00    +0.000 C 
ATOM      6  C   UNL     1       3.142  14.000  19.184  0.00  0.00    +0.000 C 
ATOM      7  S   UNL     1       2.772  14.141  20.913  0.00  0.00    +0.000 S 
ATOM      8  O   UNL     1       2.192  15.456  21.138  0.00  0.00    +0.000 OA
ATOM      9  O   UNL     1       3.892  13.666  21.678  0.00  0.00    +0.000 OA
ATOM     10  C   UNL     1       1.455  12.950  20.975  0.00  0.00    +0.000 C 
ENDBRANCH   1   4
BRANCH   2  11
ATOM     11  C   UNL     1       0.743   9.623  18.866  0.00  0.00    +0.000 A 
ATOM     12  C   UNL     1       1.580   9.113  17.822  0.00  0.00    +0.000 A 
ATOM     13  C   UNL     1       2.225   8.021  18.376  0.00  0.00    +0.000 A 
ATOM     14  O   UNL     1       1.945   8.007  19.706  0.00  0.00    +0.000 OA
ATOM     15  N   UNL     1       1.100   9.031  20.016  0.00  0.00    +0.000 NA
BRANCH  13  16
ATOM     16  C   UNL     1       3.039   6.894  17.914  0.00  0.00    +0.000 A 
ATOM     17  C   UNL     1       2.646   5.569  18.135  0.00  0.00    +0.000 A 
ATOM     18  C   UNL     1       3.493   4.506  17.792  0.00  0.00    +0.000 A 
ATOM     19  C   UNL     1       4.731   4.747  17.200  0.00  0.00    +0.000 A 
ATOM     20  C   UNL     1       5.122   6.052  16.932  0.00  0.00    +0.000 A 
ATOM     21  C   UNL     1       4.287   7.114  17.294  0.00  0.00    +0.000 A 
ENDBRANCH  13  16
ENDBRANCH   2  11
BRANCH   1  22
ATOM     22  C   UNL     1      -1.109  13.027  18.941  0.00  0.00    +0.000 C 
BRANCH  22  26
ATOM     23  C   UNL     1      -3.815  13.715  22.327  0.00  0.00    +0.000 A 
ATOM     24  C   UNL     1      -4.143  12.832  21.288  0.00  0.00    +0.000 A 
ATOM     25  C   UNL     1      -3.273  12.630  20.205  0.00  0.00    +0.000 A 
ATOM     26  C   UNL     1      -2.055  13.323  20.102  0.00  0.00    +0.000 A 
ATOM     27  C   UNL     1      -1.722  14.174  21.160  0.00  0.00    +0.000 A 
ATOM     28  C   UNL     1      -2.557  14.340  22.291  0.00  0.00    +0.000 A 
BRANCH  23  30
ATOM     29  C   UNL     1      -5.187  12.859  24.078  0.00  0.00    +0.000 C 
ATOM     30  O   UNL     1      -4.683  13.988  23.358  0.00  0.00    +0.000 OA
ENDBRANCH  23  30
BRANCH  28  31
ATOM     31  O   UNL     1      -2.026  15.204  23.209  0.00  0.00    +0.000 OA
ATOM     32  C   UNL     1      -0.615  15.387  23.268  0.00  0.00    +0.000 C 
ENDBRANCH  28  31
ENDBRANCH  22  26
ENDBRANCH   1  22
TORSDOF 7
ENDMDL
MODEL 9
REMARK VINA RESULT:      -7.0      0.981      1.298
REMARK  Name = 
REMARK  9 active torsions:
REMARK  status: ('A' for Active; 'I' for Inactive)
REMARK    1  A    between atoms: C_1  and  O_2
REMARK    2  A    between atoms: O_2  and  C_3
REMARK    3  A    between atoms: C_6  and  C_7
REMARK    4  A    between atoms: C_7  and  N_8
REMARK    5  A    between atoms: N_8  and  C_22
REMARK    6  A    between atoms: C_9  and  C_11
REMARK    7  A    between atoms: C_13  and  C_14
REMARK    8  A    between atoms: C_30  and  O_31
REMARK    9  A    between atoms: O_31  and  C_32
REMARK                            x       y       z     vdW  Elec       q    Type
REMARK                         _______ _______ _______ _____ _____    ______ ____
ROOT
ATOM      1  N   UNL     1      -0.067  11.779  19.493  0.00  0.00    +0.000 N 
ATOM      2  C   UNL     1      -0.330  10.405  19.188  0.00  0.00    +0.000 C 
ATOM      3  O   UNL     1      -1.481  10.012  18.995  0.00  0.00    +0.000 OA
ENDROOT
BRANCH   1   4
ATOM      4  C   UNL     1       1.309  12.289  19.697  0.00  0.00    +0.000 C 
ATOM      5  C   UNL     1       1.870  12.983  18.431  0.00  0.00    +0.000 C 
ATOM      6  C   UNL     1       3.185  13.612  18.848  0.00  0.00    +0.000 C 
ATOM      7  S   UNL     1       2.848  14.298  20.448  0.00  0.00    +0.000 S 
ATOM      8  O   UNL     1       2.298  15.630  20.254  0.00  0.00    +0.000 OA
ATOM      9  O   UNL     1       3.971  14.060  21.313  0.00  0.00    +0.000 OA
ATOM     10  C   UNL     1       1.508  13.219  20.894  0.00  0.00    +0.000 C 
ENDBRANCH   1   4
BRANCH   2  11
ATOM     11  C   UNL     1       0.803   9.436  19.152  0.00  0.00    +0.000 A 
ATOM     12  C   UNL     1       1.601   9.011  18.041  0.00  0.00    +0.000 A 
ATOM     13  C   UNL     1       2.319   7.923  18.507  0.00  0.00    +0.000 A 
ATOM     14  O   UNL     1       2.113   7.836  19.848  0.00  0.00    +0.000 OA
ATOM     15  N   UNL     1       1.246   8.807  20.251  0.00  0.00    +0.000 NA
BRANCH  13  16
ATOM     16  C   UNL     1       3.151   6.854  17.948  0.00  0.00    +0.000 A 
ATOM     17  C   UNL     1       4.306   7.138  17.209  0.00  0.00    +0.000 A 
ATOM     18  C   UNL     1       5.023   6.109  16.583  0.00  0.00    +0.000 A 
ATOM     19  C   UNL     1       4.615   4.782  16.704  0.00  0.00    +0.000 A 
ATOM     20  C   UNL     1       3.496   4.475  17.468  0.00  0.00    +0.000 A 
ATOM     21  C   UNL     1       2.769   5.502  18.075  0.00  0.00    +0.000 A 
ENDBRANCH  13  16
ENDBRANCH   2  11
BRANCH   1  22
ATOM     22  C   UNL     1      -1.167  12.767  19.370  0.00  0.00    +0.000 C 
BRANCH  22  26
ATOM     23  C   UNL     1      -3.599  13.373  22.972  0.00  0.00    +0.000 A 
ATOM     24  C   UNL     1      -2.620  12.372  22.903  0.00  0.00    +0.000 A 
ATOM     25  C   UNL     1      -1.857  12.181  21.740  0.00  0.00    +0.000 A 
ATOM     26  C   UNL     1      -2.061  12.964  20.591  0.00  0.00    +0.000 A 
ATOM     27  C   UNL     1      -3.015  13.982  20.682  0.00  0.00    +0.000 A 
ATOM     28  C   UNL     1      -3.747  14.230  21.869  0.00  0.00    +0.000 A 
BRANCH  23  30
ATOM     29  C   UNL     1      -5.655  12.823  24.045  0.00  0.00    +0.000 C 
ATOM     30  O   UNL     1      -4.411  13.529  24.071  0.00  0.00    +0.000 OA
ENDBRANCH  23  30
BRANCH  28  31
ATOM     31  O   UNL     1      -4.611  15.284  21.738  0.00  0.00    +0.000 OA
ATOM     32  C   UNL     1      -5.805  15.124  20.978  0.00  0.00    +0.000 C 
ENDBRANCH  28  31
ENDBRANCH  22  26
ENDBRANCH   1  22
TORSDOF 7
ENDMDL
