MODEL 1
REMARK VINA RESULT:      -8.0      0.000      0.000
REMARK  Name = 
REMARK  16 active torsions:
REMARK  status: ('A' for Active; 'I' for Inactive)
REMARK    1  A    between atoms: C_1  and  C_2
REMARK    2  A    between atoms: C_2  and  C_3
REMARK    3  A    between atoms: C_2  and  C_4
REMARK    4  A    between atoms: C_2  and  C_5
REMARK    5  A    between atoms: C_8  and  O_9
REMARK    6  A    between atoms: O_9  and  C_10
REMARK    7  A    between atoms: C_10  and  C_11
REMARK    8  A    between atoms: C_11  and  C_12
REMARK    9  A    between atoms: C_12  and  O_13
REMARK   10  A    between atoms: O_13  and  N_14
REMARK   11  A    between atoms: C_21  and  C_22
REMARK   12  A    between atoms: C_21  and  C_23
REMARK   13  A    between atoms: C_24  and  C_25
REMARK   14  A    between atoms: C_25  and  C_26
REMARK   15  A    between atoms: C_25  and  C_27
REMARK   16  A    between atoms: C_25  and  C_28
REMARK                            x       y       z     vdW  Elec       q    Type
REMARK                         _______ _______ _______ _____ _____    ______ ____
ROOT
ATOM      1  C   UNL     1       1.625  10.036  18.211  0.00  0.00    +0.000 C 
ENDROOT
BRANCH   1   2
ATOM      2  C   UNL     1       1.886   8.607  17.709  0.00  0.00    +0.000 C 
BRANCH   2   3
ATOM      3  O   UNL     1       3.236   8.110  17.748  0.00  0.00    +0.000 OA
BRANCH   3   7
ATOM      4  C   UNL     1       3.195   4.259  19.562  0.00  0.00    +0.000 A 
ATOM      5  C   UNL     1       2.375   5.291  20.003  0.00  0.00    +0.000 A 
ATOM      6  C   UNL     1       2.462   6.559  19.442  0.00  0.00    +0.000 A 
ATOM      7  C   UNL     1       3.324   6.860  18.366  0.00  0.00    +0.000 A 
ATOM      8  C   UNL     1       4.250   5.869  17.959  0.00  0.00    +0.000 A 
ATOM      9  C   UNL     1       4.150   4.588  18.586  0.00  0.00    +0.000 A 
BRANCH   4  11
ATOM     10  C   UNL     1       2.363   2.956  21.506  0.00  0.00    +0.000 C 
ATOM     11  C   UNL     1       2.985   2.837  20.096  0.00  0.00    +0.000 C 
ATOM     12  C   UNL     1       4.324   2.077  20.188  0.00  0.00    +0.000 C 
ATOM     13  C   UNL     1       2.030   1.983  19.236  0.00  0.00    +0.000 C 
ENDBRANCH   4  11
BRANCH   8  14
ATOM     14  C   UNL     1       5.382   6.001  16.908  0.00  0.00    +0.000 C 
ATOM     15  C   UNL     1       4.941   6.555  15.545  0.00  0.00    +0.000 C 
ATOM     16  C   UNL     1       6.506   6.925  17.463  0.00  0.00    +0.000 C 
ATOM     17  C   UNL     1       6.028   4.614  16.638  0.00  0.00    +0.000 C 
ENDBRANCH   8  14
ENDBRANCH   3   7
ENDBRANCH   2   3
ENDBRANCH   1   2
BRANCH   1  18
ATOM     18  C   UNL     1       0.805   9.898  19.515  0.00  0.00    +0.000 C 
BRANCH  18  19
ATOM     19  O   UNL     1       1.020  10.964  20.454  0.00  0.00    +0.000 OA
BRANCH  19  20
ATOM     20  N   UNL     1      -0.173  11.181  21.223  0.00  0.00    +0.000 N 
ATOM     21  C   UNL     1      -0.299  10.645  22.531  0.00  0.00    +0.000 C 
ATOM     22  N   UNL     1       0.618   9.892  23.016  0.00  0.00    +0.000 NA
ATOM     23  N   UNL     1      -1.354  10.882  23.326  0.00  0.00    +0.000 NA
ATOM     24  C   UNL     1      -2.250  11.695  22.960  0.00  0.00    +0.000 C 
ATOM     25  N   UNL     1      -3.305  12.040  23.724  0.00  0.00    +0.000 N 
ATOM     26  N   UNL     1      -2.240  12.354  21.743  0.00  0.00    +0.000 N 
ATOM     27  C   UNL     1      -1.154  12.187  20.812  0.00  0.00    +0.000 C 
ATOM     28  C   UNL     1      -0.471  13.546  20.691  0.00  0.00    +0.000 C 
ATOM     29  C   UNL     1      -1.794  11.759  19.493  0.00  0.00    +0.000 C 
ATOM     30  H   UNL     1       1.393   9.799  22.368  0.00  0.00    +0.000 HD
ATOM     31  H   UNL     1      -3.416  11.475  24.561  0.00  0.00    +0.000 HD
ATOM     32  H   UNL     1      -4.188  12.311  23.311  0.00  0.00    +0.000 HD
ATOM     33  H   UNL     1      -2.961  13.033  21.538  0.00  0.00    +0.000 HD
ENDBRANCH  19  20
ENDBRANCH  18  19
ENDBRANCH   1  18
TORSDOF 8
ENDMDL
MODEL 2
REMARK VINA RESULT:      -7.6      1.552      3.832
REMARK  Name = 
REMARK  16 active torsions:
REMARK  status: ('A' for Active; 'I' for Inactive)
REMARK    1  A    between atoms: C_1  and  C_2
REMARK    2  A    between atoms: C_2  and  C_3
REMARK    3  A    between atoms: C_2  and  C_4
REMARK    4  A    between atoms: C_2  and  C_5
REMARK    5  A    between atoms: C_8  and  O_9
REMARK    6  A    between atoms: O_9  and  C_10
REMARK    7  A    between atoms: C_10  and  C_11
REMARK    8  A    between atoms: C_11  and  C_12
REMARK    9  A    between atoms: C_12  and  O_13
REMARK   10  A    between atoms: O_13  and  N_14
REMARK   11  A    between atoms: C_21  and  C_22
REMARK   12  A    between atoms: C_21  and  C_23
REMARK   13  A    between atoms: C_24  and  C_25
REMARK   14  A    between atoms: C_25  and  C_26
REMARK   15  A    between atoms: C_25  and  C_27
REMARK   16  A    between atoms: C_25  and  C_28
REMARK                            x       y       z     vdW  Elec       q    Type
REMARK                         _______ _______ _______ _____ _____    ______ ____
ROOT
ATOM      1  C   UNL     1       1.483   8.795  22.080  0.00  0.00    +0.000 C 
ENDROOT
BRANCH   1   2
ATOM      2  C   UNL     1       1.464   8.168  20.676  0.00  0.00    +0.000 C 
BRANCH   2   3
ATOM      3  O   UNL     1       1.536   6.734  20.572  0.00  0.00    +0.000 OA
BRANCH   3   7
ATOM      4  C   UNL     1       4.282   5.674  17.497  0.00  0.00    +0.000 A 
ATOM      5  C   UNL     1       3.810   6.972  17.649  0.00  0.00    +0.000 A 
ATOM      6  C   UNL     1       2.858   7.276  18.614  0.00  0.00    +0.000 A 
ATOM      7  C   UNL     1       2.365   6.319  19.527  0.00  0.00    +0.000 A 
ATOM      8  C   UNL     1       2.738   4.966  19.339  0.00  0.00    +0.000 A 
ATOM      9  C   UNL     1       3.694   4.692  18.311  0.00  0.00    +0.000 A 
BRANCH   4  11
ATOM     10  C   UNL     1       5.397   3.881  16.189  0.00  0.00    +0.000 C 
ATOM     11  C   UNL     1       5.431   5.390  16.523  0.00  0.00    +0.000 C 
ATOM     12  C   UNL     1       6.794   5.743  17.156  0.00  0.00    +0.000 C 
ATOM     13  C   UNL     1       5.328   6.164  15.193  0.00  0.00    +0.000 C 
ENDBRANCH   4  11
BRANCH   8  14
ATOM     14  C   UNL     1       2.228   3.723  20.111  0.00  0.00    +0.000 C 
ATOM     15  C   UNL     1       2.324   3.824  21.641  0.00  0.00    +0.000 C 
ATOM     16  C   UNL     1       0.740   3.451  19.740  0.00  0.00    +0.000 C 
ATOM     17  C   UNL     1       3.036   2.463  19.695  0.00  0.00    +0.000 C 
ENDBRANCH   8  14
ENDBRANCH   3   7
ENDBRANCH   2   3
ENDBRANCH   1   2
BRANCH   1  18
ATOM     18  C   UNL     1       0.279   9.763  22.143  0.00  0.00    +0.000 C 
BRANCH  18  19
ATOM     19  O   UNL     1       0.533  11.047  21.550  0.00  0.00    +0.000 OA
BRANCH  19  20
ATOM     20  N   UNL     1      -0.702  11.626  21.102  0.00  0.00    +0.000 N 
ATOM     21  C   UNL     1      -1.539  12.335  22.003  0.00  0.00    +0.000 C 
ATOM     22  N   UNL     1      -1.244  12.400  23.249  0.00  0.00    +0.000 NA
ATOM     23  N   UNL     1      -2.662  12.966  21.625  0.00  0.00    +0.000 NA
ATOM     24  C   UNL     1      -2.966  13.033  20.401  0.00  0.00    +0.000 C 
ATOM     25  N   UNL     1      -4.037  13.702  19.930  0.00  0.00    +0.000 N 
ATOM     26  N   UNL     1      -2.219  12.454  19.389  0.00  0.00    +0.000 N 
ATOM     27  C   UNL     1      -0.989  11.760  19.673  0.00  0.00    +0.000 C 
ATOM     28  C   UNL     1       0.126  12.558  19.001  0.00  0.00    +0.000 C 
ATOM     29  C   UNL     1      -1.139  10.371  19.056  0.00  0.00    +0.000 C 
ATOM     30  H   UNL     1      -0.363  11.935  23.439  0.00  0.00    +0.000 HD
ATOM     31  H   UNL     1      -4.678  14.021  20.651  0.00  0.00    +0.000 HD
ATOM     32  H   UNL     1      -4.508  13.414  19.083  0.00  0.00    +0.000 HD
ATOM     33  H   UNL     1      -2.491  12.594  18.425  0.00  0.00    +0.000 HD
ENDBRANCH  19  20
ENDBRANCH  18  19
ENDBRANCH   1  18
TORSDOF 8
ENDMDL
MODEL 3
REMARK VINA RESULT:      -7.6      3.851      9.195
REMARK  Name = 
REMARK  16 active torsions:
REMARK  status: ('A' for Active; 'I' for Inactive)
REMARK    1  A    between atoms: C_1  and  C_2
REMARK    2  A    between atoms: C_2  and  C_3
REMARK    3  A    between atoms: C_2  and  C_4
REMARK    4  A    between atoms: C_2  and  C_5
REMARK    5  A    between atoms: C_8  and  O_9
REMARK    6  A    between atoms: O_9  and  C_10
REMARK    7  A    between atoms: C_10  and  C_11
REMARK    8  A    between atoms: C_11  and  C_12
REMARK    9  A    between atoms: C_12  and  O_13
REMARK   10  A    between atoms: O_13  and  N_14
REMARK   11  A    between atoms: C_21  and  C_22
REMARK   12  A    between atoms: C_21  and  C_23
REMARK   13  A    between atoms: C_24  and  C_25
REMARK   14  A    between atoms: C_25  and  C_26
REMARK   15  A    between atoms: C_25  and  C_27
REMARK   16  A    between atoms: C_25  and  C_28
REMARK                            x       y       z     vdW  Elec       q    Type
REMARK                         _______ _______ _______ _____ _____    ______ ____
ROOT
ATOM      1  C   UNL     1       0.989   7.228  20.665  0.00  0.00    +0.000 C 
ENDROOT
BRANCH   1   2
ATOM      2  C   UNL     1       1.328   8.400  21.600  0.00  0.00    +0.000 C 
BRANCH   2   3
ATOM      3  O   UNL     1       1.318   9.731  21.050  0.00  0.00    +0.000 OA
BRANCH   3   7
ATOM      4  C   UNL     1      -2.022  12.028  22.349  0.00  0.00    +0.000 A 
ATOM      5  C   UNL     1      -1.387  11.114  23.181  0.00  0.00    +0.000 A 
ATOM      6  C   UNL     1      -0.347  10.323  22.709  0.00  0.00    +0.000 A 
ATOM      7  C   UNL     1       0.167  10.440  21.400  0.00  0.00    +0.000 A 
ATOM      8  C   UNL     1      -0.518  11.281  20.489  0.00  0.00    +0.000 A 
ATOM      9  C   UNL     1      -1.606  12.051  21.008  0.00  0.00    +0.000 A 
BRANCH   4  11
ATOM     10  C   UNL     1      -2.325  14.248  23.423  0.00  0.00    +0.000 C 
ATOM     11  C   UNL     1      -3.069  12.986  22.927  0.00  0.00    +0.000 C 
ATOM     12  C   UNL     1      -3.822  12.338  24.108  0.00  0.00    +0.000 C 
ATOM     13  C   UNL     1      -4.130  13.443  21.903  0.00  0.00    +0.000 C 
ENDBRANCH   4  11
BRANCH   8  14
ATOM     14  C   UNL     1      -0.240  11.471  18.976  0.00  0.00    +0.000 C 
ATOM     15  C   UNL     1      -1.267  12.337  18.231  0.00  0.00    +0.000 C 
ATOM     16  C   UNL     1       1.164  12.114  18.779  0.00  0.00    +0.000 C 
ATOM     17  C   UNL     1      -0.213  10.093  18.259  0.00  0.00    +0.000 C 
ENDBRANCH   8  14
ENDBRANCH   3   7
ENDBRANCH   2   3
ENDBRANCH   1   2
BRANCH   1  18
ATOM     18  C   UNL     1       2.326   6.768  20.038  0.00  0.00    +0.000 C 
BRANCH  18  19
ATOM     19  O   UNL     1       2.189   5.685  19.104  0.00  0.00    +0.000 OA
BRANCH  19  20
ATOM     20  N   UNL     1       3.064   4.610  19.477  0.00  0.00    +0.000 N 
ATOM     21  C   UNL     1       2.621   3.587  20.357  0.00  0.00    +0.000 C 
ATOM     22  N   UNL     1       1.460   3.651  20.895  0.00  0.00    +0.000 NA
ATOM     23  N   UNL     1       3.365   2.516  20.676  0.00  0.00    +0.000 NA
ATOM     24  C   UNL     1       4.478   2.330  20.109  0.00  0.00    +0.000 C 
ATOM     25  N   UNL     1       5.256   1.250  20.321  0.00  0.00    +0.000 N 
ATOM     26  N   UNL     1       5.022   3.197  19.176  0.00  0.00    +0.000 N 
ATOM     27  C   UNL     1       4.311   4.374  18.748  0.00  0.00    +0.000 C 
ATOM     28  C   UNL     1       4.006   4.182  17.264  0.00  0.00    +0.000 C 
ATOM     29  C   UNL     1       5.261   5.547  18.980  0.00  0.00    +0.000 C 
ATOM     30  H   UNL     1       0.952   4.467  20.568  0.00  0.00    +0.000 HD
ATOM     31  H   UNL     1       4.954   0.666  21.095  0.00  0.00    +0.000 HD
ATOM     32  H   UNL     1       6.262   1.299  20.232  0.00  0.00    +0.000 HD
ATOM     33  H   UNL     1       5.893   2.958  18.721  0.00  0.00    +0.000 HD
ENDBRANCH  19  20
ENDBRANCH  18  19
ENDBRANCH   1  18
TORSDOF 8
ENDMDL
MODEL 4
REMARK VINA RESULT:      -7.6      2.106      4.377
REMARK  Name = 
REMARK  16 active torsions:
REMARK  status: ('A' for Active; 'I' for Inactive)
REMARK    1  A    between atoms: C_1  and  C_2
REMARK    2  A    between atoms: C_2  and  C_3
REMARK    3  A    between atoms: C_2  and  C_4
REMARK    4  A    between atoms: C_2  and  C_5
REMARK    5  A    between atoms: C_8  and  O_9
REMARK    6  A    between atoms: O_9  and  C_10
REMARK    7  A    between atoms: C_10  and  C_11
REMARK    8  A    between atoms: C_11  and  C_12
REMARK    9  A    between atoms: C_12  and  O_13
REMARK   10  A    between atoms: O_13  and  N_14
REMARK   11  A    between atoms: C_21  and  C_22
REMARK   12  A    between atoms: C_21  and  C_23
REMARK   13  A    between atoms: C_24  and  C_25
REMARK   14  A    between atoms: C_25  and  C_26
REMARK   15  A    between atoms: C_25  and  C_27
REMARK   16  A    between atoms: C_25  and  C_28
REMARK                            x       y       z     vdW  Elec       q    Type
REMARK                         _______ _______ _______ _____ _____    ______ ____
ROOT
ATOM      1  C   UNL     1       0.402   8.717  21.042  0.00  0.00    +0.000 C 
ENDROOT
BRANCH   1   2
ATOM      2  C   UNL     1       1.573   7.727  21.138  0.00  0.00    +0.000 C 
BRANCH   2   3
ATOM      3  O   UNL     1       1.372   6.388  20.647  0.00  0.00    +0.000 OA
BRANCH   3   7
ATOM      4  C   UNL     1       4.216   5.627  17.574  0.00  0.00    +0.000 A 
ATOM      5  C   UNL     1       3.699   6.896  17.802  0.00  0.00    +0.000 A 
ATOM      6  C   UNL     1       2.717   7.103  18.762  0.00  0.00    +0.000 A 
ATOM      7  C   UNL     1       2.236   6.072  19.597  0.00  0.00    +0.000 A 
ATOM      8  C   UNL     1       2.657   4.747  19.326  0.00  0.00    +0.000 A 
ATOM      9  C   UNL     1       3.644   4.574  18.305  0.00  0.00    +0.000 A 
BRANCH   4  11
ATOM     10  C   UNL     1       5.219   6.464  15.461  0.00  0.00    +0.000 C 
ATOM     11  C   UNL     1       5.395   5.446  16.611  0.00  0.00    +0.000 C 
ATOM     12  C   UNL     1       5.422   4.017  16.030  0.00  0.00    +0.000 C 
ATOM     13  C   UNL     1       6.773   5.705  17.256  0.00  0.00    +0.000 C 
ENDBRANCH   4  11
BRANCH   8  14
ATOM     14  C   UNL     1       2.171   3.439  20.000  0.00  0.00    +0.000 C 
ATOM     15  C   UNL     1       2.896   2.164  19.542  0.00  0.00    +0.000 C 
ATOM     16  C   UNL     1       2.334   3.554  21.545  0.00  0.00    +0.000 C 
ATOM     17  C   UNL     1       0.660   3.218  19.719  0.00  0.00    +0.000 C 
ENDBRANCH   8  14
ENDBRANCH   3   7
ENDBRANCH   2   3
ENDBRANCH   1   2
BRANCH   1  18
ATOM     18  C   UNL     1       0.910   9.916  20.209  0.00  0.00    +0.000 C 
BRANCH  18  19
ATOM     19  O   UNL     1       0.012  10.321  19.163  0.00  0.00    +0.000 OA
BRANCH  19  20
ATOM     20  N   UNL     1      -0.137  11.749  19.177  0.00  0.00    +0.000 N 
ATOM     21  C   UNL     1       0.840  12.586  18.576  0.00  0.00    +0.000 C 
ATOM     22  N   UNL     1       1.909  12.083  18.080  0.00  0.00    +0.000 NA
ATOM     23  N   UNL     1       0.714  13.919  18.487  0.00  0.00    +0.000 NA
ATOM     24  C   UNL     1      -0.356  14.478  18.861  0.00  0.00    +0.000 C 
ATOM     25  N   UNL     1      -0.590  15.800  18.745  0.00  0.00    +0.000 N 
ATOM     26  N   UNL     1      -1.431  13.796  19.405  0.00  0.00    +0.000 N 
ATOM     27  C   UNL     1      -1.415  12.363  19.540  0.00  0.00    +0.000 C 
ATOM     28  C   UNL     1      -2.516  11.827  18.628  0.00  0.00    +0.000 C 
ATOM     29  C   UNL     1      -1.713  12.076  21.010  0.00  0.00    +0.000 C 
ATOM     30  H   UNL     1       1.903  11.071  18.152  0.00  0.00    +0.000 HD
ATOM     31  H   UNL     1       0.224  16.345  18.478  0.00  0.00    +0.000 HD
ATOM     32  H   UNL     1      -1.196  16.286  19.393  0.00  0.00    +0.000 HD
ATOM     33  H   UNL     1      -2.278  14.301  19.632  0.00  0.00    +0.000 HD
ENDBRANCH  19  20
ENDBRANCH  18  19
ENDBRANCH   1  18
TORSDOF 8
ENDMDL
MODEL 5
REMARK VINA RESULT:      -7.6      6.828     10.308
REMARK  Name = 
REMARK  16 active torsions:
REMARK  status: ('A' for Active; 'I' for Inactive)
REMARK    1  A    between atoms: C_1  and  C_2
REMARK    2  A    between atoms: C_2  and  C_3
REMARK    3  A    between atoms: C_2  and  C_4
REMARK    4  A    between atoms: C_2  and  C_5
REMARK    5  A    between atoms: C_8  and  O_9
REMARK    6  A    between atoms: O_9  and  C_10
REMARK    7  A    between atoms: C_10  and  C_11
REMARK    8  A    between atoms: C_11  and  C_12
REMARK    9  A    between atoms: C_12  and  O_13
REMARK   10  A    between atoms: O_13  and  N_14
REMARK   11  A    between atoms: C_21  and  C_22
REMARK   12  A    between atoms: C_21  and  C_23
REMARK   13  A    between atoms: C_24  and  C_25
REMARK   14  A    between atoms: C_25  and  C_26
REMARK   15  A    between atoms: C_25  and  C_27
REMARK   16  A    between atoms: C_25  and  C_28
REMARK                            x       y       z     vdW  Elec       q    Type
REMARK                         _______ _______ _______ _____ _____    ______ ____
ROOT
ATOM      1  C   UNL     1       8.049   9.162  17.749  0.00  0.00    +0.000 C 
ENDROOT
BRANCH   1   2
ATOM      2  C   UNL     1       8.940   9.375  18.983  0.00  0.00    +0.000 C 
BRANCH   2   3
ATOM      3  O   UNL     1       9.818  10.516  18.999  0.00  0.00    +0.000 OA
BRANCH   3   7
ATOM      4  C   UNL     1       8.739  13.488  21.848  0.00  0.00    +0.000 A 
ATOM      5  C   UNL     1       8.877  12.150  22.195  0.00  0.00    +0.000 A 
ATOM      6  C   UNL     1       9.157  11.189  21.232  0.00  0.00    +0.000 A 
ATOM      7  C   UNL     1       9.380  11.511  19.876  0.00  0.00    +0.000 A 
ATOM      8  C   UNL     1       9.143  12.844  19.461  0.00  0.00    +0.000 A 
ATOM      9  C   UNL     1       8.823  13.795  20.481  0.00  0.00    +0.000 A 
BRANCH   4  11
ATOM     10  C   UNL     1       8.487  13.806  24.299  0.00  0.00    +0.000 C 
ATOM     11  C   UNL     1       8.570  14.546  22.944  0.00  0.00    +0.000 C 
ATOM     12  C   UNL     1       7.281  15.367  22.729  0.00  0.00    +0.000 C 
ATOM     13  C   UNL     1       9.742  15.547  23.031  0.00  0.00    +0.000 C 
ENDBRANCH   4  11
BRANCH   8  14
ATOM     14  C   UNL     1       9.180  13.412  18.020  0.00  0.00    +0.000 C 
ATOM     15  C   UNL     1      10.459  13.094  17.229  0.00  0.00    +0.000 C 
ATOM     16  C   UNL     1       7.966  12.866  17.211  0.00  0.00    +0.000 C 
ATOM     17  C   UNL     1       9.047  14.959  18.048  0.00  0.00    +0.000 C 
ENDBRANCH   8  14
ENDBRANCH   3   7
ENDBRANCH   2   3
ENDBRANCH   1   2
BRANCH   1  18
ATOM     18  C   UNL     1       7.569   7.694  17.804  0.00  0.00    +0.000 C 
BRANCH  18  19
ATOM     19  O   UNL     1       6.802   7.288  16.658  0.00  0.00    +0.000 OA
BRANCH  19  20
ATOM     20  N   UNL     1       6.027   6.124  16.981  0.00  0.00    +0.000 N 
ATOM     21  C   UNL     1       4.646   6.235  17.290  0.00  0.00    +0.000 C 
ATOM     22  N   UNL     1       4.087   7.387  17.363  0.00  0.00    +0.000 NA
ATOM     23  N   UNL     1       3.854   5.176  17.518  0.00  0.00    +0.000 NA
ATOM     24  C   UNL     1       4.306   4.006  17.366  0.00  0.00    +0.000 C 
ATOM     25  N   UNL     1       3.562   2.891  17.510  0.00  0.00    +0.000 N 
ATOM     26  N   UNL     1       5.611   3.727  17.000  0.00  0.00    +0.000 N 
ATOM     27  C   UNL     1       6.550   4.782  16.718  0.00  0.00    +0.000 C 
ATOM     28  C   UNL     1       6.915   4.657  15.241  0.00  0.00    +0.000 C 
ATOM     29  C   UNL     1       7.755   4.525  17.619  0.00  0.00    +0.000 C 
ATOM     30  H   UNL     1       4.745   8.125  17.136  0.00  0.00    +0.000 HD
ATOM     31  H   UNL     1       2.642   3.053  17.908  0.00  0.00    +0.000 HD
ATOM     32  H   UNL     1       3.975   2.018  17.811  0.00  0.00    +0.000 HD
ATOM     33  H   UNL     1       5.891   2.767  16.842  0.00  0.00    +0.000 HD
ENDBRANCH  19  20
ENDBRANCH  18  19
ENDBRANCH   1  18
TORSDOF 8
ENDMDL
MODEL 6
REMARK VINA RESULT:      -7.5      0.937      1.333
REMARK  Name = 
REMARK  16 active torsions:
REMARK  status: ('A' for Active; 'I' for Inactive)
REMARK    1  A    between atoms: C_1  and  C_2
REMARK    2  A    between atoms: C_2  and  C_3
REMARK    3  A    between atoms: C_2  and  C_4
REMARK    4  A    between atoms: C_2  and  C_5
REMARK    5  A    between atoms: C_8  and  O_9
REMARK    6  A    between atoms: O_9  and  C_10
REMARK    7  A    between atoms: C_10  and  C_11
REMARK    8  A    between atoms: C_11  and  C_12
REMARK    9  A    between atoms: C_12  and  O_13
REMARK   10  A    between atoms: O_13  and  N_14
REMARK   11  A    between atoms: C_21  and  C_22
REMARK   12  A    between atoms: C_21  and  C_23
REMARK   13  A    between atoms: C_24  and  C_25
REMARK   14  A    between atoms: C_25  and  C_26
REMARK   15  A    between atoms: C_25  and  C_27
REMARK   16  A    between atoms: C_25  and  C_28
REMARK                            x       y       z     vdW  Elec       q    Type
REMARK                         _______ _______ _______ _____ _____    ______ ____
ROOT
ATOM      1  C   UNL     1       1.855  10.118  17.985  0.00  0.00    +0.000 C 
ENDROOT
BRANCH   1   2
ATOM      2  C   UNL     1       1.974   8.612  17.698  0.00  0.00    +0.000 C 
BRANCH   2   3
ATOM      3  O   UNL     1       3.291   8.033  17.648  0.00  0.00    +0.000 OA
BRANCH   3   7
ATOM      4  C   UNL     1       3.195   4.240  19.577  0.00  0.00    +0.000 A 
ATOM      5  C   UNL     1       2.294   5.249  19.891  0.00  0.00    +0.000 A 
ATOM      6  C   UNL     1       2.394   6.502  19.300  0.00  0.00    +0.000 A 
ATOM      7  C   UNL     1       3.357   6.807  18.314  0.00  0.00    +0.000 A 
ATOM      8  C   UNL     1       4.359   5.843  18.044  0.00  0.00    +0.000 A 
ATOM      9  C   UNL     1       4.239   4.578  18.701  0.00  0.00    +0.000 A 
BRANCH   4  11
ATOM     10  C   UNL     1       2.361   2.969  21.542  0.00  0.00    +0.000 C 
ATOM     11  C   UNL     1       2.982   2.827  20.133  0.00  0.00    +0.000 C 
ATOM     12  C   UNL     1       4.320   2.065  20.238  0.00  0.00    +0.000 C 
ATOM     13  C   UNL     1       2.025   1.961  19.287  0.00  0.00    +0.000 C 
ENDBRANCH   4  11
BRANCH   8  14
ATOM     14  C   UNL     1       5.594   5.990  17.119  0.00  0.00    +0.000 C 
ATOM     15  C   UNL     1       6.502   7.189  17.434  0.00  0.00    +0.000 C 
ATOM     16  C   UNL     1       6.461   4.698  17.195  0.00  0.00    +0.000 C 
ATOM     17  C   UNL     1       5.143   6.147  15.641  0.00  0.00    +0.000 C 
ENDBRANCH   8  14
ENDBRANCH   3   7
ENDBRANCH   2   3
ENDBRANCH   1   2
BRANCH   1  18
ATOM     18  C   UNL     1       1.038  10.252  19.290  0.00  0.00    +0.000 C 
BRANCH  18  19
ATOM     19  O   UNL     1       1.009  11.585  19.826  0.00  0.00    +0.000 OA
BRANCH  19  20
ATOM     20  N   UNL     1      -0.338  11.936  20.179  0.00  0.00    +0.000 N 
ATOM     21  C   UNL     1      -0.823  11.713  21.495  0.00  0.00    +0.000 C 
ATOM     22  N   UNL     1      -0.092  11.122  22.366  0.00  0.00    +0.000 NA
ATOM     23  N   UNL     1      -2.043  12.095  21.905  0.00  0.00    +0.000 NA
ATOM     24  C   UNL     1      -2.783  12.772  21.137  0.00  0.00    +0.000 C 
ATOM     25  N   UNL     1      -3.992  13.251  21.492  0.00  0.00    +0.000 N 
ATOM     26  N   UNL     1      -2.430  13.132  19.847  0.00  0.00    +0.000 N 
ATOM     27  C   UNL     1      -1.142  12.788  19.302  0.00  0.00    +0.000 C 
ATOM     28  C   UNL     1      -0.409  14.103  19.055  0.00  0.00    +0.000 C 
ATOM     29  C   UNL     1      -1.423  12.046  17.997  0.00  0.00    +0.000 C 
ATOM     30  H   UNL     1       0.825  10.907  21.986  0.00  0.00    +0.000 HD
ATOM     31  H   UNL     1      -4.337  12.893  22.377  0.00  0.00    +0.000 HD
ATOM     32  H   UNL     1      -4.724  13.391  20.809  0.00  0.00    +0.000 HD
ATOM     33  H   UNL     1      -3.049  13.722  19.307  0.00  0.00    +0.000 HD
ENDBRANCH  19  20
ENDBRANCH  18  19
ENDBRANCH   1  18
TORSDOF 8
ENDMDL
MODEL 7
REMARK VINA RESULT:      -7.5      3.873      9.237
REMARK  Name = 
REMARK  16 active torsions:
REMARK  status: ('A' for Active; 'I' for Inactive)
REMARK    1  A    between atoms: C_1  and  C_2
REMARK    2  A    between atoms: C_2  and  C_3
REMARK    3  A    between atoms: C_2  and  C_4
REMARK    4  A    between atoms: C_2  and  C_5
REMARK    5  A    between atoms: C_8  and  O_9
REMARK    6  A    between atoms: O_9  and  C_10
REMARK    7  A    between atoms: C_10  and  C_11
REMARK    8  A    between atoms: C_11  and  C_12
REMARK    9  A    between atoms: C_12  and  O_13
REMARK   10  A    between atoms: O_13  and  N_14
REMARK   11  A    between atoms: C_21  and  C_22
REMARK   12  A    between atoms: C_21  and  C_23
REMARK   13  A    between atoms: C_24  and  C_25
REMARK   14  A    between atoms: C_25  and  C_26
REMARK   15  A    between atoms: C_25  and  C_27
REMARK   16  A    between atoms: C_25  and  C_28
REMARK                            x       y       z     vdW  Elec       q    Type
REMARK                         _______ _______ _______ _____ _____    ______ ____
ROOT
ATOM      1  C   UNL     1       2.627   8.415  18.037  0.00  0.00    +0.000 C 
ENDROOT
BRANCH   1   2
ATOM      2  C   UNL     1       1.245   9.072  17.882  0.00  0.00    +0.000 C 
BRANCH   2   3
ATOM      3  O   UNL     1       0.904  10.152  18.772  0.00  0.00    +0.000 OA
BRANCH   3   7
ATOM      4  C   UNL     1      -3.169  11.290  18.292  0.00  0.00    +0.000 A 
ATOM      5  C   UNL     1      -2.653  10.138  17.714  0.00  0.00    +0.000 A 
ATOM      6  C   UNL     1      -1.303   9.828  17.824  0.00  0.00    +0.000 A 
ATOM      7  C   UNL     1      -0.399  10.614  18.570  0.00  0.00    +0.000 A 
ATOM      8  C   UNL     1      -0.859  11.850  19.084  0.00  0.00    +0.000 A 
ATOM      9  C   UNL     1      -2.249  12.146  18.918  0.00  0.00    +0.000 A 
BRANCH   4  11
ATOM     10  C   UNL     1      -5.001  12.539  19.413  0.00  0.00    +0.000 C 
ATOM     11  C   UNL     1      -4.682  11.539  18.279  0.00  0.00    +0.000 C 
ATOM     12  C   UNL     1      -5.462  10.229  18.517  0.00  0.00    +0.000 C 
ATOM     13  C   UNL     1      -5.202  12.149  16.960  0.00  0.00    +0.000 C 
ENDBRANCH   4  11
BRANCH   8  14
ATOM     14  C   UNL     1      -0.035  12.944  19.809  0.00  0.00    +0.000 C 
ATOM     15  C   UNL     1       0.562  12.521  21.159  0.00  0.00    +0.000 C 
ATOM     16  C   UNL     1       1.134  13.412  18.891  0.00  0.00    +0.000 C 
ATOM     17  C   UNL     1      -0.921  14.190  20.083  0.00  0.00    +0.000 C 
ENDBRANCH   8  14
ENDBRANCH   3   7
ENDBRANCH   2   3
ENDBRANCH   1   2
BRANCH   1  18
ATOM     18  C   UNL     1       2.397   7.090  18.802  0.00  0.00    +0.000 C 
BRANCH  18  19
ATOM     19  O   UNL     1       2.458   5.920  17.970  0.00  0.00    +0.000 OA
BRANCH  19  20
ATOM     20  N   UNL     1       3.218   4.896  18.629  0.00  0.00    +0.000 N 
ATOM     21  C   UNL     1       2.608   4.044  19.587  0.00  0.00    +0.000 C 
ATOM     22  N   UNL     1       1.389   4.227  19.936  0.00  0.00    +0.000 NA
ATOM     23  N   UNL     1       3.246   3.019  20.174  0.00  0.00    +0.000 NA
ATOM     24  C   UNL     1       4.415   2.712  19.808  0.00  0.00    +0.000 C 
ATOM     25  N   UNL     1       5.101   1.659  20.297  0.00  0.00    +0.000 N 
ATOM     26  N   UNL     1       5.124   3.399  18.838  0.00  0.00    +0.000 N 
ATOM     27  C   UNL     1       4.539   4.509  18.132  0.00  0.00    +0.000 C 
ATOM     28  C   UNL     1       4.430   4.086  16.669  0.00  0.00    +0.000 C 
ATOM     29  C   UNL     1       5.507   5.678  18.309  0.00  0.00    +0.000 C 
ATOM     30  H   UNL     1       0.972   4.992  19.416  0.00  0.00    +0.000 HD
ATOM     31  H   UNL     1       4.667   1.218  21.102  0.00  0.00    +0.000 HD
ATOM     32  H   UNL     1       6.111   1.665  20.346  0.00  0.00    +0.000 HD
ATOM     33  H   UNL     1       6.037   3.065  18.555  0.00  0.00    +0.000 HD
ENDBRANCH  19  20
ENDBRANCH  18  19
ENDBRANCH   1  18
TORSDOF 8
ENDMDL
MODEL 8
REMARK VINA RESULT:      -7.5      3.848      8.995
REMARK  Name = 
REMARK  16 active torsions:
REMARK  status: ('A' for Active; 'I' for Inactive)
REMARK    1  A    between atoms: C_1  and  C_2
REMARK    2  A    between atoms: C_2  and  C_3
REMARK    3  A    between atoms: C_2  and  C_4
REMARK    4  A    between atoms: C_2  and  C_5
REMARK    5  A    between atoms: C_8  and  O_9
REMARK    6  A    between atoms: O_9  and  C_10
REMARK    7  A    between atoms: C_10  and  C_11
REMARK    8  A    between atoms: C_11  and  C_12
REMARK    9  A    between atoms: C_12  and  O_13
REMARK   10  A    between atoms: O_13  and  N_14
REMARK   11  A    between atoms: C_21  and  C_22
REMARK   12  A    between atoms: C_21  and  C_23
REMARK   13  A    between atoms: C_24  and  C_25
REMARK   14  A    between atoms: C_25  and  C_26
REMARK   15  A    between atoms: C_25  and  C_27
REMARK   16  A    between atoms: C_25  and  C_28
REMARK                            x       y       z     vdW  Elec       q    Type
REMARK                         _______ _______ _______ _____ _____    ______ ____
ROOT
ATOM      1  C   UNL     1       2.974   8.000  17.795  0.00  0.00    +0.000 C 
ENDROOT
BRANCH   1   2
ATOM      2  C   UNL     1       1.950   9.145  17.843  0.00  0.00    +0.000 C 
BRANCH   2   3
ATOM      3  O   UNL     1       1.200   9.336  19.057  0.00  0.00    +0.000 OA
BRANCH   3   7
ATOM      4  C   UNL     1      -2.697  10.873  18.305  0.00  0.00    +0.000 A 
ATOM      5  C   UNL     1      -1.996  10.143  17.353  0.00  0.00    +0.000 A 
ATOM      6  C   UNL     1      -0.697   9.716  17.597  0.00  0.00    +0.000 A 
ATOM      7  C   UNL     1      -0.040   9.936  18.827  0.00  0.00    +0.000 A 
ATOM      8  C   UNL     1      -0.676  10.766  19.782  0.00  0.00    +0.000 A 
ATOM      9  C   UNL     1      -2.000  11.212  19.476  0.00  0.00    +0.000 A 
BRANCH   4  11
ATOM     10  C   UNL     1      -4.994   9.929  18.344  0.00  0.00    +0.000 C 
ATOM     11  C   UNL     1      -4.174  11.210  18.071  0.00  0.00    +0.000 C 
ATOM     12  C   UNL     1      -4.414  11.672  16.619  0.00  0.00    +0.000 C 
ATOM     13  C   UNL     1      -4.716  12.317  19.000  0.00  0.00    +0.000 C 
ENDBRANCH   4  11
BRANCH   8  14
ATOM     14  C   UNL     1      -0.109  11.267  21.134  0.00  0.00    +0.000 C 
ATOM     15  C   UNL     1       0.260  10.160  22.134  0.00  0.00    +0.000 C 
ATOM     16  C   UNL     1       1.164  12.128  20.881  0.00  0.00    +0.000 C 
ATOM     17  C   UNL     1      -1.143  12.183  21.844  0.00  0.00    +0.000 C 
ENDBRANCH   8  14
ENDBRANCH   3   7
ENDBRANCH   2   3
ENDBRANCH   1   2
BRANCH   1  18
ATOM     18  C   UNL     1       2.504   6.951  18.830  0.00  0.00    +0.000 C 
BRANCH  18  19
ATOM     19  O   UNL     1       2.238   5.656  18.268  0.00  0.00    +0.000 OA
BRANCH  19  20
ATOM     20  N   UNL     1       3.076   4.673  18.895  0.00  0.00    +0.000 N 
ATOM     21  C   UNL     1       2.558   3.813  19.899  0.00  0.00    +0.000 C 
ATOM     22  N   UNL     1       1.354   3.954  20.317  0.00  0.00    +0.000 NA
ATOM     23  N   UNL     1       3.270   2.824  20.461  0.00  0.00    +0.000 NA
ATOM     24  C   UNL     1       4.427   2.557  20.032  0.00  0.00    +0.000 C 
ATOM     25  N   UNL     1       5.182   1.541  20.494  0.00  0.00    +0.000 N 
ATOM     26  N   UNL     1       5.050   3.256  19.012  0.00  0.00    +0.000 N 
ATOM     27  C   UNL     1       4.381   4.331  18.327  0.00  0.00    +0.000 C 
ATOM     28  C   UNL     1       4.204   3.881  16.879  0.00  0.00    +0.000 C 
ATOM     29  C   UNL     1       5.309   5.539  18.431  0.00  0.00    +0.000 C 
ATOM     30  H   UNL     1       0.877   4.693  19.811  0.00  0.00    +0.000 HD
ATOM     31  H   UNL     1       4.814   1.096  21.329  0.00  0.00    +0.000 HD
ATOM     32  H   UNL     1       6.192   1.588  20.484  0.00  0.00    +0.000 HD
ATOM     33  H   UNL     1       5.957   2.954  18.681  0.00  0.00    +0.000 HD
ENDBRANCH  19  20
ENDBRANCH  18  19
ENDBRANCH   1  18
TORSDOF 8
ENDMDL
MODEL 9
REMARK VINA RESULT:      -7.5      2.332      4.684
REMARK  Name = 
REMARK  16 active torsions:
REMARK  status: ('A' for Active; 'I' for Inactive)
REMARK    1  A    between atoms: C_1  and  C_2
REMARK    2  A    between atoms: C_2  and  C_3
REMARK    3  A    between atoms: C_2  and  C_4
REMARK    4  A    between atoms: C_2  and  C_5
REMARK    5  A    between atoms: C_8  and  O_9
REMARK    6  A    between atoms: O_9  and  C_10
REMARK    7  A    between atoms: C_10  and  C_11
REMARK    8  A    between atoms: C_11  and  C_12
REMARK    9  A    between atoms: C_12  and  O_13
REMARK   10  A    between atoms: O_13  and  N_14
REMARK   11  A    between atoms: C_21  and  C_22
REMARK   12  A    between atoms: C_21  and  C_23
REMARK   13  A    between atoms: C_24  and  C_25
REMARK   14  A    between atoms: C_25  and  C_26
REMARK   15  A    between atoms: C_25  and  C_27
REMARK   16  A    between atoms: C_25  and  C_28
REMARK                            x       y       z     vdW  Elec       q    Type
REMARK                         _______ _______ _______ _____ _____    ______ ____
ROOT
ATOM      1  C   UNL     1       0.255   8.241  21.091  0.00  0.00    +0.000 C 
ENDROOT
BRANCH   1   2
ATOM      2  C   UNL     1       1.595   7.603  20.692  0.00  0.00    +0.000 C 
BRANCH   2   3
ATOM      3  O   UNL     1       1.631   6.180  20.475  0.00  0.00    +0.000 OA
BRANCH   3   7
ATOM      4  C   UNL     1       4.417   5.281  17.385  0.00  0.00    +0.000 A 
ATOM      5  C   UNL     1       4.004   6.580  17.651  0.00  0.00    +0.000 A 
ATOM      6  C   UNL     1       3.038   6.839  18.615  0.00  0.00    +0.000 A 
ATOM      7  C   UNL     1       2.471   5.825  19.417  0.00  0.00    +0.000 A 
ATOM      8  C   UNL     1       2.783   4.479  19.107  0.00  0.00    +0.000 A 
ATOM      9  C   UNL     1       3.756   4.257  18.083  0.00  0.00    +0.000 A 
BRANCH   4  11
ATOM     10  C   UNL     1       5.432   6.024  15.243  0.00  0.00    +0.000 C 
ATOM     11  C   UNL     1       5.581   5.032  16.420  0.00  0.00    +0.000 C 
ATOM     12  C   UNL     1       5.554   3.588  15.878  0.00  0.00    +0.000 C 
ATOM     13  C   UNL     1       6.972   5.261  17.048  0.00  0.00    +0.000 C 
ENDBRANCH   4  11
BRANCH   8  14
ATOM     14  C   UNL     1       2.188   3.196  19.740  0.00  0.00    +0.000 C 
ATOM     15  C   UNL     1       2.640   1.880  19.087  0.00  0.00    +0.000 C 
ATOM     16  C   UNL     1       2.563   3.135  21.251  0.00  0.00    +0.000 C 
ATOM     17  C   UNL     1       0.637   3.225  19.658  0.00  0.00    +0.000 C 
ENDBRANCH   8  14
ENDBRANCH   3   7
ENDBRANCH   2   3
ENDBRANCH   1   2
BRANCH   1  18
ATOM     18  C   UNL     1       0.455   9.772  20.994  0.00  0.00    +0.000 C 
BRANCH  18  19
ATOM     19  O   UNL     1      -0.044  10.349  19.777  0.00  0.00    +0.000 OA
BRANCH  19  20
ATOM     20  N   UNL     1       0.825  11.409  19.351  0.00  0.00    +0.000 N 
ATOM     21  C   UNL     1       1.798  11.188  18.342  0.00  0.00    +0.000 C 
ATOM     22  N   UNL     1       1.970  10.016  17.851  0.00  0.00    +0.000 NA
ATOM     23  N   UNL     1       2.581  12.159  17.847  0.00  0.00    +0.000 NA
ATOM     24  C   UNL     1       2.403  13.357  18.206  0.00  0.00    +0.000 C 
ATOM     25  N   UNL     1       3.098  14.399  17.709  0.00  0.00    +0.000 N 
ATOM     26  N   UNL     1       1.449  13.750  19.129  0.00  0.00    +0.000 N 
ATOM     27  C   UNL     1       0.545  12.797  19.720  0.00  0.00    +0.000 C 
ATOM     28  C   UNL     1      -0.857  13.178  19.249  0.00  0.00    +0.000 C 
ATOM     29  C   UNL     1       0.694  12.958  21.231  0.00  0.00    +0.000 C 
ATOM     30  H   UNL     1       1.312   9.354  18.250  0.00  0.00    +0.000 HD
ATOM     31  H   UNL     1       3.893  14.133  17.135  0.00  0.00    +0.000 HD
ATOM     32  H   UNL     1       3.270  15.229  18.262  0.00  0.00    +0.000 HD
ATOM     33  H   UNL     1       1.324  14.734  19.330  0.00  0.00    +0.000 HD
ENDBRANCH  19  20
ENDBRANCH  18  19
ENDBRANCH   1  18
TORSDOF 8
ENDMDL
