MODEL 1
REMARK VINA RESULT:      -6.5      0.000      0.000
REMARK  Name = 
REMARK  7 active torsions:
REMARK  status: ('A' for Active; 'I' for Inactive)
REMARK    1  A    between atoms: C_1  and  C_2
REMARK    2  A    between atoms: C_2  and  C_3
REMARK    3  A    between atoms: CA_6  and  N_7
REMARK    4  A    between atoms: C_8  and  C_10
REMARK    5  A    between atoms: C_10  and  C_11
REMARK    6  A    between atoms: C_10  and  C_14
REMARK    7  A    between atoms: CA_22  and  C_23
REMARK                            x       y       z     vdW  Elec       q    Type
REMARK                         _______ _______ _______ _____ _____    ______ ____
ROOT
ATOM      1  C   UNL     1       0.655   2.273  18.929  0.00  0.00    +0.000 C 
ATOM      2  C   UNL     1       1.614   3.074  19.809  0.00  0.00    +0.000 C 
ATOM      3  C   UNL     1       1.800   2.354  21.158  0.00  0.00    +0.000 C 
ATOM      4  S   UNL     1       0.848   4.762  20.161  0.00  0.00    +0.000 S 
ATOM      5  C   UNL     1       2.499   5.444  20.533  0.00  0.00    +0.000 C 
ATOM      6  CA  UNL     1       2.993   6.729  19.859  0.00  0.00    +0.000 C 
ATOM      7  C   UNL     1       3.622   5.769  18.824  0.00  0.00    +0.000 C 
ATOM      8  O   UNL     1       4.005   5.858  17.685  0.00  0.00    +0.000 OA
ATOM      9  N   UNL     1       3.399   4.700  19.647  0.00  0.00    +0.000 N 
ATOM     10  CA  UNL     1       2.936   3.415  19.088  0.00  0.00    +0.000 C 
ENDROOT
BRANCH   6  11
ATOM     11  N   UNL     1       2.047   7.756  19.325  0.00  0.00    +0.000 N 
ATOM     12  C   UNL     1       1.473   8.631  20.226  0.00  0.00    +0.000 C 
ATOM     13  O   UNL     1       1.686   8.511  21.437  0.00  0.00    +0.000 OA
ATOM     14  H   UNL     1       1.928   7.888  18.329  0.00  0.00    +0.000 HD
BRANCH  12  15
ATOM     15  C   UNL     1       0.468   9.642  19.747  0.00  0.00    +0.000 C 
BRANCH  15  16
ATOM     16  C   UNL     1       0.339  10.918  20.535  0.00  0.00    +0.000 A 
ATOM     17  C   UNL     1      -0.638  11.077  21.584  0.00  0.00    +0.000 A 
ATOM     18  C   UNL     1      -0.666  12.346  22.116  0.00  0.00    +0.000 A 
ATOM     19  S   UNL     1       0.491  13.363  21.383  0.00  0.00    +0.000 S 
ATOM     20  C   UNL     1       1.026  12.105  20.348  0.00  0.00    +0.000 A 
ENDBRANCH  15  16
BRANCH  15  21
ATOM     21  C   UNL     1       0.643   9.775  18.265  0.00  0.00    +0.000 C 
ATOM     22  O   UNL     1       1.772  10.041  17.748  0.00  0.00    +0.000 OA
ATOM     23  O   UNL     1      -0.352   9.600  17.491  0.00  0.00    +0.000 OA
ENDBRANCH  15  21
ENDBRANCH  12  15
ENDBRANCH   6  11
BRANCH  10  24
ATOM     24  C   UNL     1       3.959   2.258  19.170  0.00  0.00    +0.000 C 
ATOM     25  O   UNL     1       3.747   1.271  18.404  0.00  0.00    +0.000 OA
ATOM     26  OXT UNL     1       4.920   2.458  19.966  0.00  0.00    +0.000 OA
ENDBRANCH  10  24
TORSDOF 5
ENDMDL
MODEL 2
REMARK VINA RESULT:      -6.5      0.553      1.049
REMARK  Name = 
REMARK  7 active torsions:
REMARK  status: ('A' for Active; 'I' for Inactive)
REMARK    1  A    between atoms: C_1  and  C_2
REMARK    2  A    between atoms: C_2  and  C_3
REMARK    3  A    between atoms: CA_6  and  N_7
REMARK    4  A    between atoms: C_8  and  C_10
REMARK    5  A    between atoms: C_10  and  C_11
REMARK    6  A    between atoms: C_10  and  C_14
REMARK    7  A    between atoms: CA_22  and  C_23
REMARK                            x       y       z     vdW  Elec       q    Type
REMARK                         _______ _______ _______ _____ _____    ______ ____
ROOT
ATOM      1  C   UNL     1       0.663   2.246  18.996  0.00  0.00    +0.000 C 
ATOM      2  C   UNL     1       1.626   3.065  19.855  0.00  0.00    +0.000 C 
ATOM      3  C   UNL     1       1.899   2.322  21.176  0.00  0.00    +0.000 C 
ATOM      4  S   UNL     1       0.811   4.712  20.280  0.00  0.00    +0.000 S 
ATOM      5  C   UNL     1       2.449   5.451  20.598  0.00  0.00    +0.000 C 
ATOM      6  CA  UNL     1       2.863   6.770  19.936  0.00  0.00    +0.000 C 
ATOM      7  C   UNL     1       3.483   5.860  18.852  0.00  0.00    +0.000 C 
ATOM      8  O   UNL     1       3.812   5.990  17.700  0.00  0.00    +0.000 OA
ATOM      9  N   UNL     1       3.338   4.765  19.657  0.00  0.00    +0.000 N 
ATOM     10  CA  UNL     1       2.902   3.475  19.087  0.00  0.00    +0.000 C 
ENDROOT
BRANCH   6  11
ATOM     11  N   UNL     1       1.855   7.770  19.468  0.00  0.00    +0.000 N 
ATOM     12  C   UNL     1       1.282   8.596  20.415  0.00  0.00    +0.000 C 
ATOM     13  O   UNL     1       1.547   8.452  21.613  0.00  0.00    +0.000 OA
ATOM     14  H   UNL     1       1.692   7.924  18.482  0.00  0.00    +0.000 HD
BRANCH  12  15
ATOM     15  C   UNL     1       0.218   9.576  20.004  0.00  0.00    +0.000 C 
BRANCH  15  16
ATOM     16  C   UNL     1      -0.133  10.667  20.979  0.00  0.00    +0.000 A 
ATOM     17  C   UNL     1      -0.740  10.387  22.258  0.00  0.00    +0.000 A 
ATOM     18  C   UNL     1      -1.076  11.521  22.962  0.00  0.00    +0.000 A 
ATOM     19  S   UNL     1      -0.653  12.940  22.114  0.00  0.00    +0.000 S 
ATOM     20  C   UNL     1      -0.024  12.035  20.800  0.00  0.00    +0.000 A 
ENDBRANCH  15  16
BRANCH  15  21
ATOM     21  C   UNL     1       0.519   9.995  18.598  0.00  0.00    +0.000 C 
ATOM     22  O   UNL     1      -0.374   9.985  17.694  0.00  0.00    +0.000 OA
ATOM     23  O   UNL     1       1.688  10.390  18.290  0.00  0.00    +0.000 OA
ENDBRANCH  15  21
ENDBRANCH  12  15
ENDBRANCH   6  11
BRANCH  10  24
ATOM     24  C   UNL     1       3.972   2.359  19.096  0.00  0.00    +0.000 C 
ATOM     25  O   UNL     1       4.954   2.535  19.878  0.00  0.00    +0.000 OA
ATOM     26  OXT UNL     1       3.715   1.373  18.348  0.00  0.00    +0.000 OA
ENDBRANCH  10  24
TORSDOF 5
ENDMDL
MODEL 3
REMARK VINA RESULT:      -6.5      5.144      8.074
REMARK  Name = 
REMARK  7 active torsions:
REMARK  status: ('A' for Active; 'I' for Inactive)
REMARK    1  A    between atoms: C_1  and  C_2
REMARK    2  A    between atoms: C_2  and  C_3
REMARK    3  A    between atoms: CA_6  and  N_7
REMARK    4  A    between atoms: C_8  and  C_10
REMARK    5  A    between atoms: C_10  and  C_11
REMARK    6  A    between atoms: C_10  and  C_14
REMARK    7  A    between atoms: CA_22  and  C_23
REMARK                            x       y       z     vdW  Elec       q    Type
REMARK                         _______ _______ _______ _____ _____    ______ ____
ROOT
ATOM      1  C   UNL     1       1.883   1.409  19.193  0.00  0.00    +0.000 C 
ATOM      2  C   UNL     1       2.094   2.893  18.895  0.00  0.00    +0.000 C 
ATOM      3  C   UNL     1       0.740   3.624  18.929  0.00  0.00    +0.000 C 
ATOM      4  S   UNL     1       2.798   3.068  17.153  0.00  0.00    +0.000 S 
ATOM      5  C   UNL     1       3.462   4.713  17.578  0.00  0.00    +0.000 C 
ATOM      6  CA  UNL     1       4.931   5.065  17.314  0.00  0.00    +0.000 C 
ATOM      7  C   UNL     1       5.150   4.600  18.771  0.00  0.00    +0.000 C 
ATOM      8  O   UNL     1       6.088   4.217  19.424  0.00  0.00    +0.000 OA
ATOM      9  N   UNL     1       3.802   4.605  18.999  0.00  0.00    +0.000 N 
ATOM     10  CA  UNL     1       3.178   3.529  19.793  0.00  0.00    +0.000 C 
ENDROOT
BRANCH   6  11
ATOM     11  N   UNL     1       5.735   4.367  16.265  0.00  0.00    +0.000 N 
ATOM     12  C   UNL     1       5.945   5.027  15.070  0.00  0.00    +0.000 C 
ATOM     13  O   UNL     1       5.418   6.125  14.862  0.00  0.00    +0.000 OA
ATOM     14  H   UNL     1       6.214   3.498  16.466  0.00  0.00    +0.000 HD
BRANCH  12  15
ATOM     15  C   UNL     1       6.694   4.342  13.961  0.00  0.00    +0.000 C 
BRANCH  15  16
ATOM     16  C   UNL     1       5.882   3.620  12.920  0.00  0.00    +0.000 A 
ATOM     17  C   UNL     1       6.394   2.478  12.202  0.00  0.00    +0.000 A 
ATOM     18  C   UNL     1       5.541   2.022  11.223  0.00  0.00    +0.000 A 
ATOM     19  S   UNL     1       4.104   2.939  11.159  0.00  0.00    +0.000 S 
ATOM     20  C   UNL     1       4.627   3.952  12.440  0.00  0.00    +0.000 A 
ENDBRANCH  15  16
BRANCH  15  21
ATOM     21  C   UNL     1       7.732   5.301  13.467  0.00  0.00    +0.000 C 
ATOM     22  O   UNL     1       8.567   5.844  14.256  0.00  0.00    +0.000 OA
ATOM     23  O   UNL     1       7.805   5.574  12.226  0.00  0.00    +0.000 OA
ENDBRANCH  15  21
ENDBRANCH  12  15
ENDBRANCH   6  11
BRANCH  10  24
ATOM     24  C   UNL     1       2.614   3.969  21.164  0.00  0.00    +0.000 C 
ATOM     25  O   UNL     1       2.492   3.058  22.036  0.00  0.00    +0.000 OA
ATOM     26  OXT UNL     1       2.381   5.208  21.267  0.00  0.00    +0.000 OA
ENDBRANCH  10  24
TORSDOF 5
ENDMDL
MODEL 4
REMARK VINA RESULT:      -6.4      0.422      1.041
REMARK  Name = 
REMARK  7 active torsions:
REMARK  status: ('A' for Active; 'I' for Inactive)
REMARK    1  A    between atoms: C_1  and  C_2
REMARK    2  A    between atoms: C_2  and  C_3
REMARK    3  A    between atoms: CA_6  and  N_7
REMARK    4  A    between atoms: C_8  and  C_10
REMARK    5  A    between atoms: C_10  and  C_11
REMARK    6  A    between atoms: C_10  and  C_14
REMARK    7  A    between atoms: CA_22  and  C_23
REMARK                            x       y       z     vdW  Elec       q    Type
REMARK                         _______ _______ _______ _____ _____    ______ ____
ROOT
ATOM      1  C   UNL     1       0.686   2.181  18.992  0.00  0.00    +0.000 C 
ATOM      2  C   UNL     1       1.624   3.029  19.849  0.00  0.00    +0.000 C 
ATOM      3  C   UNL     1       1.839   2.346  21.212  0.00  0.00    +0.000 C 
ATOM      4  S   UNL     1       0.810   4.702  20.167  0.00  0.00    +0.000 S 
ATOM      5  C   UNL     1       2.442   5.440  20.515  0.00  0.00    +0.000 C 
ATOM      6  CA  UNL     1       2.894   6.724  19.810  0.00  0.00    +0.000 C 
ATOM      7  C   UNL     1       3.546   5.760  18.794  0.00  0.00    +0.000 C 
ATOM      8  O   UNL     1       3.921   5.835  17.651  0.00  0.00    +0.000 OA
ATOM      9  N   UNL     1       3.359   4.704  19.641  0.00  0.00    +0.000 N 
ATOM     10  CA  UNL     1       2.932   3.393  19.114  0.00  0.00    +0.000 C 
ENDROOT
BRANCH   6  11
ATOM     11  N   UNL     1       1.916   7.710  19.259  0.00  0.00    +0.000 N 
ATOM     12  C   UNL     1       1.392   8.650  20.126  0.00  0.00    +0.000 C 
ATOM     13  O   UNL     1       1.676   8.618  21.328  0.00  0.00    +0.000 OA
ATOM     14  H   UNL     1       1.738   7.770  18.265  0.00  0.00    +0.000 HD
BRANCH  12  15
ATOM     15  C   UNL     1       0.358   9.624  19.633  0.00  0.00    +0.000 C 
BRANCH  15  16
ATOM     16  C   UNL     1       0.174  10.895  20.419  0.00  0.00    +0.000 A 
ATOM     17  C   UNL     1       1.089  12.005  20.308  0.00  0.00    +0.000 A 
ATOM     18  C   UNL     1       0.807  13.033  21.179  0.00  0.00    +0.000 A 
ATOM     19  S   UNL     1      -0.568  12.695  22.131  0.00  0.00    +0.000 S 
ATOM     20  C   UNL     1      -0.784  11.169  21.379  0.00  0.00    +0.000 A 
ENDBRANCH  15  16
BRANCH  15  21
ATOM     21  C   UNL     1       0.545   9.762  18.154  0.00  0.00    +0.000 C 
ATOM     22  O   UNL     1       1.693   9.949  17.642  0.00  0.00    +0.000 OA
ATOM     23  O   UNL     1      -0.458   9.672  17.376  0.00  0.00    +0.000 OA
ENDBRANCH  15  21
ENDBRANCH  12  15
ENDBRANCH   6  11
BRANCH  10  24
ATOM     24  C   UNL     1       3.990   2.270  19.215  0.00  0.00    +0.000 C 
ATOM     25  O   UNL     1       4.945   2.475  20.023  0.00  0.00    +0.000 OA
ATOM     26  OXT UNL     1       3.750   1.252  18.506  0.00  0.00    +0.000 OA
ENDBRANCH  10  24
TORSDOF 5
ENDMDL
MODEL 5
REMARK VINA RESULT:      -6.3      2.326      3.272
REMARK  Name = 
REMARK  7 active torsions:
REMARK  status: ('A' for Active; 'I' for Inactive)
REMARK    1  A    between atoms: C_1  and  C_2
REMARK    2  A    between atoms: C_2  and  C_3
REMARK    3  A    between atoms: CA_6  and  N_7
REMARK    4  A    between atoms: C_8  and  C_10
REMARK    5  A    between atoms: C_10  and  C_11
REMARK    6  A    between atoms: C_10  and  C_14
REMARK    7  A    between atoms: CA_22  and  C_23
REMARK                            x       y       z     vdW  Elec       q    Type
REMARK                         _______ _______ _______ _____ _____    ______ ____
ROOT
ATOM      1  C   UNL     1       6.195   4.652  18.518  0.00  0.00    +0.000 C 
ATOM      2  C   UNL     1       4.681   4.563  18.329  0.00  0.00    +0.000 C 
ATOM      3  C   UNL     1       4.368   3.933  16.959  0.00  0.00    +0.000 C 
ATOM      4  S   UNL     1       3.964   6.308  18.336  0.00  0.00    +0.000 S 
ATOM      5  C   UNL     1       2.325   5.643  18.784  0.00  0.00    +0.000 C 
ATOM      6  CA  UNL     1       1.542   6.207  19.975  0.00  0.00    +0.000 C 
ATOM      7  C   UNL     1       2.222   5.070  20.770  0.00  0.00    +0.000 C 
ATOM      8  O   UNL     1       2.463   4.853  21.932  0.00  0.00    +0.000 OA
ATOM      9  N   UNL     1       2.630   4.472  19.611  0.00  0.00    +0.000 N 
ATOM     10  CA  UNL     1       3.975   3.873  19.517  0.00  0.00    +0.000 C 
ENDROOT
BRANCH   6  11
ATOM     11  N   UNL     1       1.763   7.596  20.480  0.00  0.00    +0.000 N 
ATOM     12  C   UNL     1       0.750   8.183  21.212  0.00  0.00    +0.000 C 
ATOM     13  O   UNL     1      -0.325   7.595  21.374  0.00  0.00    +0.000 OA
ATOM     14  H   UNL     1       2.666   8.044  20.397  0.00  0.00    +0.000 HD
BRANCH  12  15
ATOM     15  C   UNL     1       0.899   9.602  21.689  0.00  0.00    +0.000 C 
BRANCH  15  16
ATOM     16  C   UNL     1       0.674  10.697  20.682  0.00  0.00    +0.000 A 
ATOM     17  C   UNL     1      -0.206  10.531  19.551  0.00  0.00    +0.000 A 
ATOM     18  C   UNL     1      -0.200  11.608  18.692  0.00  0.00    +0.000 A 
ATOM     19  S   UNL     1       0.843  12.843  19.237  0.00  0.00    +0.000 S 
ATOM     20  C   UNL     1       1.292  11.934  20.620  0.00  0.00    +0.000 A 
ENDBRANCH  15  16
BRANCH  15  21
ATOM     21  C   UNL     1       0.164   9.714  22.989  0.00  0.00    +0.000 C 
ATOM     22  O   UNL     1       0.683   9.331  24.083  0.00  0.00    +0.000 OA
ATOM     23  O   UNL     1      -1.003  10.220  23.016  0.00  0.00    +0.000 OA
ENDBRANCH  15  21
ENDBRANCH  12  15
ENDBRANCH   6  11
BRANCH  10  24
ATOM     24  C   UNL     1       3.999   2.331  19.393  0.00  0.00    +0.000 C 
ATOM     25  O   UNL     1       4.952   1.739  19.981  0.00  0.00    +0.000 OA
ATOM     26  OXT UNL     1       3.028   1.838  18.750  0.00  0.00    +0.000 OA
ENDBRANCH  10  24
TORSDOF 5
ENDMDL
MODEL 6
REMARK VINA RESULT:      -6.0      0.944      1.157
REMARK  Name = 
REMARK  7 active torsions:
REMARK  status: ('A' for Active; 'I' for Inactive)
REMARK    1  A    between atoms: C_1  and  C_2
REMARK    2  A    between atoms: C_2  and  C_3
REMARK    3  A    between atoms: CA_6  and  N_7
REMARK    4  A    between atoms: C_8  and  C_10
REMARK    5  A    between atoms: C_10  and  C_11
REMARK    6  A    between atoms: C_10  and  C_14
REMARK    7  A    between atoms: CA_22  and  C_23
REMARK                            x       y       z     vdW  Elec       q    Type
REMARK                         _______ _______ _______ _____ _____    ______ ____
ROOT
ATOM      1  C   UNL     1       0.919   2.433  18.829  0.00  0.00    +0.000 C 
ATOM      2  C   UNL     1       1.779   3.330  19.718  0.00  0.00    +0.000 C 
ATOM      3  C   UNL     1       2.207   2.552  20.976  0.00  0.00    +0.000 C 
ATOM      4  S   UNL     1       0.742   4.803  20.279  0.00  0.00    +0.000 S 
ATOM      5  C   UNL     1       2.262   5.759  20.607  0.00  0.00    +0.000 C 
ATOM      6  CA  UNL     1       2.450   7.166  20.028  0.00  0.00    +0.000 C 
ATOM      7  C   UNL     1       3.160   6.434  18.868  0.00  0.00    +0.000 C 
ATOM      8  O   UNL     1       3.424   6.689  17.720  0.00  0.00    +0.000 OA
ATOM      9  N   UNL     1       3.209   5.279  19.597  0.00  0.00    +0.000 N 
ATOM     10  CA  UNL     1       2.950   3.979  18.949  0.00  0.00    +0.000 C 
ENDROOT
BRANCH   6  11
ATOM     11  N   UNL     1       1.288   8.031  19.659  0.00  0.00    +0.000 N 
ATOM     12  C   UNL     1       0.936   9.043  20.530  0.00  0.00    +0.000 C 
ATOM     13  O   UNL     1       1.524   9.171  21.609  0.00  0.00    +0.000 OA
ATOM     14  H   UNL     1       0.854   7.961  18.747  0.00  0.00    +0.000 HD
BRANCH  12  15
ATOM     15  C   UNL     1      -0.264   9.900  20.233  0.00  0.00    +0.000 C 
BRANCH  15  16
ATOM     16  C   UNL     1      -0.465  11.127  21.080  0.00  0.00    +0.000 A 
ATOM     17  C   UNL     1       0.294  12.337  20.873  0.00  0.00    +0.000 A 
ATOM     18  C   UNL     1       0.037  13.310  21.812  0.00  0.00    +0.000 A 
ATOM     19  S   UNL     1      -1.133  12.800  22.946  0.00  0.00    +0.000 S 
ATOM     20  C   UNL     1      -1.290  11.273  22.182  0.00  0.00    +0.000 A 
ENDBRANCH  15  16
BRANCH  15  21
ATOM     21  C   UNL     1      -0.321  10.084  18.748  0.00  0.00    +0.000 C 
ATOM     22  O   UNL     1       0.730  10.259  18.056  0.00  0.00    +0.000 OA
ATOM     23  O   UNL     1      -1.442  10.048  18.147  0.00  0.00    +0.000 OA
ENDBRANCH  15  21
ENDBRANCH  12  15
ENDBRANCH   6  11
BRANCH  10  24
ATOM     24  C   UNL     1       4.175   3.040  18.852  0.00  0.00    +0.000 C 
ATOM     25  O   UNL     1       4.060   2.052  18.066  0.00  0.00    +0.000 OA
ATOM     26  OXT UNL     1       5.172   3.398  19.542  0.00  0.00    +0.000 OA
ENDBRANCH  10  24
TORSDOF 5
ENDMDL
MODEL 7
REMARK VINA RESULT:      -6.0      2.346      3.283
REMARK  Name = 
REMARK  7 active torsions:
REMARK  status: ('A' for Active; 'I' for Inactive)
REMARK    1  A    between atoms: C_1  and  C_2
REMARK    2  A    between atoms: C_2  and  C_3
REMARK    3  A    between atoms: CA_6  and  N_7
REMARK    4  A    between atoms: C_8  and  C_10
REMARK    5  A    between atoms: C_10  and  C_11
REMARK    6  A    between atoms: C_10  and  C_14
REMARK    7  A    between atoms: CA_22  and  C_23
REMARK                            x       y       z     vdW  Elec       q    Type
REMARK                         _______ _______ _______ _____ _____    ______ ____
ROOT
ATOM      1  C   UNL     1       6.328   4.749  18.420  0.00  0.00    +0.000 C 
ATOM      2  C   UNL     1       4.826   4.669  18.155  0.00  0.00    +0.000 C 
ATOM      3  C   UNL     1       4.577   4.026  16.778  0.00  0.00    +0.000 C 
ATOM      4  S   UNL     1       4.124   6.420  18.107  0.00  0.00    +0.000 S 
ATOM      5  C   UNL     1       2.459   5.772  18.479  0.00  0.00    +0.000 C 
ATOM      6  CA  UNL     1       1.622   6.356  19.623  0.00  0.00    +0.000 C 
ATOM      7  C   UNL     1       2.250   5.223  20.464  0.00  0.00    +0.000 C 
ATOM      8  O   UNL     1       2.431   5.017  21.638  0.00  0.00    +0.000 OA
ATOM      9  N   UNL     1       2.712   4.609  19.333  0.00  0.00    +0.000 N 
ATOM     10  CA  UNL     1       4.055   3.998  19.313  0.00  0.00    +0.000 C 
ENDROOT
BRANCH   6  11
ATOM     11  N   UNL     1       1.828   7.749  20.123  0.00  0.00    +0.000 N 
ATOM     12  C   UNL     1       0.880   8.271  20.981  0.00  0.00    +0.000 C 
ATOM     13  O   UNL     1      -0.135   7.625  21.258  0.00  0.00    +0.000 OA
ATOM     14  H   UNL     1       2.691   8.246  19.942  0.00  0.00    +0.000 HD
BRANCH  12  15
ATOM     15  C   UNL     1       1.011   9.691  21.462  0.00  0.00    +0.000 C 
BRANCH  15  16
ATOM     16  C   UNL     1       0.678  10.786  20.485  0.00  0.00    +0.000 A 
ATOM     17  C   UNL     1       1.331  12.072  20.521  0.00  0.00    +0.000 A 
ATOM     18  C   UNL     1       0.818  12.970  19.613  0.00  0.00    +0.000 A 
ATOM     19  S   UNL     1      -0.441  12.284  18.689  0.00  0.00    +0.000 S 
ATOM     20  C   UNL     1      -0.303  10.784  19.508  0.00  0.00    +0.000 A 
ENDBRANCH  15  16
BRANCH  15  21
ATOM     21  C   UNL     1       0.365   9.764  22.811  0.00  0.00    +0.000 C 
ATOM     22  O   UNL     1      -0.828  10.178  22.957  0.00  0.00    +0.000 OA
ATOM     23  O   UNL     1       1.007   9.388  23.843  0.00  0.00    +0.000 OA
ENDBRANCH  15  21
ENDBRANCH  12  15
ENDBRANCH   6  11
BRANCH  10  24
ATOM     24  C   UNL     1       4.072   2.455  19.207  0.00  0.00    +0.000 C 
ATOM     25  O   UNL     1       3.241   1.943  18.399  0.00  0.00    +0.000 OA
ATOM     26  OXT UNL     1       4.952   1.886  19.914  0.00  0.00    +0.000 OA
ENDBRANCH  10  24
TORSDOF 5
ENDMDL
MODEL 8
REMARK VINA RESULT:      -6.0      1.959      2.652
REMARK  Name = 
REMARK  7 active torsions:
REMARK  status: ('A' for Active; 'I' for Inactive)
REMARK    1  A    between atoms: C_1  and  C_2
REMARK    2  A    between atoms: C_2  and  C_3
REMARK    3  A    between atoms: CA_6  and  N_7
REMARK    4  A    between atoms: C_8  and  C_10
REMARK    5  A    between atoms: C_10  and  C_11
REMARK    6  A    between atoms: C_10  and  C_14
REMARK    7  A    between atoms: CA_22  and  C_23
REMARK                            x       y       z     vdW  Elec       q    Type
REMARK                         _______ _______ _______ _____ _____    ______ ____
ROOT
ATOM      1  C   UNL     1       1.179   2.352  20.149  0.00  0.00    +0.000 C 
ATOM      2  C   UNL     1       2.343   3.310  19.902  0.00  0.00    +0.000 C 
ATOM      3  C   UNL     1       3.671   2.612  20.252  0.00  0.00    +0.000 C 
ATOM      4  S   UNL     1       2.157   4.799  21.046  0.00  0.00    +0.000 S 
ATOM      5  C   UNL     1       3.213   5.793  19.938  0.00  0.00    +0.000 C 
ATOM      6  CA  UNL     1       2.756   7.167  19.434  0.00  0.00    +0.000 C 
ATOM      7  C   UNL     1       2.221   6.379  18.218  0.00  0.00    +0.000 C 
ATOM      8  O   UNL     1       1.395   6.570  17.360  0.00  0.00    +0.000 OA
ATOM      9  N   UNL     1       2.920   5.268  18.602  0.00  0.00    +0.000 N 
ATOM     10  CA  UNL     1       2.310   3.929  18.487  0.00  0.00    +0.000 C 
ENDROOT
BRANCH   6  11
ATOM     11  N   UNL     1       1.760   7.992  20.183  0.00  0.00    +0.000 N 
ATOM     12  C   UNL     1       1.400   9.212  19.644  0.00  0.00    +0.000 C 
ATOM     13  O   UNL     1       1.947   9.627  18.617  0.00  0.00    +0.000 OA
ATOM     14  H   UNL     1       1.271   7.619  20.987  0.00  0.00    +0.000 HD
BRANCH  12  15
ATOM     15  C   UNL     1       0.449  10.106  20.391  0.00  0.00    +0.000 C 
BRANCH  15  16
ATOM     16  C   UNL     1      -0.722  10.663  19.627  0.00  0.00    +0.000 A 
ATOM     17  C   UNL     1      -1.497  11.778  20.115  0.00  0.00    +0.000 A 
ATOM     18  C   UNL     1      -2.585  12.073  19.325  0.00  0.00    +0.000 A 
ATOM     19  S   UNL     1      -2.685  11.035  17.975  0.00  0.00    +0.000 S 
ATOM     20  C   UNL     1      -1.274  10.185  18.451  0.00  0.00    +0.000 A 
ENDBRANCH  15  16
BRANCH  15  21
ATOM     21  C   UNL     1       0.152   9.444  21.701  0.00  0.00    +0.000 C 
ATOM     22  O   UNL     1       0.735   9.796  22.773  0.00  0.00    +0.000 OA
ATOM     23  O   UNL     1      -0.718   8.517  21.760  0.00  0.00    +0.000 OA
ENDBRANCH  15  21
ENDBRANCH  12  15
ENDBRANCH   6  11
BRANCH  10  24
ATOM     24  C   UNL     1       2.956   3.003  17.431  0.00  0.00    +0.000 C 
ATOM     25  O   UNL     1       4.098   3.352  17.007  0.00  0.00    +0.000 OA
ATOM     26  OXT UNL     1       2.280   1.973  17.146  0.00  0.00    +0.000 OA
ENDBRANCH  10  24
TORSDOF 5
ENDMDL
MODEL 9
REMARK VINA RESULT:      -5.9      1.851      2.777
REMARK  Name = 
REMARK  7 active torsions:
REMARK  status: ('A' for Active; 'I' for Inactive)
REMARK    1  A    between atoms: C_1  and  C_2
REMARK    2  A    between atoms: C_2  and  C_3
REMARK    3  A    between atoms: CA_6  and  N_7
REMARK    4  A    between atoms: C_8  and  C_10
REMARK    5  A    between atoms: C_10  and  C_11
REMARK    6  A    between atoms: C_10  and  C_14
REMARK    7  A    between atoms: CA_22  and  C_23
REMARK                            x       y       z     vdW  Elec       q    Type
REMARK                         _______ _______ _______ _____ _____    ______ ____
ROOT
ATOM      1  C   UNL     1       1.254   2.331  20.392  0.00  0.00    +0.000 C 
ATOM      2  C   UNL     1       2.409   3.273  20.056  0.00  0.00    +0.000 C 
ATOM      3  C   UNL     1       3.745   2.610  20.437  0.00  0.00    +0.000 C 
ATOM      4  S   UNL     1       2.232   4.843  21.089  0.00  0.00    +0.000 S 
ATOM      5  C   UNL     1       3.265   5.756  19.894  0.00  0.00    +0.000 C 
ATOM      6  CA  UNL     1       2.793   7.087  19.297  0.00  0.00    +0.000 C 
ATOM      7  C   UNL     1       2.245   6.208  18.151  0.00  0.00    +0.000 C 
ATOM      8  O   UNL     1       1.406   6.331  17.294  0.00  0.00    +0.000 OA
ATOM      9  N   UNL     1       2.956   5.132  18.605  0.00  0.00    +0.000 N 
ATOM     10  CA  UNL     1       2.352   3.785  18.600  0.00  0.00    +0.000 C 
ENDROOT
BRANCH   6  11
ATOM     11  N   UNL     1       1.804   7.961  19.998  0.00  0.00    +0.000 N 
ATOM     12  C   UNL     1       1.472   9.162  19.402  0.00  0.00    +0.000 C 
ATOM     13  O   UNL     1       2.035   9.521  18.363  0.00  0.00    +0.000 OA
ATOM     14  H   UNL     1       1.301   7.632  20.812  0.00  0.00    +0.000 HD
BRANCH  12  15
ATOM     15  C   UNL     1       0.528  10.104  20.098  0.00  0.00    +0.000 C 
BRANCH  15  16
ATOM     16  C   UNL     1      -0.712  10.517  19.353  0.00  0.00    +0.000 A 
ATOM     17  C   UNL     1      -1.050   9.971  18.061  0.00  0.00    +0.000 A 
ATOM     18  C   UNL     1      -2.166  10.548  17.500  0.00  0.00    +0.000 A 
ATOM     19  S   UNL     1      -2.841  11.740  18.518  0.00  0.00    +0.000 S 
ATOM     20  C   UNL     1      -1.634  11.487  19.709  0.00  0.00    +0.000 A 
ENDBRANCH  15  16
BRANCH  15  21
ATOM     21  C   UNL     1       0.344   9.597  21.494  0.00  0.00    +0.000 C 
ATOM     22  O   UNL     1      -0.528   8.715  21.774  0.00  0.00    +0.000 OA
ATOM     23  O   UNL     1       1.083  10.036  22.432  0.00  0.00    +0.000 OA
ENDBRANCH  15  21
ENDBRANCH  12  15
ENDBRANCH   6  11
BRANCH  10  24
ATOM     24  C   UNL     1       2.987   2.786  17.605  0.00  0.00    +0.000 C 
ATOM     25  O   UNL     1       4.181   3.030  17.257  0.00  0.00    +0.000 OA
ATOM     26  OXT UNL     1       2.247   1.811  17.290  0.00  0.00    +0.000 OA
ENDBRANCH  10  24
TORSDOF 5
ENDMDL
