MODEL 1
REMARK VINA RESULT:      -8.4      0.000      0.000
REMARK  Name = 
REMARK  9 active torsions:
REMARK  status: ('A' for Active; 'I' for Inactive)
REMARK    1  A    between atoms: C_1  and  C_2
REMARK    2  A    between atoms: C_2  and  C_3
REMARK    3  A    between atoms: C_3  and  C_4
REMARK    4  A    between atoms: C_4  and  C_5
REMARK    5  A    between atoms: C_5  and  O_7
REMARK    6  A    between atoms: O_7  and  C_8
REMARK    7  A    between atoms: C_14  and  C_15
REMARK    8  A    between atoms: N_23  and  C_24
REMARK    9  A    between atoms: C_27  and  C_28
REMARK                            x       y       z     vdW  Elec       q    Type
REMARK                         _______ _______ _______ _____ _____    ______ ____
ROOT
ATOM      1  C   UNL     1       6.370   5.289  15.558  0.00  0.00    +0.000 A 
ATOM      2  C   UNL     1       5.705   6.484  15.241  0.00  0.00    +0.000 A 
ATOM      3  C   UNL     1       4.698   6.883  16.057  0.00  0.00    +0.000 A 
ATOM      4  C   UNL     1       4.406   6.066  17.139  0.00  0.00    +0.000 A 
ATOM      5  C   UNL     1       5.078   4.739  17.537  0.00  0.00    +0.000 A 
ATOM      6  C   UNL     1       6.090   4.402  16.649  0.00  0.00    +0.000 A 
ATOM      7  C   UNL     1       4.761   3.786  19.175  0.00  0.00    +0.000 C 
ATOM      8  C   UNL     1       4.371   2.550  18.433  0.00  0.00    +0.000 C 
ATOM      9  C   UNL     1       3.156   2.801  17.577  0.00  0.00    +0.000 C 
ATOM     10  N   UNL     1       2.577   4.149  17.697  0.00  0.00    +0.000 NA
ATOM     11  C   UNL     1       1.411   4.306  16.861  0.00  0.00    +0.000 C 
ATOM     12  C   UNL     1       3.107   5.299  18.619  0.00  0.00    +0.000 C 
ATOM     13  C   UNL     1       3.276   6.584  17.943  0.00  0.00    +0.000 C 
ATOM     14  C   UNL     1       4.709   5.204  19.434  0.00  0.00    +0.000 C 
ATOM     15  C   UNL     1       6.361   5.130  19.592  0.00  0.00    +0.000 C 
ENDROOT
BRANCH   7  16
ATOM     16  C   UNL     1       3.552   3.741  20.550  0.00  0.00    +0.000 A 
ATOM     17  C   UNL     1       3.266   2.583  21.323  0.00  0.00    +0.000 A 
ATOM     18  C   UNL     1       1.962   2.192  21.648  0.00  0.00    +0.000 A 
ATOM     19  C   UNL     1       0.893   3.013  21.324  0.00  0.00    +0.000 A 
ATOM     20  C   UNL     1       1.164   4.301  20.885  0.00  0.00    +0.000 A 
ATOM     21  C   UNL     1       2.498   4.707  20.637  0.00  0.00    +0.000 A 
ENDBRANCH   7  16
BRANCH   1  22
ATOM     22  O   UNL     1       7.552   5.168  14.833  0.00  0.00    +0.000 OA
BRANCH  22  23
ATOM     23  C   UNL     1       7.408   5.026  13.470  0.00  0.00    +0.000 C 
ATOM     24  O   UNL     1       7.977   5.674  12.580  0.00  0.00    +0.000 OA
BRANCH  23  25
ATOM     25  C   UNL     1       6.454   3.904  13.285  0.00  0.00    +0.000 C 
BRANCH  25  26
ATOM     26  C   UNL     1       6.564   3.335  11.886  0.00  0.00    +0.000 C 
BRANCH  26  28
ATOM     27  C   UNL     1       4.149   3.240  11.292  0.00  0.00    +0.000 C 
ATOM     28  C   UNL     1       5.370   2.424  11.647  0.00  0.00    +0.000 C 
ENDBRANCH  26  28
ENDBRANCH  25  26
ENDBRANCH  23  25
ENDBRANCH  22  23
ENDBRANCH   1  22
TORSDOF 6
ENDMDL
MODEL 2
REMARK VINA RESULT:      -8.2      1.181      2.166
REMARK  Name = 
REMARK  9 active torsions:
REMARK  status: ('A' for Active; 'I' for Inactive)
REMARK    1  A    between atoms: C_1  and  C_2
REMARK    2  A    between atoms: C_2  and  C_3
REMARK    3  A    between atoms: C_3  and  C_4
REMARK    4  A    between atoms: C_4  and  C_5
REMARK    5  A    between atoms: C_5  and  O_7
REMARK    6  A    between atoms: O_7  and  C_8
REMARK    7  A    between atoms: C_14  and  C_15
REMARK    8  A    between atoms: N_23  and  C_24
REMARK    9  A    between atoms: C_27  and  C_28
REMARK                            x       y       z     vdW  Elec       q    Type
REMARK                         _______ _______ _______ _____ _____    ______ ____
ROOT
ATOM      1  C   UNL     1       5.600   5.840  15.577  0.00  0.00    +0.000 A 
ATOM      2  C   UNL     1       6.491   6.422  16.493  0.00  0.00    +0.000 A 
ATOM      3  C   UNL     1       6.334   6.119  17.806  0.00  0.00    +0.000 A 
ATOM      4  C   UNL     1       5.296   5.259  18.132  0.00  0.00    +0.000 A 
ATOM      5  C   UNL     1       4.276   4.599  17.187  0.00  0.00    +0.000 A 
ATOM      6  C   UNL     1       4.502   4.966  15.868  0.00  0.00    +0.000 A 
ATOM      7  C   UNL     1       3.011   3.245  17.697  0.00  0.00    +0.000 C 
ATOM      8  C   UNL     1       1.864   4.071  17.213  0.00  0.00    +0.000 C 
ATOM      9  C   UNL     1       1.779   5.367  17.977  0.00  0.00    +0.000 C 
ATOM     10  N   UNL     1       2.766   5.520  19.059  0.00  0.00    +0.000 NA
ATOM     11  C   UNL     1       2.609   6.776  19.751  0.00  0.00    +0.000 C 
ATOM     12  C   UNL     1       3.857   4.470  19.462  0.00  0.00    +0.000 C 
ATOM     13  C   UNL     1       5.204   5.021  19.590  0.00  0.00    +0.000 C 
ATOM     14  C   UNL     1       4.238   3.048  18.428  0.00  0.00    +0.000 C 
ATOM     15  C   UNL     1       4.768   2.197  17.104  0.00  0.00    +0.000 C 
ENDROOT
BRANCH   7  16
ATOM     16  C   UNL     1       2.279   2.520  19.211  0.00  0.00    +0.000 A 
ATOM     17  C   UNL     1       0.959   2.788  19.666  0.00  0.00    +0.000 A 
ATOM     18  C   UNL     1       0.662   3.068  21.004  0.00  0.00    +0.000 A 
ATOM     19  C   UNL     1       1.652   2.965  21.969  0.00  0.00    +0.000 A 
ATOM     20  C   UNL     1       2.856   2.374  21.614  0.00  0.00    +0.000 A 
ATOM     21  C   UNL     1       3.111   2.022  20.266  0.00  0.00    +0.000 A 
ENDBRANCH   7  16
BRANCH   1  22
ATOM     22  O   UNL     1       6.060   5.988  14.271  0.00  0.00    +0.000 OA
BRANCH  22  23
ATOM     23  C   UNL     1       7.054   5.115  13.883  0.00  0.00    +0.000 C 
ATOM     24  O   UNL     1       8.274   5.327  13.853  0.00  0.00    +0.000 OA
BRANCH  23  25
ATOM     25  C   UNL     1       6.360   3.848  13.542  0.00  0.00    +0.000 C 
BRANCH  25  26
ATOM     26  C   UNL     1       6.680   3.428  12.123  0.00  0.00    +0.000 C 
BRANCH  26  28
ATOM     27  C   UNL     1       4.268   3.316  11.520  0.00  0.00    +0.000 C 
ATOM     28  C   UNL     1       5.556   2.533  11.625  0.00  0.00    +0.000 C 
ENDBRANCH  26  28
ENDBRANCH  25  26
ENDBRANCH  23  25
ENDBRANCH  22  23
ENDBRANCH   1  22
TORSDOF 6
ENDMDL
MODEL 3
REMARK VINA RESULT:      -7.8      1.250      2.205
REMARK  Name = 
REMARK  9 active torsions:
REMARK  status: ('A' for Active; 'I' for Inactive)
REMARK    1  A    between atoms: C_1  and  C_2
REMARK    2  A    between atoms: C_2  and  C_3
REMARK    3  A    between atoms: C_3  and  C_4
REMARK    4  A    between atoms: C_4  and  C_5
REMARK    5  A    between atoms: C_5  and  O_7
REMARK    6  A    between atoms: O_7  and  C_8
REMARK    7  A    between atoms: C_14  and  C_15
REMARK    8  A    between atoms: N_23  and  C_24
REMARK    9  A    between atoms: C_27  and  C_28
REMARK                            x       y       z     vdW  Elec       q    Type
REMARK                         _______ _______ _______ _____ _____    ______ ____
ROOT
ATOM      1  C   UNL     1       6.221   4.084  15.291  0.00  0.00    +0.000 A 
ATOM      2  C   UNL     1       7.290   4.687  15.973  0.00  0.00    +0.000 A 
ATOM      3  C   UNL     1       7.103   5.019  17.274  0.00  0.00    +0.000 A 
ATOM      4  C   UNL     1       5.860   4.737  17.822  0.00  0.00    +0.000 A 
ATOM      5  C   UNL     1       4.642   4.096  17.134  0.00  0.00    +0.000 A 
ATOM      6  C   UNL     1       4.915   3.794  15.807  0.00  0.00    +0.000 A 
ATOM      7  C   UNL     1       3.034   3.537  18.026  0.00  0.00    +0.000 C 
ATOM      8  C   UNL     1       2.192   4.398  17.143  0.00  0.00    +0.000 C 
ATOM      9  C   UNL     1       2.559   5.851  17.305  0.00  0.00    +0.000 C 
ATOM     10  N   UNL     1       3.590   6.125  18.320  0.00  0.00    +0.000 NA
ATOM     11  C   UNL     1       3.874   7.535  18.426  0.00  0.00    +0.000 C 
ATOM     12  C   UNL     1       4.304   5.056  19.215  0.00  0.00    +0.000 C 
ATOM     13  C   UNL     1       5.762   5.165  19.235  0.00  0.00    +0.000 C 
ATOM     14  C   UNL     1       4.165   3.292  18.887  0.00  0.00    +0.000 C 
ATOM     15  C   UNL     1       4.336   1.852  18.078  0.00  0.00    +0.000 C 
ENDROOT
BRANCH   7  16
ATOM     16  C   UNL     1       2.177   3.768  19.628  0.00  0.00    +0.000 A 
ATOM     17  C   UNL     1       2.842   3.918  20.874  0.00  0.00    +0.000 A 
ATOM     18  C   UNL     1       2.443   3.241  22.032  0.00  0.00    +0.000 A 
ATOM     19  C   UNL     1       1.281   2.485  22.026  0.00  0.00    +0.000 A 
ATOM     20  C   UNL     1       0.430   2.598  20.935  0.00  0.00    +0.000 A 
ATOM     21  C   UNL     1       0.816   3.355  19.802  0.00  0.00    +0.000 A 
ENDBRANCH   7  16
BRANCH   1  22
ATOM     22  O   UNL     1       6.645   3.529  14.088  0.00  0.00    +0.000 OA
BRANCH  22  23
ATOM     23  C   UNL     1       7.069   4.424  13.130  0.00  0.00    +0.000 C 
ATOM     24  O   UNL     1       7.610   5.524  13.312  0.00  0.00    +0.000 OA
BRANCH  23  25
ATOM     25  C   UNL     1       6.776   3.780  11.825  0.00  0.00    +0.000 C 
BRANCH  25  26
ATOM     26  C   UNL     1       5.562   2.882  11.933  0.00  0.00    +0.000 C 
BRANCH  26  28
ATOM     27  C   UNL     1       3.459   3.013  10.608  0.00  0.00    +0.000 C 
ATOM     28  C   UNL     1       4.325   3.713  11.629  0.00  0.00    +0.000 C 
ENDBRANCH  26  28
ENDBRANCH  25  26
ENDBRANCH  23  25
ENDBRANCH  22  23
ENDBRANCH   1  22
TORSDOF 6
ENDMDL
MODEL 4
REMARK VINA RESULT:      -7.8      2.710      6.855
REMARK  Name = 
REMARK  9 active torsions:
REMARK  status: ('A' for Active; 'I' for Inactive)
REMARK    1  A    between atoms: C_1  and  C_2
REMARK    2  A    between atoms: C_2  and  C_3
REMARK    3  A    between atoms: C_3  and  C_4
REMARK    4  A    between atoms: C_4  and  C_5
REMARK    5  A    between atoms: C_5  and  O_7
REMARK    6  A    between atoms: O_7  and  C_8
REMARK    7  A    between atoms: C_14  and  C_15
REMARK    8  A    between atoms: N_23  and  C_24
REMARK    9  A    between atoms: C_27  and  C_28
REMARK                            x       y       z     vdW  Elec       q    Type
REMARK                         _______ _______ _______ _____ _____    ______ ____
ROOT
ATOM      1  C   UNL     1       3.930   4.781  20.069  0.00  0.00    +0.000 A 
ATOM      2  C   UNL     1       3.163   5.957  20.041  0.00  0.00    +0.000 A 
ATOM      3  C   UNL     1       3.157   6.681  18.894  0.00  0.00    +0.000 A 
ATOM      4  C   UNL     1       3.919   6.195  17.841  0.00  0.00    +0.000 A 
ATOM      5  C   UNL     1       4.793   4.929  17.806  0.00  0.00    +0.000 A 
ATOM      6  C   UNL     1       4.748   4.253  19.017  0.00  0.00    +0.000 A 
ATOM      7  C   UNL     1       5.637   4.211  16.236  0.00  0.00    +0.000 C 
ATOM      8  C   UNL     1       6.984   4.267  16.879  0.00  0.00    +0.000 C 
ATOM      9  C   UNL     1       7.351   5.687  17.228  0.00  0.00    +0.000 C 
ATOM     10  N   UNL     1       6.371   6.705  16.812  0.00  0.00    +0.000 NA
ATOM     11  C   UNL     1       6.800   8.036  17.167  0.00  0.00    +0.000 C 
ATOM     12  C   UNL     1       5.026   6.430  16.057  0.00  0.00    +0.000 C 
ATOM     13  C   UNL     1       3.858   7.077  16.654  0.00  0.00    +0.000 C 
ATOM     14  C   UNL     1       4.358   4.770  15.873  0.00  0.00    +0.000 C 
ATOM     15  C   UNL     1       3.710   3.306  16.317  0.00  0.00    +0.000 C 
ENDROOT
BRANCH   7  16
ATOM     16  C   UNL     1       6.066   4.717  14.529  0.00  0.00    +0.000 A 
ATOM     17  C   UNL     1       5.466   4.172  13.361  0.00  0.00    +0.000 A 
ATOM     18  C   UNL     1       6.208   3.788  12.238  0.00  0.00    +0.000 A 
ATOM     19  C   UNL     1       7.567   4.053  12.183  0.00  0.00    +0.000 A 
ATOM     20  C   UNL     1       8.113   4.888  13.147  0.00  0.00    +0.000 A 
ATOM     21  C   UNL     1       7.326   5.334  14.237  0.00  0.00    +0.000 A 
ENDBRANCH   7  16
BRANCH   1  22
ATOM     22  O   UNL     1       3.604   3.999  21.172  0.00  0.00    +0.000 OA
BRANCH  22  23
ATOM     23  C   UNL     1       3.194   2.713  20.896  0.00  0.00    +0.000 C 
ATOM     24  O   UNL     1       3.852   1.809  20.361  0.00  0.00    +0.000 OA
BRANCH  23  25
ATOM     25  C   UNL     1       1.804   2.619  21.409  0.00  0.00    +0.000 C 
BRANCH  25  26
ATOM     26  C   UNL     1       0.840   3.317  20.475  0.00  0.00    +0.000 C 
BRANCH  26  28
ATOM     27  C   UNL     1       1.039   3.713  18.026  0.00  0.00    +0.000 C 
ATOM     28  C   UNL     1       0.942   2.662  19.106  0.00  0.00    +0.000 C 
ENDBRANCH  26  28
ENDBRANCH  25  26
ENDBRANCH  23  25
ENDBRANCH  22  23
ENDBRANCH   1  22
TORSDOF 6
ENDMDL
MODEL 5
REMARK VINA RESULT:      -7.8      7.565     10.494
REMARK  Name = 
REMARK  9 active torsions:
REMARK  status: ('A' for Active; 'I' for Inactive)
REMARK    1  A    between atoms: C_1  and  C_2
REMARK    2  A    between atoms: C_2  and  C_3
REMARK    3  A    between atoms: C_3  and  C_4
REMARK    4  A    between atoms: C_4  and  C_5
REMARK    5  A    between atoms: C_5  and  O_7
REMARK    6  A    between atoms: O_7  and  C_8
REMARK    7  A    between atoms: C_14  and  C_15
REMARK    8  A    between atoms: N_23  and  C_24
REMARK    9  A    between atoms: C_27  and  C_28
REMARK                            x       y       z     vdW  Elec       q    Type
REMARK                         _______ _______ _______ _____ _____    ______ ____
ROOT
ATOM      1  C   UNL     1       1.121   9.777  19.517  0.00  0.00    +0.000 A 
ATOM      2  C   UNL     1       0.743   9.706  20.867  0.00  0.00    +0.000 A 
ATOM      3  C   UNL     1       0.483  10.870  21.513  0.00  0.00    +0.000 A 
ATOM      4  C   UNL     1       0.619  12.039  20.779  0.00  0.00    +0.000 A 
ATOM      5  C   UNL     1       1.043  12.193  19.307  0.00  0.00    +0.000 A 
ATOM      6  C   UNL     1       1.296  10.958  18.725  0.00  0.00    +0.000 A 
ATOM      7  C   UNL     1       0.989  13.832  18.306  0.00  0.00    +0.000 C 
ATOM      8  C   UNL     1       2.442  13.733  17.979  0.00  0.00    +0.000 C 
ATOM      9  C   UNL     1       3.276  13.760  19.234  0.00  0.00    +0.000 C 
ATOM     10  N   UNL     1       2.518  13.945  20.483  0.00  0.00    +0.000 NA
ATOM     11  C   UNL     1       3.386  13.976  21.635  0.00  0.00    +0.000 C 
ATOM     12  C   UNL     1       0.965  14.115  20.598  0.00  0.00    +0.000 C 
ATOM     13  C   UNL     1       0.336  13.244  21.589  0.00  0.00    +0.000 C 
ATOM     14  C   UNL     1      -0.134  13.792  19.210  0.00  0.00    +0.000 C 
ATOM     15  C   UNL     1      -0.919  12.927  18.029  0.00  0.00    +0.000 C 
ENDROOT
BRANCH   7  16
ATOM     16  C   UNL     1       0.838  15.635  18.591  0.00  0.00    +0.000 A 
ATOM     17  C   UNL     1      -0.398  16.315  18.761  0.00  0.00    +0.000 A 
ATOM     18  C   UNL     1      -0.693  17.523  18.121  0.00  0.00    +0.000 A 
ATOM     19  C   UNL     1       0.285  18.172  17.383  0.00  0.00    +0.000 A 
ATOM     20  C   UNL     1       1.592  17.716  17.482  0.00  0.00    +0.000 A 
ATOM     21  C   UNL     1       1.885  16.533  18.203  0.00  0.00    +0.000 A 
ENDBRANCH   7  16
BRANCH   1  22
ATOM     22  O   UNL     1       1.055   8.524  18.914  0.00  0.00    +0.000 OA
BRANCH  22  23
ATOM     23  C   UNL     1       2.266   7.929  18.634  0.00  0.00    +0.000 C 
ATOM     24  O   UNL     1       3.005   8.143  17.663  0.00  0.00    +0.000 OA
BRANCH  23  25
ATOM     25  C   UNL     1       2.523   7.000  19.762  0.00  0.00    +0.000 C 
BRANCH  25  26
ATOM     26  C   UNL     1       2.238   5.571  19.354  0.00  0.00    +0.000 C 
BRANCH  26  28
ATOM     27  C   UNL     1       0.973   3.679  20.362  0.00  0.00    +0.000 C 
ATOM     28  C   UNL     1       2.006   4.752  20.615  0.00  0.00    +0.000 C 
ENDBRANCH  26  28
ENDBRANCH  25  26
ENDBRANCH  23  25
ENDBRANCH  22  23
ENDBRANCH   1  22
TORSDOF 6
ENDMDL
MODEL 6
REMARK VINA RESULT:      -7.8      2.911      6.797
REMARK  Name = 
REMARK  9 active torsions:
REMARK  status: ('A' for Active; 'I' for Inactive)
REMARK    1  A    between atoms: C_1  and  C_2
REMARK    2  A    between atoms: C_2  and  C_3
REMARK    3  A    between atoms: C_3  and  C_4
REMARK    4  A    between atoms: C_4  and  C_5
REMARK    5  A    between atoms: C_5  and  O_7
REMARK    6  A    between atoms: O_7  and  C_8
REMARK    7  A    between atoms: C_14  and  C_15
REMARK    8  A    between atoms: N_23  and  C_24
REMARK    9  A    between atoms: C_27  and  C_28
REMARK                            x       y       z     vdW  Elec       q    Type
REMARK                         _______ _______ _______ _____ _____    ______ ____
ROOT
ATOM      1  C   UNL     1       2.790   6.266  19.693  0.00  0.00    +0.000 A 
ATOM      2  C   UNL     1       2.421   7.476  19.084  0.00  0.00    +0.000 A 
ATOM      3  C   UNL     1       2.985   7.780  17.889  0.00  0.00    +0.000 A 
ATOM      4  C   UNL     1       3.890   6.865  17.371  0.00  0.00    +0.000 A 
ATOM      5  C   UNL     1       4.352   5.532  17.988  0.00  0.00    +0.000 A 
ATOM      6  C   UNL     1       3.733   5.302  19.209  0.00  0.00    +0.000 A 
ATOM      7  C   UNL     1       5.437   4.219  17.098  0.00  0.00    +0.000 C 
ATOM      8  C   UNL     1       6.461   4.264  18.184  0.00  0.00    +0.000 C 
ATOM      9  C   UNL     1       7.062   5.642  18.295  0.00  0.00    +0.000 C 
ATOM     10  N   UNL     1       6.584   6.613  17.297  0.00  0.00    +0.000 NA
ATOM     11  C   UNL     1       7.215   7.901  17.459  0.00  0.00    +0.000 C 
ATOM     12  C   UNL     1       5.539   6.328  16.164  0.00  0.00    +0.000 C 
ATOM     13  C   UNL     1       4.460   7.311  16.080  0.00  0.00    +0.000 C 
ATOM     14  C   UNL     1       4.547   4.827  16.140  0.00  0.00    +0.000 C 
ATOM     15  C   UNL     1       3.421   3.710  16.633  0.00  0.00    +0.000 C 
ENDROOT
BRANCH   7  16
ATOM     16  C   UNL     1       6.520   4.069  15.629  0.00  0.00    +0.000 A 
ATOM     17  C   UNL     1       7.544   4.996  15.295  0.00  0.00    +0.000 A 
ATOM     18  C   UNL     1       7.733   5.480  13.996  0.00  0.00    +0.000 A 
ATOM     19  C   UNL     1       6.989   4.958  12.949  0.00  0.00    +0.000 A 
ATOM     20  C   UNL     1       6.234   3.818  13.183  0.00  0.00    +0.000 A 
ATOM     21  C   UNL     1       6.118   3.293  14.494  0.00  0.00    +0.000 A 
ENDBRANCH   7  16
BRANCH   1  22
ATOM     22  O   UNL     1       1.922   5.946  20.733  0.00  0.00    +0.000 OA
BRANCH  22  23
ATOM     23  C   UNL     1       1.454   4.651  20.747  0.00  0.00    +0.000 C 
ATOM     24  O   UNL     1       0.536   4.172  20.066  0.00  0.00    +0.000 OA
BRANCH  23  25
ATOM     25  C   UNL     1       2.307   3.929  21.725  0.00  0.00    +0.000 C 
BRANCH  25  26
ATOM     26  C   UNL     1       2.501   2.488  21.305  0.00  0.00    +0.000 C 
BRANCH  26  28
ATOM     27  C   UNL     1       3.749   1.633  19.328  0.00  0.00    +0.000 C 
ATOM     28  C   UNL     1       3.866   2.362  20.646  0.00  0.00    +0.000 C 
ENDBRANCH  26  28
ENDBRANCH  25  26
ENDBRANCH  23  25
ENDBRANCH  22  23
ENDBRANCH   1  22
TORSDOF 6
ENDMDL
MODEL 7
REMARK VINA RESULT:      -7.8      9.748     12.722
REMARK  Name = 
REMARK  9 active torsions:
REMARK  status: ('A' for Active; 'I' for Inactive)
REMARK    1  A    between atoms: C_1  and  C_2
REMARK    2  A    between atoms: C_2  and  C_3
REMARK    3  A    between atoms: C_3  and  C_4
REMARK    4  A    between atoms: C_4  and  C_5
REMARK    5  A    between atoms: C_5  and  O_7
REMARK    6  A    between atoms: O_7  and  C_8
REMARK    7  A    between atoms: C_14  and  C_15
REMARK    8  A    between atoms: N_23  and  C_24
REMARK    9  A    between atoms: C_27  and  C_28
REMARK                            x       y       z     vdW  Elec       q    Type
REMARK                         _______ _______ _______ _____ _____    ______ ____
ROOT
ATOM      1  C   UNL     1      -4.665  12.782  21.166  0.00  0.00    +0.000 A 
ATOM      2  C   UNL     1      -4.561  12.594  22.553  0.00  0.00    +0.000 A 
ATOM      3  C   UNL     1      -3.318  12.566  23.095  0.00  0.00    +0.000 A 
ATOM      4  C   UNL     1      -2.249  12.721  22.225  0.00  0.00    +0.000 A 
ATOM      5  C   UNL     1      -2.287  12.915  20.698  0.00  0.00    +0.000 A 
ATOM      6  C   UNL     1      -3.593  12.924  20.225  0.00  0.00    +0.000 A 
ATOM      7  C   UNL     1      -0.771  13.345  19.599  0.00  0.00    +0.000 C 
ATOM      8  C   UNL     1      -0.992  12.142  18.743  0.00  0.00    +0.000 C 
ATOM      9  C   UNL     1      -0.873  10.878  19.557  0.00  0.00    +0.000 C 
ATOM     10  N   UNL     1      -0.504  11.078  20.968  0.00  0.00    +0.000 NA
ATOM     11  C   UNL     1      -0.394   9.824  21.673  0.00  0.00    +0.000 C 
ATOM     12  C   UNL     1      -0.230  12.456  21.660  0.00  0.00    +0.000 C 
ATOM     13  C   UNL     1      -0.945  12.648  22.921  0.00  0.00    +0.000 C 
ATOM     14  C   UNL     1      -0.644  14.018  20.868  0.00  0.00    +0.000 C 
ATOM     15  C   UNL     1      -1.589  15.215  20.211  0.00  0.00    +0.000 C 
ENDROOT
BRANCH   7  16
ATOM     16  C   UNL     1       1.058  13.355  19.689  0.00  0.00    +0.000 A 
ATOM     17  C   UNL     1       1.819  14.360  20.345  0.00  0.00    +0.000 A 
ATOM     18  C   UNL     1       2.960  14.937  19.777  0.00  0.00    +0.000 A 
ATOM     19  C   UNL     1       3.464  14.444  18.584  0.00  0.00    +0.000 A 
ATOM     20  C   UNL     1       2.953  13.248  18.099  0.00  0.00    +0.000 A 
ATOM     21  C   UNL     1       1.847  12.633  18.734  0.00  0.00    +0.000 A 
ENDBRANCH   7  16
BRANCH   1  22
ATOM     22  O   UNL     1      -5.971  13.093  20.801  0.00  0.00    +0.000 OA
BRANCH  22  23
ATOM     23  C   UNL     1      -6.853  12.035  20.768  0.00  0.00    +0.000 C 
ATOM     24  O   UNL     1      -7.727  11.755  21.601  0.00  0.00    +0.000 OA
BRANCH  23  25
ATOM     25  C   UNL     1      -6.566  11.316  19.502  0.00  0.00    +0.000 C 
BRANCH  25  26
ATOM     26  C   UNL     1      -7.134  12.070  18.319  0.00  0.00    +0.000 C 
BRANCH  26  28
ATOM     27  C   UNL     1      -4.988  11.273  17.342  0.00  0.00    +0.000 C 
ATOM     28  C   UNL     1      -5.992  12.401  17.371  0.00  0.00    +0.000 C 
ENDBRANCH  26  28
ENDBRANCH  25  26
ENDBRANCH  23  25
ENDBRANCH  22  23
ENDBRANCH   1  22
TORSDOF 6
ENDMDL
MODEL 8
REMARK VINA RESULT:      -7.8      2.969      6.693
REMARK  Name = 
REMARK  9 active torsions:
REMARK  status: ('A' for Active; 'I' for Inactive)
REMARK    1  A    between atoms: C_1  and  C_2
REMARK    2  A    between atoms: C_2  and  C_3
REMARK    3  A    between atoms: C_3  and  C_4
REMARK    4  A    between atoms: C_4  and  C_5
REMARK    5  A    between atoms: C_5  and  O_7
REMARK    6  A    between atoms: O_7  and  C_8
REMARK    7  A    between atoms: C_14  and  C_15
REMARK    8  A    between atoms: N_23  and  C_24
REMARK    9  A    between atoms: C_27  and  C_28
REMARK                            x       y       z     vdW  Elec       q    Type
REMARK                         _______ _______ _______ _____ _____    ______ ____
ROOT
ATOM      1  C   UNL     1       3.051   5.960  20.085  0.00  0.00    +0.000 A 
ATOM      2  C   UNL     1       2.464   7.075  19.466  0.00  0.00    +0.000 A 
ATOM      3  C   UNL     1       2.874   7.392  18.213  0.00  0.00    +0.000 A 
ATOM      4  C   UNL     1       3.851   6.584  17.649  0.00  0.00    +0.000 A 
ATOM      5  C   UNL     1       4.549   5.361  18.272  0.00  0.00    +0.000 A 
ATOM      6  C   UNL     1       4.076   5.111  19.553  0.00  0.00    +0.000 A 
ATOM      7  C   UNL     1       5.729   4.166  17.338  0.00  0.00    +0.000 C 
ATOM      8  C   UNL     1       6.825   4.408  18.322  0.00  0.00    +0.000 C 
ATOM      9  C   UNL     1       7.232   5.859  18.324  0.00  0.00    +0.000 C 
ATOM     10  N   UNL     1       6.537   6.703  17.337  0.00  0.00    +0.000 NA
ATOM     11  C   UNL     1       6.992   8.071  17.389  0.00  0.00    +0.000 C 
ATOM     12  C   UNL     1       5.450   6.218  16.318  0.00  0.00    +0.000 C 
ATOM     13  C   UNL     1       4.240   7.038  16.295  0.00  0.00    +0.000 C 
ATOM     14  C   UNL     1       4.683   4.596  16.443  0.00  0.00    +0.000 C 
ATOM     15  C   UNL     1       3.773   3.362  17.081  0.00  0.00    +0.000 C 
ENDROOT
BRANCH   7  16
ATOM     16  C   UNL     1       6.692   4.091  15.783  0.00  0.00    +0.000 A 
ATOM     17  C   UNL     1       7.641   5.071  15.384  0.00  0.00    +0.000 A 
ATOM     18  C   UNL     1       7.700   5.584  14.084  0.00  0.00    +0.000 A 
ATOM     19  C   UNL     1       6.896   5.046  13.091  0.00  0.00    +0.000 A 
ATOM     20  C   UNL     1       6.216   3.867  13.364  0.00  0.00    +0.000 A 
ATOM     21  C   UNL     1       6.233   3.316  14.668  0.00  0.00    +0.000 A 
ENDBRANCH   7  16
BRANCH   1  22
ATOM     22  O   UNL     1       2.330   5.578  21.212  0.00  0.00    +0.000 OA
BRANCH  22  23
ATOM     23  C   UNL     1       2.074   4.229  21.332  0.00  0.00    +0.000 C 
ATOM     24  O   UNL     1       2.640   3.417  22.077  0.00  0.00    +0.000 OA
BRANCH  23  25
ATOM     25  C   UNL     1       0.947   3.954  20.407  0.00  0.00    +0.000 C 
BRANCH  25  26
ATOM     26  C   UNL     1       0.904   2.488  20.036  0.00  0.00    +0.000 C 
BRANCH  26  28
ATOM     27  C   UNL     1       0.959   3.751  17.892  0.00  0.00    +0.000 C 
ATOM     28  C   UNL     1       0.872   2.379  18.519  0.00  0.00    +0.000 C 
ENDBRANCH  26  28
ENDBRANCH  25  26
ENDBRANCH  23  25
ENDBRANCH  22  23
ENDBRANCH   1  22
TORSDOF 6
ENDMDL
MODEL 9
REMARK VINA RESULT:      -7.7      1.281      2.256
REMARK  Name = 
REMARK  9 active torsions:
REMARK  status: ('A' for Active; 'I' for Inactive)
REMARK    1  A    between atoms: C_1  and  C_2
REMARK    2  A    between atoms: C_2  and  C_3
REMARK    3  A    between atoms: C_3  and  C_4
REMARK    4  A    between atoms: C_4  and  C_5
REMARK    5  A    between atoms: C_5  and  O_7
REMARK    6  A    between atoms: O_7  and  C_8
REMARK    7  A    between atoms: C_14  and  C_15
REMARK    8  A    between atoms: N_23  and  C_24
REMARK    9  A    between atoms: C_27  and  C_28
REMARK                            x       y       z     vdW  Elec       q    Type
REMARK                         _______ _______ _______ _____ _____    ______ ____
ROOT
ATOM      1  C   UNL     1       6.105   4.099  15.056  0.00  0.00    +0.000 A 
ATOM      2  C   UNL     1       7.207   4.744  15.640  0.00  0.00    +0.000 A 
ATOM      3  C   UNL     1       7.119   5.084  16.950  0.00  0.00    +0.000 A 
ATOM      4  C   UNL     1       5.936   4.769  17.602  0.00  0.00    +0.000 A 
ATOM      5  C   UNL     1       4.686   4.081  17.024  0.00  0.00    +0.000 A 
ATOM      6  C   UNL     1       4.857   3.773  15.682  0.00  0.00    +0.000 A 
ATOM      7  C   UNL     1       3.178   3.480  18.053  0.00  0.00    +0.000 C 
ATOM      8  C   UNL     1       2.237   4.303  17.238  0.00  0.00    +0.000 C 
ATOM      9  C   UNL     1       2.568   5.769  17.356  0.00  0.00    +0.000 C 
ATOM     10  N   UNL     1       3.671   6.087  18.278  0.00  0.00    +0.000 NA
ATOM     11  C   UNL     1       3.916   7.508  18.349  0.00  0.00    +0.000 C 
ATOM     12  C   UNL     1       4.493   5.052  19.119  0.00  0.00    +0.000 C 
ATOM     13  C   UNL     1       5.943   5.209  19.015  0.00  0.00    +0.000 C 
ATOM     14  C   UNL     1       4.385   3.281  18.819  0.00  0.00    +0.000 C 
ATOM     15  C   UNL     1       4.535   1.839  18.009  0.00  0.00    +0.000 C 
ENDROOT
BRANCH   7  16
ATOM     16  C   UNL     1       2.451   3.701  19.719  0.00  0.00    +0.000 A 
ATOM     17  C   UNL     1       3.112   3.360  20.930  0.00  0.00    +0.000 A 
ATOM     18  C   UNL     1       2.480   2.670  21.970  0.00  0.00    +0.000 A 
ATOM     19  C   UNL     1       1.121   2.405  21.899  0.00  0.00    +0.000 A 
ATOM     20  C   UNL     1       0.383   3.024  20.900  0.00  0.00    +0.000 A 
ATOM     21  C   UNL     1       1.032   3.787  19.899  0.00  0.00    +0.000 A 
ENDBRANCH   7  16
BRANCH   1  22
ATOM     22  O   UNL     1       6.445   3.545  13.826  0.00  0.00    +0.000 OA
BRANCH  22  23
ATOM     23  C   UNL     1       7.028   4.405  12.920  0.00  0.00    +0.000 C 
ATOM     24  O   UNL     1       7.600   5.478  13.159  0.00  0.00    +0.000 OA
BRANCH  23  25
ATOM     25  C   UNL     1       6.864   3.758  11.595  0.00  0.00    +0.000 C 
BRANCH  25  26
ATOM     26  C   UNL     1       6.072   2.474  11.720  0.00  0.00    +0.000 C 
BRANCH  26  28
ATOM     27  C   UNL     1       6.171   0.033  11.247  0.00  0.00    +0.000 C 
ATOM     28  C   UNL     1       6.851   1.365  11.031  0.00  0.00    +0.000 C 
ENDBRANCH  26  28
ENDBRANCH  25  26
ENDBRANCH  23  25
ENDBRANCH  22  23
ENDBRANCH   1  22
TORSDOF 6
ENDMDL
