MODEL 1
REMARK VINA RESULT:      -8.2      0.000      0.000
REMARK  Name = 
REMARK  12 active torsions:
REMARK  status: ('A' for Active; 'I' for Inactive)
REMARK    1  A    between atoms: C_1  and  O_2
REMARK    2  A    between atoms: O_2  and  C_3
REMARK    3  A    between atoms: C_3  and  C_5
REMARK    4  A    between atoms: C_5  and  C_6
REMARK    5  A    between atoms: C_5  and  N_14
REMARK    6  A    between atoms: C_6  and  C_7
REMARK    7  A    between atoms: C_10  and  O_11
REMARK    8  A    between atoms: C_15  and  C_17
REMARK    9  A    between atoms: C_18  and  C_19
REMARK   10  A    between atoms: C_22  and  O_23
REMARK   11  A    between atoms: C_24  and  O_25
REMARK   12  A    between atoms: O_25  and  C_26
REMARK                            x       y       z     vdW  Elec       q    Type
REMARK                         _______ _______ _______ _____ _____    ______ ____
ROOT
ATOM      1  N   UNL     1       6.973   7.010  16.879  0.00  0.00    +0.000 N 
ATOM      2  C   UNL     1       7.756   7.284  17.969  0.00  0.00    +0.000 C 
ATOM      3  O   UNL     1       8.057   6.480  18.837  0.00  0.00    +0.000 OA
ATOM      4  H   UNL     1       6.904   7.695  16.133  0.00  0.00    +0.000 HD
ENDROOT
BRANCH   2   5
ATOM      5  C   UNL     1       8.153   8.715  18.004  0.00  0.00    +0.000 C 
ATOM      6  C   UNL     1       9.030   9.185  18.903  0.00  0.00    +0.000 C 
BRANCH   6   7
ATOM      7  C   UNL     1       9.338  10.618  19.043  0.00  0.00    +0.000 A 
ATOM      8  C   UNL     1       9.128  11.242  20.275  0.00  0.00    +0.000 A 
ATOM      9  C   UNL     1       9.420  12.599  20.445  0.00  0.00    +0.000 A 
ATOM     10  C   UNL     1       9.936  13.350  19.385  0.00  0.00    +0.000 A 
ATOM     11  C   UNL     1      10.159  12.749  18.144  0.00  0.00    +0.000 A 
ATOM     12  C   UNL     1       9.860  11.386  17.990  0.00  0.00    +0.000 A 
BRANCH  10  13
ATOM     13  O   UNL     1      10.213  14.671  19.602  0.00  0.00    +0.000 OA
ATOM     14  H   UNL     1      10.267  15.132  18.749  0.00  0.00    +0.000 HD
ENDBRANCH  10  13
BRANCH  11  15
ATOM     15  O   UNL     1      10.653  13.314  16.998  0.00  0.00    +0.000 OA
ATOM     16  C   UNL     1      12.055  13.265  16.777  0.00  0.00    +0.000 C 
ENDBRANCH  11  15
ENDBRANCH   6   7
ENDBRANCH   2   5
BRANCH   1  17
ATOM     17  C   UNL     1       6.317   5.729  16.613  0.00  0.00    +0.000 C 
BRANCH  17  18
ATOM     18  C   UNL     1       6.925   5.165  15.323  0.00  0.00    +0.000 C 
ATOM     19  O   UNL     1       7.865   5.676  14.729  0.00  0.00    +0.000 OA
BRANCH  18  21
ATOM     20  C   UNL     1       6.179   3.808  13.563  0.00  0.00    +0.000 C 
ATOM     21  O   UNL     1       6.325   3.993  14.971  0.00  0.00    +0.000 OA
ENDBRANCH  18  21
ENDBRANCH  17  18
BRANCH  17  22
ATOM     22  C   UNL     1       4.781   5.775  16.546  0.00  0.00    +0.000 C 
BRANCH  22  23
ATOM     23  C   UNL     1       4.011   6.214  17.775  0.00  0.00    +0.000 A 
ATOM     24  C   UNL     1       3.257   7.400  17.769  0.00  0.00    +0.000 A 
ATOM     25  C   UNL     1       2.392   7.702  18.827  0.00  0.00    +0.000 A 
ATOM     26  C   UNL     1       2.310   6.839  19.914  0.00  0.00    +0.000 A 
ATOM     27  C   UNL     1       3.096   5.696  19.969  0.00  0.00    +0.000 A 
ATOM     28  C   UNL     1       3.938   5.379  18.899  0.00  0.00    +0.000 A 
BRANCH  26  29
ATOM     29  O   UNL     1       1.453   7.076  20.949  0.00  0.00    +0.000 OA
ATOM     30  H   UNL     1       1.171   8.004  20.912  0.00  0.00    +0.000 HD
ENDBRANCH  26  29
ENDBRANCH  22  23
ENDBRANCH  17  22
ENDBRANCH   1  17
TORSDOF 10
ENDMDL
MODEL 2
REMARK VINA RESULT:      -8.2      0.996      1.244
REMARK  Name = 
REMARK  12 active torsions:
REMARK  status: ('A' for Active; 'I' for Inactive)
REMARK    1  A    between atoms: C_1  and  O_2
REMARK    2  A    between atoms: O_2  and  C_3
REMARK    3  A    between atoms: C_3  and  C_5
REMARK    4  A    between atoms: C_5  and  C_6
REMARK    5  A    between atoms: C_5  and  N_14
REMARK    6  A    between atoms: C_6  and  C_7
REMARK    7  A    between atoms: C_10  and  O_11
REMARK    8  A    between atoms: C_15  and  C_17
REMARK    9  A    between atoms: C_18  and  C_19
REMARK   10  A    between atoms: C_22  and  O_23
REMARK   11  A    between atoms: C_24  and  O_25
REMARK   12  A    between atoms: O_25  and  C_26
REMARK                            x       y       z     vdW  Elec       q    Type
REMARK                         _______ _______ _______ _____ _____    ______ ____
ROOT
ATOM      1  N   UNL     1       6.971   6.753  16.645  0.00  0.00    +0.000 N 
ATOM      2  C   UNL     1       7.630   7.077  17.801  0.00  0.00    +0.000 C 
ATOM      3  O   UNL     1       7.835   6.311  18.730  0.00  0.00    +0.000 OA
ATOM      4  H   UNL     1       6.983   7.406  15.867  0.00  0.00    +0.000 HD
ENDROOT
BRANCH   2   5
ATOM      5  C   UNL     1       8.019   8.510  17.819  0.00  0.00    +0.000 C 
ATOM      6  C   UNL     1       8.848   9.008  18.750  0.00  0.00    +0.000 C 
BRANCH   6   7
ATOM      7  C   UNL     1       9.144  10.445  18.867  0.00  0.00    +0.000 A 
ATOM      8  C   UNL     1      10.061  10.873  19.830  0.00  0.00    +0.000 A 
ATOM      9  C   UNL     1      10.373  12.230  19.962  0.00  0.00    +0.000 A 
ATOM     10  C   UNL     1       9.778  13.178  19.125  0.00  0.00    +0.000 A 
ATOM     11  C   UNL     1       8.860  12.775  18.152  0.00  0.00    +0.000 A 
ATOM     12  C   UNL     1       8.558  11.410  18.033  0.00  0.00    +0.000 A 
BRANCH  10  13
ATOM     13  O   UNL     1      10.120  14.492  19.287  0.00  0.00    +0.000 OA
ATOM     14  H   UNL     1      10.770  14.568  20.005  0.00  0.00    +0.000 HD
ENDBRANCH  10  13
BRANCH  11  15
ATOM     15  O   UNL     1       8.180  13.547  17.248  0.00  0.00    +0.000 OA
ATOM     16  C   UNL     1       6.998  14.204  17.681  0.00  0.00    +0.000 C 
ENDBRANCH  11  15
ENDBRANCH   6   7
ENDBRANCH   2   5
BRANCH   1  17
ATOM     17  C   UNL     1       6.349   5.459  16.363  0.00  0.00    +0.000 C 
BRANCH  17  18
ATOM     18  C   UNL     1       6.906   4.968  15.022  0.00  0.00    +0.000 C 
ATOM     19  O   UNL     1       7.884   5.452  14.469  0.00  0.00    +0.000 OA
BRANCH  18  21
ATOM     20  C   UNL     1       6.244   3.718  13.152  0.00  0.00    +0.000 C 
ATOM     21  O   UNL     1       6.211   3.886  14.569  0.00  0.00    +0.000 OA
ENDBRANCH  18  21
ENDBRANCH  17  18
BRANCH  17  22
ATOM     22  C   UNL     1       4.810   5.449  16.378  0.00  0.00    +0.000 C 
BRANCH  22  23
ATOM     23  C   UNL     1       4.091   5.918  17.627  0.00  0.00    +0.000 A 
ATOM     24  C   UNL     1       3.384   7.131  17.640  0.00  0.00    +0.000 A 
ATOM     25  C   UNL     1       2.560   7.467  18.721  0.00  0.00    +0.000 A 
ATOM     26  C   UNL     1       2.474   6.608  19.810  0.00  0.00    +0.000 A 
ATOM     27  C   UNL     1       3.216   5.435  19.845  0.00  0.00    +0.000 A 
ATOM     28  C   UNL     1       4.015   5.086  18.754  0.00  0.00    +0.000 A 
BRANCH  26  29
ATOM     29  O   UNL     1       1.655   6.878  20.867  0.00  0.00    +0.000 OA
ATOM     30  H   UNL     1       0.755   7.026  20.533  0.00  0.00    +0.000 HD
ENDBRANCH  26  29
ENDBRANCH  22  23
ENDBRANCH  17  22
ENDBRANCH   1  17
TORSDOF 10
ENDMDL
MODEL 3
REMARK VINA RESULT:      -8.1      1.651      2.164
REMARK  Name = 
REMARK  12 active torsions:
REMARK  status: ('A' for Active; 'I' for Inactive)
REMARK    1  A    between atoms: C_1  and  O_2
REMARK    2  A    between atoms: O_2  and  C_3
REMARK    3  A    between atoms: C_3  and  C_5
REMARK    4  A    between atoms: C_5  and  C_6
REMARK    5  A    between atoms: C_5  and  N_14
REMARK    6  A    between atoms: C_6  and  C_7
REMARK    7  A    between atoms: C_10  and  O_11
REMARK    8  A    between atoms: C_15  and  C_17
REMARK    9  A    between atoms: C_18  and  C_19
REMARK   10  A    between atoms: C_22  and  O_23
REMARK   11  A    between atoms: C_24  and  O_25
REMARK   12  A    between atoms: O_25  and  C_26
REMARK                            x       y       z     vdW  Elec       q    Type
REMARK                         _______ _______ _______ _____ _____    ______ ____
ROOT
ATOM      1  N   UNL     1       6.649   7.003  17.046  0.00  0.00    +0.000 N 
ATOM      2  C   UNL     1       7.640   7.347  17.928  0.00  0.00    +0.000 C 
ATOM      3  O   UNL     1       8.050   6.638  18.834  0.00  0.00    +0.000 OA
ATOM      4  H   UNL     1       6.482   7.589  16.234  0.00  0.00    +0.000 HD
ENDROOT
BRANCH   2   5
ATOM      5  C   UNL     1       8.124   8.729  17.686  0.00  0.00    +0.000 C 
ATOM      6  C   UNL     1       8.831   9.404  18.605  0.00  0.00    +0.000 C 
BRANCH   6   7
ATOM      7  C   UNL     1       9.208  10.818  18.441  0.00  0.00    +0.000 A 
ATOM      8  C   UNL     1      10.501  11.220  18.784  0.00  0.00    +0.000 A 
ATOM      9  C   UNL     1      10.896  12.553  18.633  0.00  0.00    +0.000 A 
ATOM     10  C   UNL     1      10.004  13.502  18.126  0.00  0.00    +0.000 A 
ATOM     11  C   UNL     1       8.706  13.125  17.772  0.00  0.00    +0.000 A 
ATOM     12  C   UNL     1       8.326  11.783  17.931  0.00  0.00    +0.000 A 
BRANCH  10  13
ATOM     13  O   UNL     1      10.438  14.791  17.988  0.00  0.00    +0.000 OA
ATOM     14  H   UNL     1      11.236  14.803  17.436  0.00  0.00    +0.000 HD
ENDBRANCH  10  13
BRANCH  11  15
ATOM     15  O   UNL     1       7.699  13.902  17.264  0.00  0.00    +0.000 OA
ATOM     16  C   UNL     1       6.897  14.641  18.174  0.00  0.00    +0.000 C 
ENDBRANCH  11  15
ENDBRANCH   6   7
ENDBRANCH   2   5
BRANCH   1  17
ATOM     17  C   UNL     1       5.876   5.761  17.090  0.00  0.00    +0.000 C 
BRANCH  17  18
ATOM     18  C   UNL     1       6.452   4.829  16.017  0.00  0.00    +0.000 C 
ATOM     19  O   UNL     1       6.123   3.658  15.880  0.00  0.00    +0.000 OA
BRANCH  18  21
ATOM     20  C   UNL     1       7.337   5.030  13.855  0.00  0.00    +0.000 C 
ATOM     21  O   UNL     1       7.322   5.494  15.205  0.00  0.00    +0.000 OA
ENDBRANCH  18  21
ENDBRANCH  17  18
BRANCH  17  22
ATOM     22  C   UNL     1       4.353   5.926  16.941  0.00  0.00    +0.000 C 
BRANCH  22  23
ATOM     23  C   UNL     1       3.445   5.204  17.916  0.00  0.00    +0.000 A 
ATOM     24  C   UNL     1       3.247   5.695  19.218  0.00  0.00    +0.000 A 
ATOM     25  C   UNL     1       2.263   5.146  20.047  0.00  0.00    +0.000 A 
ATOM     26  C   UNL     1       1.501   4.077  19.592  0.00  0.00    +0.000 A 
ATOM     27  C   UNL     1       1.725   3.535  18.333  0.00  0.00    +0.000 A 
ATOM     28  C   UNL     1       2.689   4.101  17.495  0.00  0.00    +0.000 A 
BRANCH  26  29
ATOM     29  O   UNL     1       0.505   3.536  20.353  0.00  0.00    +0.000 OA
ATOM     30  H   UNL     1      -0.057   2.986  19.783  0.00  0.00    +0.000 HD
ENDBRANCH  26  29
ENDBRANCH  22  23
ENDBRANCH  17  22
ENDBRANCH   1  17
TORSDOF 10
ENDMDL
MODEL 4
REMARK VINA RESULT:      -8.1      1.800      2.438
REMARK  Name = 
REMARK  12 active torsions:
REMARK  status: ('A' for Active; 'I' for Inactive)
REMARK    1  A    between atoms: C_1  and  O_2
REMARK    2  A    between atoms: O_2  and  C_3
REMARK    3  A    between atoms: C_3  and  C_5
REMARK    4  A    between atoms: C_5  and  C_6
REMARK    5  A    between atoms: C_5  and  N_14
REMARK    6  A    between atoms: C_6  and  C_7
REMARK    7  A    between atoms: C_10  and  O_11
REMARK    8  A    between atoms: C_15  and  C_17
REMARK    9  A    between atoms: C_18  and  C_19
REMARK   10  A    between atoms: C_22  and  O_23
REMARK   11  A    between atoms: C_24  and  O_25
REMARK   12  A    between atoms: O_25  and  C_26
REMARK                            x       y       z     vdW  Elec       q    Type
REMARK                         _______ _______ _______ _____ _____    ______ ____
ROOT
ATOM      1  N   UNL     1       6.941   7.478  16.975  0.00  0.00    +0.000 N 
ATOM      2  C   UNL     1       7.890   7.896  17.870  0.00  0.00    +0.000 C 
ATOM      3  O   UNL     1       8.316   7.232  18.802  0.00  0.00    +0.000 OA
ATOM      4  H   UNL     1       6.761   8.035  16.145  0.00  0.00    +0.000 HD
ENDROOT
BRANCH   2   5
ATOM      5  C   UNL     1       8.304   9.297  17.605  0.00  0.00    +0.000 C 
ATOM      6  C   UNL     1       9.151   9.952  18.414  0.00  0.00    +0.000 C 
BRANCH   6   7
ATOM      7  C   UNL     1       9.472  11.379  18.246  0.00  0.00    +0.000 A 
ATOM      8  C   UNL     1      10.718  11.738  17.727  0.00  0.00    +0.000 A 
ATOM      9  C   UNL     1      11.053  13.084  17.545  0.00  0.00    +0.000 A 
ATOM     10  C   UNL     1      10.140  14.090  17.873  0.00  0.00    +0.000 A 
ATOM     11  C   UNL     1       8.886  13.757  18.390  0.00  0.00    +0.000 A 
ATOM     12  C   UNL     1       8.566  12.402  18.566  0.00  0.00    +0.000 A 
BRANCH  10  13
ATOM     13  O   UNL     1      10.509  15.391  17.670  0.00  0.00    +0.000 OA
ATOM     14  H   UNL     1      10.071  15.728  16.872  0.00  0.00    +0.000 HD
ENDBRANCH  10  13
BRANCH  11  15
ATOM     15  O   UNL     1       7.868  14.592  18.766  0.00  0.00    +0.000 OA
ATOM     16  C   UNL     1       6.843  14.869  17.823  0.00  0.00    +0.000 C 
ENDBRANCH  11  15
ENDBRANCH   6   7
ENDBRANCH   2   5
BRANCH   1  17
ATOM     17  C   UNL     1       6.237   6.197  17.031  0.00  0.00    +0.000 C 
BRANCH  17  18
ATOM     18  C   UNL     1       7.020   5.208  16.160  0.00  0.00    +0.000 C 
ATOM     19  O   UNL     1       7.823   4.396  16.599  0.00  0.00    +0.000 OA
BRANCH  18  21
ATOM     20  C   UNL     1       6.434   4.057  14.202  0.00  0.00    +0.000 C 
ATOM     21  O   UNL     1       6.652   5.310  14.851  0.00  0.00    +0.000 OA
ENDBRANCH  18  21
ENDBRANCH  17  18
BRANCH  17  22
ATOM     22  C   UNL     1       4.749   6.243  16.642  0.00  0.00    +0.000 C 
BRANCH  22  23
ATOM     23  C   UNL     1       3.779   5.328  17.362  0.00  0.00    +0.000 A 
ATOM     24  C   UNL     1       3.777   3.944  17.119  0.00  0.00    +0.000 A 
ATOM     25  C   UNL     1       3.025   3.079  17.922  0.00  0.00    +0.000 A 
ATOM     26  C   UNL     1       2.241   3.599  18.945  0.00  0.00    +0.000 A 
ATOM     27  C   UNL     1       2.179   4.970  19.159  0.00  0.00    +0.000 A 
ATOM     28  C   UNL     1       2.952   5.831  18.376  0.00  0.00    +0.000 A 
BRANCH  26  29
ATOM     29  O   UNL     1       1.523   2.789  19.775  0.00  0.00    +0.000 OA
ATOM     30  H   UNL     1       1.521   1.891  19.407  0.00  0.00    +0.000 HD
ENDBRANCH  26  29
ENDBRANCH  22  23
ENDBRANCH  17  22
ENDBRANCH   1  17
TORSDOF 10
ENDMDL
MODEL 5
REMARK VINA RESULT:      -8.1      1.885      2.679
REMARK  Name = 
REMARK  12 active torsions:
REMARK  status: ('A' for Active; 'I' for Inactive)
REMARK    1  A    between atoms: C_1  and  O_2
REMARK    2  A    between atoms: O_2  and  C_3
REMARK    3  A    between atoms: C_3  and  C_5
REMARK    4  A    between atoms: C_5  and  C_6
REMARK    5  A    between atoms: C_5  and  N_14
REMARK    6  A    between atoms: C_6  and  C_7
REMARK    7  A    between atoms: C_10  and  O_11
REMARK    8  A    between atoms: C_15  and  C_17
REMARK    9  A    between atoms: C_18  and  C_19
REMARK   10  A    between atoms: C_22  and  O_23
REMARK   11  A    between atoms: C_24  and  O_25
REMARK   12  A    between atoms: O_25  and  C_26
REMARK                            x       y       z     vdW  Elec       q    Type
REMARK                         _______ _______ _______ _____ _____    ______ ____
ROOT
ATOM      1  N   UNL     1       7.068   6.347  18.536  0.00  0.00    +0.000 N 
ATOM      2  C   UNL     1       7.408   7.367  17.687  0.00  0.00    +0.000 C 
ATOM      3  O   UNL     1       7.035   7.470  16.529  0.00  0.00    +0.000 OA
ATOM      4  H   UNL     1       7.297   6.424  19.522  0.00  0.00    +0.000 HD
ENDROOT
BRANCH   2   5
ATOM      5  C   UNL     1       8.349   8.317  18.333  0.00  0.00    +0.000 C 
ATOM      6  C   UNL     1       8.337   9.629  18.051  0.00  0.00    +0.000 C 
BRANCH   6   7
ATOM      7  C   UNL     1       9.342  10.567  18.577  0.00  0.00    +0.000 A 
ATOM      8  C   UNL     1      10.336  11.049  17.722  0.00  0.00    +0.000 A 
ATOM      9  C   UNL     1      11.300  11.949  18.186  0.00  0.00    +0.000 A 
ATOM     10  C   UNL     1      11.278  12.388  19.513  0.00  0.00    +0.000 A 
ATOM     11  C   UNL     1      10.292  11.924  20.388  0.00  0.00    +0.000 A 
ATOM     12  C   UNL     1       9.332  11.021  19.906  0.00  0.00    +0.000 A 
BRANCH  10  13
ATOM     13  O   UNL     1      12.236  13.274  19.918  0.00  0.00    +0.000 OA
ATOM     14  H   UNL     1      11.808  14.063  20.289  0.00  0.00    +0.000 HD
ENDBRANCH  10  13
BRANCH  11  15
ATOM     15  O   UNL     1      10.107  12.236  21.708  0.00  0.00    +0.000 OA
ATOM     16  C   UNL     1       9.175  13.256  22.033  0.00  0.00    +0.000 C 
ENDBRANCH  11  15
ENDBRANCH   6   7
ENDBRANCH   2   5
BRANCH   1  17
ATOM     17  C   UNL     1       6.259   5.183  18.173  0.00  0.00    +0.000 C 
BRANCH  17  18
ATOM     18  C   UNL     1       7.013   4.430  17.071  0.00  0.00    +0.000 C 
ATOM     19  O   UNL     1       8.203   4.152  17.124  0.00  0.00    +0.000 OA
BRANCH  18  21
ATOM     20  C   UNL     1       6.644   4.363  14.756  0.00  0.00    +0.000 C 
ATOM     21  O   UNL     1       6.170   4.057  16.067  0.00  0.00    +0.000 OA
ENDBRANCH  18  21
ENDBRANCH  17  18
BRANCH  17  22
ATOM     22  C   UNL     1       4.808   5.490  17.762  0.00  0.00    +0.000 C 
BRANCH  22  23
ATOM     23  C   UNL     1       3.681   4.776  18.481  0.00  0.00    +0.000 A 
ATOM     24  C   UNL     1       3.346   5.105  19.805  0.00  0.00    +0.000 A 
ATOM     25  C   UNL     1       2.188   4.592  20.399  0.00  0.00    +0.000 A 
ATOM     26  C   UNL     1       1.382   3.714  19.684  0.00  0.00    +0.000 A 
ATOM     27  C   UNL     1       1.730   3.325  18.397  0.00  0.00    +0.000 A 
ATOM     28  C   UNL     1       2.872   3.860  17.794  0.00  0.00    +0.000 A 
BRANCH  26  29
ATOM     29  O   UNL     1       0.224   3.219  20.210  0.00  0.00    +0.000 OA
ATOM     30  H   UNL     1      -0.403   3.062  19.486  0.00  0.00    +0.000 HD
ENDBRANCH  26  29
ENDBRANCH  22  23
ENDBRANCH  17  22
ENDBRANCH   1  17
TORSDOF 10
ENDMDL
MODEL 6
REMARK VINA RESULT:      -8.1      1.837      2.322
REMARK  Name = 
REMARK  12 active torsions:
REMARK  status: ('A' for Active; 'I' for Inactive)
REMARK    1  A    between atoms: C_1  and  O_2
REMARK    2  A    between atoms: O_2  and  C_3
REMARK    3  A    between atoms: C_3  and  C_5
REMARK    4  A    between atoms: C_5  and  C_6
REMARK    5  A    between atoms: C_5  and  N_14
REMARK    6  A    between atoms: C_6  and  C_7
REMARK    7  A    between atoms: C_10  and  O_11
REMARK    8  A    between atoms: C_15  and  C_17
REMARK    9  A    between atoms: C_18  and  C_19
REMARK   10  A    between atoms: C_22  and  O_23
REMARK   11  A    between atoms: C_24  and  O_25
REMARK   12  A    between atoms: O_25  and  C_26
REMARK                            x       y       z     vdW  Elec       q    Type
REMARK                         _______ _______ _______ _____ _____    ______ ____
ROOT
ATOM      1  N   UNL     1       6.727   7.554  17.140  0.00  0.00    +0.000 N 
ATOM      2  C   UNL     1       7.782   7.741  17.993  0.00  0.00    +0.000 C 
ATOM      3  O   UNL     1       8.257   6.884  18.721  0.00  0.00    +0.000 OA
ATOM      4  H   UNL     1       6.501   8.276  16.463  0.00  0.00    +0.000 HD
ENDROOT
BRANCH   2   5
ATOM      5  C   UNL     1       8.250   9.150  17.972  0.00  0.00    +0.000 C 
ATOM      6  C   UNL     1       9.046   9.647  18.931  0.00  0.00    +0.000 C 
BRANCH   6   7
ATOM      7  C   UNL     1       9.415  11.070  19.004  0.00  0.00    +0.000 A 
ATOM      8  C   UNL     1       9.183  11.773  20.189  0.00  0.00    +0.000 A 
ATOM      9  C   UNL     1       9.530  13.124  20.296  0.00  0.00    +0.000 A 
ATOM     10  C   UNL     1      10.125  13.788  19.219  0.00  0.00    +0.000 A 
ATOM     11  C   UNL     1      10.372  13.107  18.025  0.00  0.00    +0.000 A 
ATOM     12  C   UNL     1      10.017  11.752  17.935  0.00  0.00    +0.000 A 
BRANCH  10  13
ATOM     13  O   UNL     1      10.455  15.106  19.374  0.00  0.00    +0.000 OA
ATOM     14  H   UNL     1       9.887  15.648  18.802  0.00  0.00    +0.000 HD
ENDBRANCH  10  13
BRANCH  11  15
ATOM     15  O   UNL     1      10.941  13.581  16.873  0.00  0.00    +0.000 OA
ATOM     16  C   UNL     1      12.331  13.374  16.676  0.00  0.00    +0.000 C 
ENDBRANCH  11  15
ENDBRANCH   6   7
ENDBRANCH   2   5
BRANCH   1  17
ATOM     17  C   UNL     1       5.956   6.316  17.012  0.00  0.00    +0.000 C 
BRANCH  17  18
ATOM     18  C   UNL     1       5.509   6.207  15.549  0.00  0.00    +0.000 C 
ATOM     19  O   UNL     1       4.860   7.064  14.966  0.00  0.00    +0.000 OA
BRANCH  18  21
ATOM     20  C   UNL     1       7.081   4.471  15.673  0.00  0.00    +0.000 C 
ATOM     21  O   UNL     1       5.988   5.067  14.975  0.00  0.00    +0.000 OA
ENDBRANCH  18  21
ENDBRANCH  17  18
BRANCH  17  22
ATOM     22  C   UNL     1       4.769   6.175  17.981  0.00  0.00    +0.000 C 
BRANCH  22  23
ATOM     23  C   UNL     1       4.005   4.866  18.009  0.00  0.00    +0.000 A 
ATOM     24  C   UNL     1       4.621   3.679  18.439  0.00  0.00    +0.000 A 
ATOM     25  C   UNL     1       3.868   2.519  18.653  0.00  0.00    +0.000 A 
ATOM     26  C   UNL     1       2.502   2.532  18.400  0.00  0.00    +0.000 A 
ATOM     27  C   UNL     1       1.885   3.678  17.913  0.00  0.00    +0.000 A 
ATOM     28  C   UNL     1       2.632   4.843  17.726  0.00  0.00    +0.000 A 
BRANCH  26  29
ATOM     29  O   UNL     1       1.723   1.436  18.631  0.00  0.00    +0.000 OA
ATOM     30  H   UNL     1       0.933   1.493  18.070  0.00  0.00    +0.000 HD
ENDBRANCH  26  29
ENDBRANCH  22  23
ENDBRANCH  17  22
ENDBRANCH   1  17
TORSDOF 10
ENDMDL
MODEL 7
REMARK VINA RESULT:      -8.1      1.606      2.482
REMARK  Name = 
REMARK  12 active torsions:
REMARK  status: ('A' for Active; 'I' for Inactive)
REMARK    1  A    between atoms: C_1  and  O_2
REMARK    2  A    between atoms: O_2  and  C_3
REMARK    3  A    between atoms: C_3  and  C_5
REMARK    4  A    between atoms: C_5  and  C_6
REMARK    5  A    between atoms: C_5  and  N_14
REMARK    6  A    between atoms: C_6  and  C_7
REMARK    7  A    between atoms: C_10  and  O_11
REMARK    8  A    between atoms: C_15  and  C_17
REMARK    9  A    between atoms: C_18  and  C_19
REMARK   10  A    between atoms: C_22  and  O_23
REMARK   11  A    between atoms: C_24  and  O_25
REMARK   12  A    between atoms: O_25  and  C_26
REMARK                            x       y       z     vdW  Elec       q    Type
REMARK                         _______ _______ _______ _____ _____    ______ ____
ROOT
ATOM      1  N   UNL     1       6.079   7.524  17.392  0.00  0.00    +0.000 N 
ATOM      2  C   UNL     1       7.386   7.351  17.764  0.00  0.00    +0.000 C 
ATOM      3  O   UNL     1       7.894   6.283  18.066  0.00  0.00    +0.000 OA
ATOM      4  H   UNL     1       5.784   8.418  17.011  0.00  0.00    +0.000 HD
ENDROOT
BRANCH   2   5
ATOM      5  C   UNL     1       8.108   8.647  17.817  0.00  0.00    +0.000 C 
ATOM      6  C   UNL     1       8.725   9.071  18.931  0.00  0.00    +0.000 C 
BRANCH   6   7
ATOM      7  C   UNL     1       9.334  10.406  19.047  0.00  0.00    +0.000 A 
ATOM      8  C   UNL     1       9.799  11.044  17.895  0.00  0.00    +0.000 A 
ATOM      9  C   UNL     1      10.374  12.316  17.968  0.00  0.00    +0.000 A 
ATOM     10  C   UNL     1      10.484  12.974  19.197  0.00  0.00    +0.000 A 
ATOM     11  C   UNL     1      10.023  12.359  20.364  0.00  0.00    +0.000 A 
ATOM     12  C   UNL     1       9.449  11.081  20.272  0.00  0.00    +0.000 A 
BRANCH  10  13
ATOM     13  O   UNL     1      11.045  14.220  19.217  0.00  0.00    +0.000 OA
ATOM     14  H   UNL     1      11.964  14.163  18.908  0.00  0.00    +0.000 HD
ENDBRANCH  10  13
BRANCH  11  15
ATOM     15  O   UNL     1      10.043  12.838  21.646  0.00  0.00    +0.000 OA
ATOM     16  C   UNL     1       8.949  13.631  22.084  0.00  0.00    +0.000 C 
ENDBRANCH  11  15
ENDBRANCH   6   7
ENDBRANCH   2   5
BRANCH   1  17
ATOM     17  C   UNL     1       5.065   6.468  17.361  0.00  0.00    +0.000 C 
BRANCH  17  18
ATOM     18  C   UNL     1       5.168   5.778  15.996  0.00  0.00    +0.000 C 
ATOM     19  O   UNL     1       5.347   6.372  14.941  0.00  0.00    +0.000 OA
BRANCH  18  21
ATOM     20  C   UNL     1       6.096   3.713  15.386  0.00  0.00    +0.000 C 
ATOM     21  O   UNL     1       5.103   4.423  16.125  0.00  0.00    +0.000 OA
ENDBRANCH  18  21
ENDBRANCH  17  18
BRANCH  17  22
ATOM     22  C   UNL     1       3.627   6.925  17.660  0.00  0.00    +0.000 C 
BRANCH  22  23
ATOM     23  C   UNL     1       2.718   6.000  18.444  0.00  0.00    +0.000 A 
ATOM     24  C   UNL     1       2.109   4.894  17.828  0.00  0.00    +0.000 A 
ATOM     25  C   UNL     1       1.435   3.932  18.590  0.00  0.00    +0.000 A 
ATOM     26  C   UNL     1       1.333   4.096  19.967  0.00  0.00    +0.000 A 
ATOM     27  C   UNL     1       1.872   5.216  20.586  0.00  0.00    +0.000 A 
ATOM     28  C   UNL     1       2.569   6.161  19.829  0.00  0.00    +0.000 A 
BRANCH  26  29
ATOM     29  O   UNL     1       0.718   3.165  20.751  0.00  0.00    +0.000 OA
ATOM     30  H   UNL     1      -0.007   2.764  20.246  0.00  0.00    +0.000 HD
ENDBRANCH  26  29
ENDBRANCH  22  23
ENDBRANCH  17  22
ENDBRANCH   1  17
TORSDOF 10
ENDMDL
MODEL 8
REMARK VINA RESULT:      -8.0      1.468      2.345
REMARK  Name = 
REMARK  12 active torsions:
REMARK  status: ('A' for Active; 'I' for Inactive)
REMARK    1  A    between atoms: C_1  and  O_2
REMARK    2  A    between atoms: O_2  and  C_3
REMARK    3  A    between atoms: C_3  and  C_5
REMARK    4  A    between atoms: C_5  and  C_6
REMARK    5  A    between atoms: C_5  and  N_14
REMARK    6  A    between atoms: C_6  and  C_7
REMARK    7  A    between atoms: C_10  and  O_11
REMARK    8  A    between atoms: C_15  and  C_17
REMARK    9  A    between atoms: C_18  and  C_19
REMARK   10  A    between atoms: C_22  and  O_23
REMARK   11  A    between atoms: C_24  and  O_25
REMARK   12  A    between atoms: O_25  and  C_26
REMARK                            x       y       z     vdW  Elec       q    Type
REMARK                         _______ _______ _______ _____ _____    ______ ____
ROOT
ATOM      1  N   UNL     1       6.571   7.597  17.269  0.00  0.00    +0.000 N 
ATOM      2  C   UNL     1       7.708   7.633  18.033  0.00  0.00    +0.000 C 
ATOM      3  O   UNL     1       8.111   6.717  18.733  0.00  0.00    +0.000 OA
ATOM      4  H   UNL     1       6.398   8.343  16.602  0.00  0.00    +0.000 HD
ENDROOT
BRANCH   2   5
ATOM      5  C   UNL     1       8.370   8.959  17.957  0.00  0.00    +0.000 C 
ATOM      6  C   UNL     1       9.039   9.479  18.997  0.00  0.00    +0.000 C 
BRANCH   6   7
ATOM      7  C   UNL     1       9.590  10.844  18.989  0.00  0.00    +0.000 A 
ATOM      8  C   UNL     1      10.007  11.402  17.778  0.00  0.00    +0.000 A 
ATOM      9  C   UNL     1      10.526  12.700  17.733  0.00  0.00    +0.000 A 
ATOM     10  C   UNL     1      10.627  13.462  18.901  0.00  0.00    +0.000 A 
ATOM     11  C   UNL     1      10.213  12.929  20.124  0.00  0.00    +0.000 A 
ATOM     12  C   UNL     1       9.695  11.625  20.151  0.00  0.00    +0.000 A 
BRANCH  10  13
ATOM     13  O   UNL     1      11.133  14.729  18.806  0.00  0.00    +0.000 OA
ATOM     14  H   UNL     1      11.223  15.106  19.696  0.00  0.00    +0.000 HD
ENDBRANCH  10  13
BRANCH  11  15
ATOM     15  O   UNL     1      10.233  13.515  21.362  0.00  0.00    +0.000 OA
ATOM     16  C   UNL     1       9.102  13.344  22.203  0.00  0.00    +0.000 C 
ENDBRANCH  11  15
ENDBRANCH   6   7
ENDBRANCH   2   5
BRANCH   1  17
ATOM     17  C   UNL     1       5.624   6.483  17.219  0.00  0.00    +0.000 C 
BRANCH  17  18
ATOM     18  C   UNL     1       5.765   5.825  15.841  0.00  0.00    +0.000 C 
ATOM     19  O   UNL     1       5.372   6.331  14.799  0.00  0.00    +0.000 OA
BRANCH  18  21
ATOM     20  C   UNL     1       6.201   3.748  14.844  0.00  0.00    +0.000 C 
ATOM     21  O   UNL     1       6.442   4.645  15.928  0.00  0.00    +0.000 OA
ENDBRANCH  18  21
ENDBRANCH  17  18
BRANCH  17  22
ATOM     22  C   UNL     1       4.161   6.846  17.529  0.00  0.00    +0.000 C 
BRANCH  22  23
ATOM     23  C   UNL     1       3.312   5.855  18.300  0.00  0.00    +0.000 A 
ATOM     24  C   UNL     1       2.937   6.107  19.630  0.00  0.00    +0.000 A 
ATOM     25  C   UNL     1       1.996   5.296  20.274  0.00  0.00    +0.000 A 
ATOM     26  C   UNL     1       1.458   4.204  19.602  0.00  0.00    +0.000 A 
ATOM     27  C   UNL     1       1.864   3.900  18.309  0.00  0.00    +0.000 A 
ATOM     28  C   UNL     1       2.782   4.727  17.657  0.00  0.00    +0.000 A 
BRANCH  26  29
ATOM     29  O   UNL     1       0.510   3.410  20.178  0.00  0.00    +0.000 OA
ATOM     30  H   UNL     1      -0.055   3.961  20.742  0.00  0.00    +0.000 HD
ENDBRANCH  26  29
ENDBRANCH  22  23
ENDBRANCH  17  22
ENDBRANCH   1  17
TORSDOF 10
ENDMDL
MODEL 9
REMARK VINA RESULT:      -7.9      1.721      2.501
REMARK  Name = 
REMARK  12 active torsions:
REMARK  status: ('A' for Active; 'I' for Inactive)
REMARK    1  A    between atoms: C_1  and  O_2
REMARK    2  A    between atoms: O_2  and  C_3
REMARK    3  A    between atoms: C_3  and  C_5
REMARK    4  A    between atoms: C_5  and  C_6
REMARK    5  A    between atoms: C_5  and  N_14
REMARK    6  A    between atoms: C_6  and  C_7
REMARK    7  A    between atoms: C_10  and  O_11
REMARK    8  A    between atoms: C_15  and  C_17
REMARK    9  A    between atoms: C_18  and  C_19
REMARK   10  A    between atoms: C_22  and  O_23
REMARK   11  A    between atoms: C_24  and  O_25
REMARK   12  A    between atoms: O_25  and  C_26
REMARK                            x       y       z     vdW  Elec       q    Type
REMARK                         _______ _______ _______ _____ _____    ______ ____
ROOT
ATOM      1  N   UNL     1       7.130   6.858  16.719  0.00  0.00    +0.000 N 
ATOM      2  C   UNL     1       7.735   7.247  17.885  0.00  0.00    +0.000 C 
ATOM      3  O   UNL     1       7.860   6.546  18.877  0.00  0.00    +0.000 OA
ATOM      4  H   UNL     1       7.209   7.450  15.897  0.00  0.00    +0.000 HD
ENDROOT
BRANCH   2   5
ATOM      5  C   UNL     1       8.173   8.664  17.821  0.00  0.00    +0.000 C 
ATOM      6  C   UNL     1       8.927   9.217  18.783  0.00  0.00    +0.000 C 
BRANCH   6   7
ATOM      7  C   UNL     1       9.264  10.650  18.808  0.00  0.00    +0.000 A 
ATOM      8  C   UNL     1       9.994  11.195  17.749  0.00  0.00    +0.000 A 
ATOM      9  C   UNL     1      10.322  12.555  17.735  0.00  0.00    +0.000 A 
ATOM     10  C   UNL     1       9.916  13.391  18.780  0.00  0.00    +0.000 A 
ATOM     11  C   UNL     1       9.182  12.871  19.848  0.00  0.00    +0.000 A 
ATOM     12  C   UNL     1       8.861  11.504  19.846  0.00  0.00    +0.000 A 
BRANCH  10  13
ATOM     13  O   UNL     1      10.253  14.714  18.719  0.00  0.00    +0.000 OA
ATOM     14  H   UNL     1       9.457  15.240  18.541  0.00  0.00    +0.000 HD
ENDBRANCH  10  13
BRANCH  11  15
ATOM     15  O   UNL     1       8.699  13.524  20.951  0.00  0.00    +0.000 OA
ATOM     16  C   UNL     1       9.587  13.759  22.034  0.00  0.00    +0.000 C 
ENDBRANCH  11  15
ENDBRANCH   6   7
ENDBRANCH   2   5
BRANCH   1  17
ATOM     17  C   UNL     1       6.479   5.566  16.497  0.00  0.00    +0.000 C 
BRANCH  17  18
ATOM     18  C   UNL     1       6.981   5.028  15.151  0.00  0.00    +0.000 C 
ATOM     19  O   UNL     1       7.889   5.536  14.507  0.00  0.00    +0.000 OA
BRANCH  18  21
ATOM     20  C   UNL     1       6.106   3.728  13.407  0.00  0.00    +0.000 C 
ATOM     21  O   UNL     1       6.330   3.881  14.808  0.00  0.00    +0.000 OA
ENDBRANCH  18  21
ENDBRANCH  17  18
BRANCH  17  22
ATOM     22  C   UNL     1       4.942   5.581  16.565  0.00  0.00    +0.000 C 
BRANCH  22  23
ATOM     23  C   UNL     1       4.246   4.614  17.503  0.00  0.00    +0.000 A 
ATOM     24  C   UNL     1       4.948   3.992  18.549  0.00  0.00    +0.000 A 
ATOM     25  C   UNL     1       4.268   3.260  19.529  0.00  0.00    +0.000 A 
ATOM     26  C   UNL     1       2.889   3.114  19.443  0.00  0.00    +0.000 A 
ATOM     27  C   UNL     1       2.185   3.667  18.381  0.00  0.00    +0.000 A 
ATOM     28  C   UNL     1       2.860   4.421  17.418  0.00  0.00    +0.000 A 
BRANCH  26  29
ATOM     29  O   UNL     1       2.183   2.441  20.396  0.00  0.00    +0.000 OA
ATOM     30  H   UNL     1       2.570   2.636  21.265  0.00  0.00    +0.000 HD
ENDBRANCH  26  29
ENDBRANCH  22  23
ENDBRANCH  17  22
ENDBRANCH   1  17
TORSDOF 10
ENDMDL
