MODEL 1
REMARK VINA RESULT:      -7.8      0.000      0.000
REMARK  Name = 
REMARK  6 active torsions:
REMARK  status: ('A' for Active; 'I' for Inactive)
REMARK    1  A    between atoms: O_1  and  C_2
REMARK    2  A    between atoms: C_2  and  C_3
REMARK    3  A    between atoms: C_7  and  C_8
REMARK    4  A    between atoms: N_20  and  C_21
REMARK    5  A    between atoms: N_24  and  C_25
REMARK    6  A    between atoms: C_25  and  C_26
REMARK                            x       y       z     vdW  Elec       q    Type
REMARK                         _______ _______ _______ _____ _____    ______ ____
ROOT
ATOM      1  C   UNL     1      -0.265  13.908  22.318  0.00  0.00    +0.000 A 
ATOM      2  N   UNL     1       0.748  14.803  22.177  0.00  0.00    +0.000 NA
ATOM      3  C   UNL     1       1.666  14.642  21.194  0.00  0.00    +0.000 A 
ATOM      4  N   UNL     1       2.689  15.548  21.033  0.00  0.00    +0.000 N 
ATOM      5  C   UNL     1       3.238  16.271  22.178  0.00  0.00    +0.000 C 
ATOM      6  C   UNL     1       3.097  17.785  21.987  0.00  0.00    +0.000 C 
ATOM      7  O   UNL     1       3.624  18.215  20.721  0.00  0.00    +0.000 OA
ATOM      8  C   UNL     1       2.907  17.578  19.651  0.00  0.00    +0.000 C 
ATOM      9  C   UNL     1       3.057  16.051  19.707  0.00  0.00    +0.000 C 
ATOM     10  C   UNL     1       1.547  13.501  20.397  0.00  0.00    +0.000 A 
ATOM     11  C   UNL     1       2.279  12.904  19.359  0.00  0.00    +0.000 A 
ATOM     12  N   UNL     1       1.725  11.784  18.921  0.00  0.00    +0.000 NA
ATOM     13  N   UNL     1       0.643  11.612  19.720  0.00  0.00    +0.000 N 
ATOM     14  C   UNL     1       0.492  12.635  20.633  0.00  0.00    +0.000 A 
ATOM     15  N   UNL     1      -0.458  12.789  21.574  0.00  0.00    +0.000 NA
ENDROOT
BRANCH   1  20
ATOM     16  C   UNL     1      -3.438  13.768  24.476  0.00  0.00    +0.000 A 
ATOM     17  C   UNL     1      -3.135  14.725  25.449  0.00  0.00    +0.000 A 
ATOM     18  C   UNL     1      -1.927  15.415  25.407  0.00  0.00    +0.000 A 
ATOM     19  C   UNL     1      -1.004  15.154  24.388  0.00  0.00    +0.000 A 
ATOM     20  C   UNL     1      -1.255  14.190  23.392  0.00  0.00    +0.000 A 
ATOM     21  C   UNL     1      -2.492  13.507  23.465  0.00  0.00    +0.000 A 
BRANCH  16  22
ATOM     22  C   UNL     1      -4.773  13.074  24.490  0.00  0.00    +0.000 C 
BRANCH  22  23
ATOM     23  O   UNL     1      -4.604  11.698  24.799  0.00  0.00    +0.000 OA
ATOM     24  H   UNL     1      -4.951  11.196  24.043  0.00  0.00    +0.000 HD
ENDBRANCH  22  23
ENDBRANCH  16  22
ENDBRANCH   1  20
BRANCH  13  25
ATOM     25  C   UNL     1      -0.191  10.424  19.545  0.00  0.00    +0.000 C 
ATOM     26  C   UNL     1       0.203   9.271  20.473  0.00  0.00    +0.000 C 
ATOM     27  C   UNL     1       1.522   8.606  20.070  0.00  0.00    +0.000 C 
ATOM     28  N   UNL     1       1.587   8.192  18.657  0.00  0.00    +0.000 NA
ATOM     29  C   UNL     1       1.123   9.230  17.716  0.00  0.00    +0.000 C 
ATOM     30  C   UNL     1      -0.194   9.907  18.104  0.00  0.00    +0.000 C 
BRANCH  28  31
ATOM     31  C   UNL     1       2.993   7.857  18.301  0.00  0.00    +0.000 C 
BRANCH  31  32
ATOM     32  C   UNL     1       3.215   6.421  17.874  0.00  0.00    +0.000 A 
ATOM     33  C   UNL     1       4.415   6.039  17.263  0.00  0.00    +0.000 A 
ATOM     34  C   UNL     1       4.627   4.713  16.884  0.00  0.00    +0.000 A 
ATOM     35  C   UNL     1       3.642   3.754  17.115  0.00  0.00    +0.000 A 
ATOM     36  C   UNL     1       2.443   4.121  17.723  0.00  0.00    +0.000 A 
ATOM     37  C   UNL     1       2.229   5.447  18.101  0.00  0.00    +0.000 A 
ENDBRANCH  31  32
ENDBRANCH  28  31
ENDBRANCH  13  25
TORSDOF 6
ENDMDL
MODEL 2
REMARK VINA RESULT:      -7.5      3.212      7.656
REMARK  Name = 
REMARK  6 active torsions:
REMARK  status: ('A' for Active; 'I' for Inactive)
REMARK    1  A    between atoms: O_1  and  C_2
REMARK    2  A    between atoms: C_2  and  C_3
REMARK    3  A    between atoms: C_7  and  C_8
REMARK    4  A    between atoms: N_20  and  C_21
REMARK    5  A    between atoms: N_24  and  C_25
REMARK    6  A    between atoms: C_25  and  C_26
REMARK                            x       y       z     vdW  Elec       q    Type
REMARK                         _______ _______ _______ _____ _____    ______ ____
ROOT
ATOM      1  C   UNL     1       0.085  12.690  21.277  0.00  0.00    +0.000 A 
ATOM      2  N   UNL     1       0.738  13.624  20.535  0.00  0.00    +0.000 NA
ATOM      3  C   UNL     1       0.489  14.941  20.728  0.00  0.00    +0.000 A 
ATOM      4  N   UNL     1       1.152  15.897  19.993  0.00  0.00    +0.000 N 
ATOM      5  C   UNL     1       1.594  15.620  18.628  0.00  0.00    +0.000 C 
ATOM      6  C   UNL     1       3.113  15.785  18.501  0.00  0.00    +0.000 C 
ATOM      7  O   UNL     1       3.556  17.054  19.010  0.00  0.00    +0.000 OA
ATOM      8  C   UNL     1       3.227  17.164  20.404  0.00  0.00    +0.000 C 
ATOM      9  C   UNL     1       1.710  17.094  20.629  0.00  0.00    +0.000 C 
ATOM     10  C   UNL     1      -0.495  15.269  21.664  0.00  0.00    +0.000 A 
ATOM     11  C   UNL     1      -1.117  16.443  22.118  0.00  0.00    +0.000 A 
ATOM     12  N   UNL     1      -2.025  16.211  23.054  0.00  0.00    +0.000 NA
ATOM     13  N   UNL     1      -2.039  14.862  23.178  0.00  0.00    +0.000 N 
ATOM     14  C   UNL     1      -1.122  14.245  22.354  0.00  0.00    +0.000 A 
ATOM     15  N   UNL     1      -0.866  12.931  22.214  0.00  0.00    +0.000 NA
ENDROOT
BRANCH   1  20
ATOM     16  C   UNL     1       1.292   9.489  19.532  0.00  0.00    +0.000 A 
ATOM     17  C   UNL     1       1.174   8.563  20.574  0.00  0.00    +0.000 A 
ATOM     18  C   UNL     1       0.704   8.963  21.821  0.00  0.00    +0.000 A 
ATOM     19  C   UNL     1       0.345  10.297  22.043  0.00  0.00    +0.000 A 
ATOM     20  C   UNL     1       0.457  11.270  21.032  0.00  0.00    +0.000 A 
ATOM     21  C   UNL     1       0.940  10.831  19.776  0.00  0.00    +0.000 A 
BRANCH  16  22
ATOM     22  C   UNL     1       1.739   9.038  18.168  0.00  0.00    +0.000 C 
BRANCH  22  23
ATOM     23  O   UNL     1       1.922  10.162  17.319  0.00  0.00    +0.000 OA
ATOM     24  H   UNL     1       2.829  10.106  16.972  0.00  0.00    +0.000 HD
ENDBRANCH  22  23
ENDBRANCH  16  22
ENDBRANCH   1  20
BRANCH  13  25
ATOM     25  C   UNL     1      -2.978  14.242  24.111  0.00  0.00    +0.000 C 
ATOM     26  C   UNL     1      -3.385  12.823  23.701  0.00  0.00    +0.000 C 
ATOM     27  C   UNL     1      -4.318  12.799  22.488  0.00  0.00    +0.000 C 
ATOM     28  N   UNL     1      -5.500  13.672  22.611  0.00  0.00    +0.000 NA
ATOM     29  C   UNL     1      -5.183  15.027  23.101  0.00  0.00    +0.000 C 
ATOM     30  C   UNL     1      -4.250  15.071  24.314  0.00  0.00    +0.000 C 
BRANCH  28  31
ATOM     31  C   UNL     1      -6.155  13.813  21.282  0.00  0.00    +0.000 C 
BRANCH  31  32
ATOM     32  C   UNL     1      -6.394  12.509  20.550  0.00  0.00    +0.000 A 
ATOM     33  C   UNL     1      -7.283  11.558  21.066  0.00  0.00    +0.000 A 
ATOM     34  C   UNL     1      -7.517  10.364  20.383  0.00  0.00    +0.000 A 
ATOM     35  C   UNL     1      -6.866  10.109  19.177  0.00  0.00    +0.000 A 
ATOM     36  C   UNL     1      -5.979  11.046  18.653  0.00  0.00    +0.000 A 
ATOM     37  C   UNL     1      -5.743  12.241  19.335  0.00  0.00    +0.000 A 
ENDBRANCH  31  32
ENDBRANCH  28  31
ENDBRANCH  13  25
TORSDOF 6
ENDMDL
MODEL 3
REMARK VINA RESULT:      -7.4      1.084      1.526
REMARK  Name = 
REMARK  6 active torsions:
REMARK  status: ('A' for Active; 'I' for Inactive)
REMARK    1  A    between atoms: O_1  and  C_2
REMARK    2  A    between atoms: C_2  and  C_3
REMARK    3  A    between atoms: C_7  and  C_8
REMARK    4  A    between atoms: N_20  and  C_21
REMARK    5  A    between atoms: N_24  and  C_25
REMARK    6  A    between atoms: C_25  and  C_26
REMARK                            x       y       z     vdW  Elec       q    Type
REMARK                         _______ _______ _______ _____ _____    ______ ____
ROOT
ATOM      1  C   UNL     1      -0.119  13.985  22.285  0.00  0.00    +0.000 A 
ATOM      2  N   UNL     1       0.999  14.750  22.399  0.00  0.00    +0.000 NA
ATOM      3  C   UNL     1       1.992  14.645  21.484  0.00  0.00    +0.000 A 
ATOM      4  N   UNL     1       3.122  15.423  21.580  0.00  0.00    +0.000 N 
ATOM      5  C   UNL     1       3.625  15.856  22.882  0.00  0.00    +0.000 C 
ATOM      6  C   UNL     1       3.679  17.385  22.967  0.00  0.00    +0.000 C 
ATOM      7  O   UNL     1       4.382  17.957  21.851  0.00  0.00    +0.000 OA
ATOM      8  C   UNL     1       3.715  17.617  20.626  0.00  0.00    +0.000 C 
ATOM      9  C   UNL     1       3.683  16.098  20.407  0.00  0.00    +0.000 C 
ATOM     10  C   UNL     1       1.828  13.686  20.480  0.00  0.00    +0.000 A 
ATOM     11  C   UNL     1       2.593  13.191  19.413  0.00  0.00    +0.000 A 
ATOM     12  N   UNL     1       1.965  12.246  18.729  0.00  0.00    +0.000 NA
ATOM     13  N   UNL     1       0.793  12.080  19.389  0.00  0.00    +0.000 N 
ATOM     14  C   UNL     1       0.663  12.938  20.460  0.00  0.00    +0.000 A 
ATOM     15  N   UNL     1      -0.357  13.049  21.331  0.00  0.00    +0.000 NA
ENDROOT
BRANCH   1  20
ATOM     16  C   UNL     1      -3.411  13.686  24.238  0.00  0.00    +0.000 A 
ATOM     17  C   UNL     1      -3.192  14.612  25.264  0.00  0.00    +0.000 A 
ATOM     18  C   UNL     1      -2.001  15.330  25.321  0.00  0.00    +0.000 A 
ATOM     19  C   UNL     1      -1.012  15.131  24.351  0.00  0.00    +0.000 A 
ATOM     20  C   UNL     1      -1.178  14.201  23.307  0.00  0.00    +0.000 A 
ATOM     21  C   UNL     1      -2.400  13.487  23.278  0.00  0.00    +0.000 A 
BRANCH  16  22
ATOM     22  C   UNL     1      -4.726  12.962  24.144  0.00  0.00    +0.000 C 
BRANCH  22  23
ATOM     23  O   UNL     1      -4.708  11.809  24.973  0.00  0.00    +0.000 OA
ATOM     24  H   UNL     1      -3.933  11.893  25.554  0.00  0.00    +0.000 HD
ENDBRANCH  22  23
ENDBRANCH  16  22
ENDBRANCH   1  20
BRANCH  13  25
ATOM     25  C   UNL     1      -0.148  11.062  18.926  0.00  0.00    +0.000 C 
ATOM     26  C   UNL     1      -0.750  10.236  20.067  0.00  0.00    +0.000 C 
ATOM     27  C   UNL     1       0.252   9.263  20.692  0.00  0.00    +0.000 C 
ATOM     28  N   UNL     1       0.943   8.395  19.721  0.00  0.00    +0.000 NA
ATOM     29  C   UNL     1       1.460   9.120  18.545  0.00  0.00    +0.000 C 
ATOM     30  C   UNL     1       0.471  10.100  17.907  0.00  0.00    +0.000 C 
BRANCH  28  31
ATOM     31  C   UNL     1       2.097   7.728  20.383  0.00  0.00    +0.000 C 
BRANCH  31  32
ATOM     32  C   UNL     1       2.238   6.251  20.077  0.00  0.00    +0.000 A 
ATOM     33  C   UNL     1       1.347   5.323  20.630  0.00  0.00    +0.000 A 
ATOM     34  C   UNL     1       1.466   3.965  20.334  0.00  0.00    +0.000 A 
ATOM     35  C   UNL     1       2.476   3.520  19.482  0.00  0.00    +0.000 A 
ATOM     36  C   UNL     1       3.369   4.433  18.926  0.00  0.00    +0.000 A 
ATOM     37  C   UNL     1       3.252   5.792  19.221  0.00  0.00    +0.000 A 
ENDBRANCH  31  32
ENDBRANCH  28  31
ENDBRANCH  13  25
TORSDOF 6
ENDMDL
MODEL 4
REMARK VINA RESULT:      -7.3      5.801      8.390
REMARK  Name = 
REMARK  6 active torsions:
REMARK  status: ('A' for Active; 'I' for Inactive)
REMARK    1  A    between atoms: O_1  and  C_2
REMARK    2  A    between atoms: C_2  and  C_3
REMARK    3  A    between atoms: C_7  and  C_8
REMARK    4  A    between atoms: N_20  and  C_21
REMARK    5  A    between atoms: N_24  and  C_25
REMARK    6  A    between atoms: C_25  and  C_26
REMARK                            x       y       z     vdW  Elec       q    Type
REMARK                         _______ _______ _______ _____ _____    ______ ____
ROOT
ATOM      1  C   UNL     1       4.898  14.361  21.762  0.00  0.00    +0.000 A 
ATOM      2  N   UNL     1       5.204  13.542  22.803  0.00  0.00    +0.000 NA
ATOM      3  C   UNL     1       6.469  13.494  23.282  0.00  0.00    +0.000 A 
ATOM      4  N   UNL     1       6.789  12.679  24.343  0.00  0.00    +0.000 N 
ATOM      5  C   UNL     1       6.074  11.424  24.567  0.00  0.00    +0.000 C 
ATOM      6  C   UNL     1       5.405  11.413  25.946  0.00  0.00    +0.000 C 
ATOM      7  O   UNL     1       6.332  11.749  26.991  0.00  0.00    +0.000 OA
ATOM      8  C   UNL     1       6.855  13.069  26.777  0.00  0.00    +0.000 C 
ATOM      9  C   UNL     1       7.621  13.160  25.449  0.00  0.00    +0.000 C 
ATOM     10  C   UNL     1       7.427  14.269  22.621  0.00  0.00    +0.000 A 
ATOM     11  C   UNL     1       8.813  14.465  22.709  0.00  0.00    +0.000 A 
ATOM     12  N   UNL     1       9.264  15.338  21.821  0.00  0.00    +0.000 NA
ATOM     13  N   UNL     1       8.166  15.678  21.102  0.00  0.00    +0.000 N 
ATOM     14  C   UNL     1       7.023  15.054  21.555  0.00  0.00    +0.000 A 
ATOM     15  N   UNL     1       5.766  15.154  21.083  0.00  0.00    +0.000 NA
ENDROOT
BRANCH   1  20
ATOM     16  C   UNL     1       1.686  13.725  19.757  0.00  0.00    +0.000 A 
ATOM     17  C   UNL     1       0.754  14.431  20.526  0.00  0.00    +0.000 A 
ATOM     18  C   UNL     1       1.156  15.110  21.672  0.00  0.00    +0.000 A 
ATOM     19  C   UNL     1       2.499  15.093  22.064  0.00  0.00    +0.000 A 
ATOM     20  C   UNL     1       3.474  14.387  21.334  0.00  0.00    +0.000 A 
ATOM     21  C   UNL     1       3.032  13.706  20.174  0.00  0.00    +0.000 A 
BRANCH  16  22
ATOM     22  C   UNL     1       1.256  13.047  18.484  0.00  0.00    +0.000 C 
BRANCH  22  23
ATOM     23  O   UNL     1       2.346  12.983  17.576  0.00  0.00    +0.000 OA
ATOM     24  H   UNL     1       3.128  12.729  18.094  0.00  0.00    +0.000 HD
ENDBRANCH  22  23
ENDBRANCH  16  22
ENDBRANCH   1  20
BRANCH  13  25
ATOM     25  C   UNL     1       8.307  16.608  19.983  0.00  0.00    +0.000 C 
ATOM     26  C   UNL     1       7.715  16.070  18.676  0.00  0.00    +0.000 C 
ATOM     27  C   UNL     1       8.553  14.945  18.062  0.00  0.00    +0.000 C 
ATOM     28  N   UNL     1       9.982  15.269  17.900  0.00  0.00    +0.000 NA
ATOM     29  C   UNL     1      10.586  15.886  19.096  0.00  0.00    +0.000 C 
ATOM     30  C   UNL     1       9.761  17.012  19.726  0.00  0.00    +0.000 C 
BRANCH  28  31
ATOM     31  C   UNL     1      10.743  14.025  17.600  0.00  0.00    +0.000 C 
BRANCH  31  32
ATOM     32  C   UNL     1      10.346  12.822  18.428  0.00  0.00    +0.000 A 
ATOM     33  C   UNL     1      10.680  12.753  19.787  0.00  0.00    +0.000 A 
ATOM     34  C   UNL     1      10.299  11.653  20.555  0.00  0.00    +0.000 A 
ATOM     35  C   UNL     1       9.578  10.610  19.974  0.00  0.00    +0.000 A 
ATOM     36  C   UNL     1       9.240  10.665  18.624  0.00  0.00    +0.000 A 
ATOM     37  C   UNL     1       9.621  11.765  17.854  0.00  0.00    +0.000 A 
ENDBRANCH  31  32
ENDBRANCH  28  31
ENDBRANCH  13  25
TORSDOF 6
ENDMDL
MODEL 5
REMARK VINA RESULT:      -7.3      3.143      7.453
REMARK  Name = 
REMARK  6 active torsions:
REMARK  status: ('A' for Active; 'I' for Inactive)
REMARK    1  A    between atoms: O_1  and  C_2
REMARK    2  A    between atoms: C_2  and  C_3
REMARK    3  A    between atoms: C_7  and  C_8
REMARK    4  A    between atoms: N_20  and  C_21
REMARK    5  A    between atoms: N_24  and  C_25
REMARK    6  A    between atoms: C_25  and  C_26
REMARK                            x       y       z     vdW  Elec       q    Type
REMARK                         _______ _______ _______ _____ _____    ______ ____
ROOT
ATOM      1  C   UNL     1       0.961  12.495  20.333  0.00  0.00    +0.000 A 
ATOM      2  N   UNL     1       1.601  13.537  19.739  0.00  0.00    +0.000 NA
ATOM      3  C   UNL     1       1.443  14.794  20.217  0.00  0.00    +0.000 A 
ATOM      4  N   UNL     1       2.094  15.856  19.633  0.00  0.00    +0.000 N 
ATOM      5  C   UNL     1       2.405  15.851  18.206  0.00  0.00    +0.000 C 
ATOM      6  C   UNL     1       3.914  15.982  17.973  0.00  0.00    +0.000 C 
ATOM      7  O   UNL     1       4.468  17.101  18.686  0.00  0.00    +0.000 OA
ATOM      8  C   UNL     1       4.263  16.932  20.098  0.00  0.00    +0.000 C 
ATOM      9  C   UNL     1       2.769  16.873  20.444  0.00  0.00    +0.000 C 
ATOM     10  C   UNL     1       0.559  14.957  21.288  0.00  0.00    +0.000 A 
ATOM     11  C   UNL     1       0.044  16.034  22.026  0.00  0.00    +0.000 A 
ATOM     12  N   UNL     1      -0.794  15.648  22.976  0.00  0.00    +0.000 NA
ATOM     13  N   UNL     1      -0.873  14.303  22.825  0.00  0.00    +0.000 N 
ATOM     14  C   UNL     1      -0.063  13.837  21.811  0.00  0.00    +0.000 A 
ATOM     15  N   UNL     1       0.106  12.571  21.384  0.00  0.00    +0.000 NA
ENDROOT
BRANCH   1  20
ATOM     16  C   UNL     1       1.405   8.691  20.048  0.00  0.00    +0.000 A 
ATOM     17  C   UNL     1       1.741   8.568  18.695  0.00  0.00    +0.000 A 
ATOM     18  C   UNL     1       1.831   9.697  17.886  0.00  0.00    +0.000 A 
ATOM     19  C   UNL     1       1.586  10.966  18.421  0.00  0.00    +0.000 A 
ATOM     20  C   UNL     1       1.232  11.144  19.772  0.00  0.00    +0.000 A 
ATOM     21  C   UNL     1       1.148   9.976  20.567  0.00  0.00    +0.000 A 
BRANCH  16  22
ATOM     22  C   UNL     1       1.373   7.474  20.932  0.00  0.00    +0.000 C 
BRANCH  22  23
ATOM     23  O   UNL     1       2.311   6.512  20.470  0.00  0.00    +0.000 OA
ATOM     24  H   UNL     1       2.242   5.747  21.065  0.00  0.00    +0.000 HD
ENDBRANCH  22  23
ENDBRANCH  16  22
ENDBRANCH   1  20
BRANCH  13  25
ATOM     25  C   UNL     1      -1.764  13.539  23.696  0.00  0.00    +0.000 C 
ATOM     26  C   UNL     1      -2.259  12.238  23.057  0.00  0.00    +0.000 C 
ATOM     27  C   UNL     1      -3.281  12.473  21.941  0.00  0.00    +0.000 C 
ATOM     28  N   UNL     1      -4.413  13.337  22.325  0.00  0.00    +0.000 NA
ATOM     29  C   UNL     1      -4.005  14.562  23.038  0.00  0.00    +0.000 C 
ATOM     30  C   UNL     1      -2.982  14.347  24.156  0.00  0.00    +0.000 C 
BRANCH  28  31
ATOM     31  C   UNL     1      -5.160  13.750  21.106  0.00  0.00    +0.000 C 
BRANCH  31  32
ATOM     32  C   UNL     1      -5.751  12.608  20.306  0.00  0.00    +0.000 A 
ATOM     33  C   UNL     1      -5.284  12.329  19.016  0.00  0.00    +0.000 A 
ATOM     34  C   UNL     1      -5.816  11.266  18.285  0.00  0.00    +0.000 A 
ATOM     35  C   UNL     1      -6.819  10.470  18.837  0.00  0.00    +0.000 A 
ATOM     36  C   UNL     1      -7.293  10.737  20.120  0.00  0.00    +0.000 A 
ATOM     37  C   UNL     1      -6.762  11.801  20.852  0.00  0.00    +0.000 A 
ENDBRANCH  31  32
ENDBRANCH  28  31
ENDBRANCH  13  25
TORSDOF 6
ENDMDL
MODEL 6
REMARK VINA RESULT:      -7.2      3.538      7.705
REMARK  Name = 
REMARK  6 active torsions:
REMARK  status: ('A' for Active; 'I' for Inactive)
REMARK    1  A    between atoms: O_1  and  C_2
REMARK    2  A    between atoms: C_2  and  C_3
REMARK    3  A    between atoms: C_7  and  C_8
REMARK    4  A    between atoms: N_20  and  C_21
REMARK    5  A    between atoms: N_24  and  C_25
REMARK    6  A    between atoms: C_25  and  C_26
REMARK                            x       y       z     vdW  Elec       q    Type
REMARK                         _______ _______ _______ _____ _____    ______ ____
ROOT
ATOM      1  C   UNL     1      -0.691  12.804  21.736  0.00  0.00    +0.000 A 
ATOM      2  N   UNL     1       0.022  13.612  20.908  0.00  0.00    +0.000 NA
ATOM      3  C   UNL     1      -0.247  14.939  20.853  0.00  0.00    +0.000 A 
ATOM      4  N   UNL     1       0.476  15.770  20.029  0.00  0.00    +0.000 N 
ATOM      5  C   UNL     1       1.040  15.276  18.775  0.00  0.00    +0.000 C 
ATOM      6  C   UNL     1       2.563  15.445  18.756  0.00  0.00    +0.000 C 
ATOM      7  O   UNL     1       2.955  16.790  19.082  0.00  0.00    +0.000 OA
ATOM      8  C   UNL     1       2.500  17.126  20.402  0.00  0.00    +0.000 C 
ATOM      9  C   UNL     1       0.970  17.066  20.501  0.00  0.00    +0.000 C 
ATOM     10  C   UNL     1      -1.314  15.401  21.630  0.00  0.00    +0.000 A 
ATOM     11  C   UNL     1      -1.978  16.622  21.822  0.00  0.00    +0.000 A 
ATOM     12  N   UNL     1      -2.965  16.534  22.700  0.00  0.00    +0.000 NA
ATOM     13  N   UNL     1      -2.986  15.224  23.049  0.00  0.00    +0.000 N 
ATOM     14  C   UNL     1      -1.996  14.495  22.425  0.00  0.00    +0.000 A 
ATOM     15  N   UNL     1      -1.725  13.181  22.532  0.00  0.00    +0.000 NA
ENDROOT
BRANCH   1  20
ATOM     16  C   UNL     1       0.792   9.412  20.719  0.00  0.00    +0.000 A 
ATOM     17  C   UNL     1       0.470   8.639  21.840  0.00  0.00    +0.000 A 
ATOM     18  C   UNL     1      -0.223   9.202  22.908  0.00  0.00    +0.000 A 
ATOM     19  C   UNL     1      -0.605  10.547  22.868  0.00  0.00    +0.000 A 
ATOM     20  C   UNL     1      -0.294  11.371  21.769  0.00  0.00    +0.000 A 
ATOM     21  C   UNL     1       0.413  10.769  20.701  0.00  0.00    +0.000 A 
BRANCH  16  22
ATOM     22  C   UNL     1       1.483   8.781  19.541  0.00  0.00    +0.000 C 
BRANCH  22  23
ATOM     23  O   UNL     1       2.146   7.592  19.944  0.00  0.00    +0.000 OA
ATOM     24  H   UNL     1       1.492   7.057  20.426  0.00  0.00    +0.000 HD
ENDBRANCH  22  23
ENDBRANCH  16  22
ENDBRANCH   1  20
BRANCH  13  25
ATOM     25  C   UNL     1      -4.004  14.752  23.986  0.00  0.00    +0.000 C 
ATOM     26  C   UNL     1      -4.330  13.265  23.821  0.00  0.00    +0.000 C 
ATOM     27  C   UNL     1      -5.129  12.968  22.549  0.00  0.00    +0.000 C 
ATOM     28  N   UNL     1      -6.337  13.796  22.382  0.00  0.00    +0.000 NA
ATOM     29  C   UNL     1      -6.108  15.232  22.629  0.00  0.00    +0.000 C 
ATOM     30  C   UNL     1      -5.309  15.548  23.897  0.00  0.00    +0.000 C 
BRANCH  28  31
ATOM     31  C   UNL     1      -6.851  13.652  20.992  0.00  0.00    +0.000 C 
BRANCH  31  32
ATOM     32  C   UNL     1      -6.971  12.224  20.504  0.00  0.00    +0.000 A 
ATOM     33  C   UNL     1      -6.286  11.806  19.357  0.00  0.00    +0.000 A 
ATOM     34  C   UNL     1      -6.383  10.485  18.916  0.00  0.00    +0.000 A 
ATOM     35  C   UNL     1      -7.163   9.568  19.619  0.00  0.00    +0.000 A 
ATOM     36  C   UNL     1      -7.850   9.972  20.763  0.00  0.00    +0.000 A 
ATOM     37  C   UNL     1      -7.755  11.292  21.204  0.00  0.00    +0.000 A 
ENDBRANCH  31  32
ENDBRANCH  28  31
ENDBRANCH  13  25
TORSDOF 6
ENDMDL
MODEL 7
REMARK VINA RESULT:      -7.2      5.351      8.037
REMARK  Name = 
REMARK  6 active torsions:
REMARK  status: ('A' for Active; 'I' for Inactive)
REMARK    1  A    between atoms: O_1  and  C_2
REMARK    2  A    between atoms: C_2  and  C_3
REMARK    3  A    between atoms: C_7  and  C_8
REMARK    4  A    between atoms: N_20  and  C_21
REMARK    5  A    between atoms: N_24  and  C_25
REMARK    6  A    between atoms: C_25  and  C_26
REMARK                            x       y       z     vdW  Elec       q    Type
REMARK                         _______ _______ _______ _____ _____    ______ ____
ROOT
ATOM      1  C   UNL     1       7.482  13.867  22.129  0.00  0.00    +0.000 A 
ATOM      2  N   UNL     1       8.504  13.471  21.325  0.00  0.00    +0.000 NA
ATOM      3  C   UNL     1       8.521  13.831  20.019  0.00  0.00    +0.000 A 
ATOM      4  N   UNL     1       9.555  13.448  19.198  0.00  0.00    +0.000 N 
ATOM      5  C   UNL     1      10.268  12.193  19.426  0.00  0.00    +0.000 C 
ATOM      6  C   UNL     1      11.762  12.446  19.657  0.00  0.00    +0.000 C 
ATOM      7  O   UNL     1      12.332  13.259  18.618  0.00  0.00    +0.000 OA
ATOM      8  C   UNL     1      11.679  14.538  18.583  0.00  0.00    +0.000 C 
ATOM      9  C   UNL     1      10.183  14.395  18.272  0.00  0.00    +0.000 C 
ATOM     10  C   UNL     1       7.425  14.561  19.550  0.00  0.00    +0.000 A 
ATOM     11  C   UNL     1       6.991  15.060  18.312  0.00  0.00    +0.000 A 
ATOM     12  N   UNL     1       5.839  15.709  18.398  0.00  0.00    +0.000 NA
ATOM     13  N   UNL     1       5.484  15.586  19.700  0.00  0.00    +0.000 N 
ATOM     14  C   UNL     1       6.421  14.898  20.442  0.00  0.00    +0.000 A 
ATOM     15  N   UNL     1       6.397  14.590  21.752  0.00  0.00    +0.000 NA
ENDROOT
BRANCH   1  20
ATOM     16  C   UNL     1       6.827  12.061  25.454  0.00  0.00    +0.000 A 
ATOM     17  C   UNL     1       7.750  12.702  26.286  0.00  0.00    +0.000 A 
ATOM     18  C   UNL     1       8.568  13.711  25.785  0.00  0.00    +0.000 A 
ATOM     19  C   UNL     1       8.473  14.091  24.442  0.00  0.00    +0.000 A 
ATOM     20  C   UNL     1       7.570  13.467  23.559  0.00  0.00    +0.000 A 
ATOM     21  C   UNL     1       6.754  12.446  24.100  0.00  0.00    +0.000 A 
BRANCH  16  22
ATOM     22  C   UNL     1       5.900  11.018  26.016  0.00  0.00    +0.000 C 
BRANCH  22  23
ATOM     23  O   UNL     1       5.018  10.553  25.005  0.00  0.00    +0.000 OA
ATOM     24  H   UNL     1       5.571  10.145  24.317  0.00  0.00    +0.000 HD
ENDBRANCH  22  23
ENDBRANCH  16  22
ENDBRANCH   1  20
BRANCH  13  25
ATOM     25  C   UNL     1       4.215  16.156  20.149  0.00  0.00    +0.000 C 
ATOM     26  C   UNL     1       3.396  15.192  21.013  0.00  0.00    +0.000 C 
ATOM     27  C   UNL     1       2.784  14.043  20.206  0.00  0.00    +0.000 C 
ATOM     28  N   UNL     1       2.019  14.471  19.022  0.00  0.00    +0.000 NA
ATOM     29  C   UNL     1       2.716  15.479  18.201  0.00  0.00    +0.000 C 
ATOM     30  C   UNL     1       3.336  16.636  18.991  0.00  0.00    +0.000 C 
BRANCH  28  31
ATOM     31  C   UNL     1       1.744  13.293  18.154  0.00  0.00    +0.000 C 
BRANCH  31  32
ATOM     32  C   UNL     1       0.900  12.213  18.798  0.00  0.00    +0.000 A 
ATOM     33  C   UNL     1       1.341  10.885  18.818  0.00  0.00    +0.000 A 
ATOM     34  C   UNL     1       0.572   9.892  19.426  0.00  0.00    +0.000 A 
ATOM     35  C   UNL     1      -0.646  10.218  20.023  0.00  0.00    +0.000 A 
ATOM     36  C   UNL     1      -1.096  11.536  20.010  0.00  0.00    +0.000 A 
ATOM     37  C   UNL     1      -0.328  12.530  19.401  0.00  0.00    +0.000 A 
ENDBRANCH  31  32
ENDBRANCH  28  31
ENDBRANCH  13  25
TORSDOF 6
ENDMDL
MODEL 8
REMARK VINA RESULT:      -7.1      3.173      5.218
REMARK  Name = 
REMARK  6 active torsions:
REMARK  status: ('A' for Active; 'I' for Inactive)
REMARK    1  A    between atoms: O_1  and  C_2
REMARK    2  A    between atoms: C_2  and  C_3
REMARK    3  A    between atoms: C_7  and  C_8
REMARK    4  A    between atoms: N_20  and  C_21
REMARK    5  A    between atoms: N_24  and  C_25
REMARK    6  A    between atoms: C_25  and  C_26
REMARK                            x       y       z     vdW  Elec       q    Type
REMARK                         _______ _______ _______ _____ _____    ______ ____
ROOT
ATOM      1  C   UNL     1      -2.515  13.173  21.277  0.00  0.00    +0.000 A 
ATOM      2  N   UNL     1      -3.681  13.035  20.592  0.00  0.00    +0.000 NA
ATOM      3  C   UNL     1      -3.721  12.292  19.461  0.00  0.00    +0.000 A 
ATOM      4  N   UNL     1      -4.898  12.134  18.765  0.00  0.00    +0.000 N 
ATOM      5  C   UNL     1      -5.916  13.181  18.765  0.00  0.00    +0.000 C 
ATOM      6  C   UNL     1      -7.243  12.655  19.321  0.00  0.00    +0.000 C 
ATOM      7  O   UNL     1      -7.654  11.444  18.664  0.00  0.00    +0.000 OA
ATOM      8  C   UNL     1      -6.667  10.420  18.864  0.00  0.00    +0.000 C 
ATOM      9  C   UNL     1      -5.313  10.821  18.262  0.00  0.00    +0.000 C 
ATOM     10  C   UNL     1      -2.513  11.744  19.020  0.00  0.00    +0.000 A 
ATOM     11  C   UNL     1      -2.077  11.006  17.909  0.00  0.00    +0.000 A 
ATOM     12  N   UNL     1      -0.785  10.720  17.961  0.00  0.00    +0.000 NA
ATOM     13  N   UNL     1      -0.355  11.326  19.094  0.00  0.00    +0.000 N 
ATOM     14  C   UNL     1      -1.373  11.960  19.775  0.00  0.00    +0.000 A 
ATOM     15  N   UNL     1      -1.310  12.658  20.924  0.00  0.00    +0.000 NA
ENDROOT
BRANCH   1  20
ATOM     16  C   UNL     1      -3.801  15.445  24.094  0.00  0.00    +0.000 A 
ATOM     17  C   UNL     1      -2.687  15.468  24.940  0.00  0.00    +0.000 A 
ATOM     18  C   UNL     1      -1.533  14.766  24.604  0.00  0.00    +0.000 A 
ATOM     19  C   UNL     1      -1.478  14.032  23.415  0.00  0.00    +0.000 A 
ATOM     20  C   UNL     1      -2.575  13.966  22.535  0.00  0.00    +0.000 A 
ATOM     21  C   UNL     1      -3.733  14.689  22.907  0.00  0.00    +0.000 A 
BRANCH  16  22
ATOM     22  C   UNL     1      -5.021  16.258  24.430  0.00  0.00    +0.000 C 
BRANCH  22  23
ATOM     23  O   UNL     1      -5.913  16.277  23.325  0.00  0.00    +0.000 OA
ATOM     24  H   UNL     1      -6.813  16.312  23.692  0.00  0.00    +0.000 HD
ENDBRANCH  22  23
ENDBRANCH  16  22
ENDBRANCH   1  20
BRANCH  13  25
ATOM     25  C   UNL     1       1.062  11.256  19.447  0.00  0.00    +0.000 C 
ATOM     26  C   UNL     1       1.956  10.862  18.267  0.00  0.00    +0.000 C 
ATOM     27  C   UNL     1       1.811   9.389  17.875  0.00  0.00    +0.000 C 
ATOM     28  N   UNL     1       1.968   8.443  18.995  0.00  0.00    +0.000 NA
ATOM     29  C   UNL     1       1.207   8.824  20.200  0.00  0.00    +0.000 C 
ATOM     30  C   UNL     1       1.339  10.295  20.607  0.00  0.00    +0.000 C 
BRANCH  28  31
ATOM     31  C   UNL     1       1.502   7.093  18.575  0.00  0.00    +0.000 C 
BRANCH  31  32
ATOM     32  C   UNL     1       2.595   6.173  18.073  0.00  0.00    +0.000 A 
ATOM     33  C   UNL     1       2.326   4.821  17.825  0.00  0.00    +0.000 A 
ATOM     34  C   UNL     1       3.328   3.976  17.346  0.00  0.00    +0.000 A 
ATOM     35  C   UNL     1       4.608   4.474  17.107  0.00  0.00    +0.000 A 
ATOM     36  C   UNL     1       4.889   5.817  17.350  0.00  0.00    +0.000 A 
ATOM     37  C   UNL     1       3.888   6.664  17.830  0.00  0.00    +0.000 A 
ENDBRANCH  31  32
ENDBRANCH  28  31
ENDBRANCH  13  25
TORSDOF 6
ENDMDL
MODEL 9
REMARK VINA RESULT:      -7.1      6.175      7.458
REMARK  Name = 
REMARK  6 active torsions:
REMARK  status: ('A' for Active; 'I' for Inactive)
REMARK    1  A    between atoms: O_1  and  C_2
REMARK    2  A    between atoms: C_2  and  C_3
REMARK    3  A    between atoms: C_7  and  C_8
REMARK    4  A    between atoms: N_20  and  C_21
REMARK    5  A    between atoms: N_24  and  C_25
REMARK    6  A    between atoms: C_25  and  C_26
REMARK                            x       y       z     vdW  Elec       q    Type
REMARK                         _______ _______ _______ _____ _____    ______ ____
ROOT
ATOM      1  C   UNL     1       7.475  13.827  22.283  0.00  0.00    +0.000 A 
ATOM      2  N   UNL     1       6.796  14.930  21.870  0.00  0.00    +0.000 NA
ATOM      3  C   UNL     1       7.046  15.465  20.650  0.00  0.00    +0.000 A 
ATOM      4  N   UNL     1       6.357  16.573  20.214  0.00  0.00    +0.000 N 
ATOM      5  C   UNL     1       5.875  17.576  21.160  0.00  0.00    +0.000 C 
ATOM      6  C   UNL     1       4.352  17.729  21.068  0.00  0.00    +0.000 C 
ATOM      7  O   UNL     1       3.920  17.949  19.715  0.00  0.00    +0.000 OA
ATOM      8  C   UNL     1       4.291  16.831  18.894  0.00  0.00    +0.000 C 
ATOM      9  C   UNL     1       5.814  16.645  18.855  0.00  0.00    +0.000 C 
ATOM     10  C   UNL     1       8.057  14.868  19.892  0.00  0.00    +0.000 A 
ATOM     11  C   UNL     1       8.687  15.116  18.663  0.00  0.00    +0.000 A 
ATOM     12  N   UNL     1       9.624  14.223  18.380  0.00  0.00    +0.000 NA
ATOM     13  N   UNL     1       9.647  13.409  19.463  0.00  0.00    +0.000 N 
ATOM     14  C   UNL     1       8.708  13.761  20.410  0.00  0.00    +0.000 A 
ATOM     15  N   UNL     1       8.454  13.183  21.598  0.00  0.00    +0.000 NA
ENDROOT
BRANCH   1  20
ATOM     16  C   UNL     1       5.936  13.500  25.786  0.00  0.00    +0.000 A 
ATOM     17  C   UNL     1       6.383  12.226  26.150  0.00  0.00    +0.000 A 
ATOM     18  C   UNL     1       7.179  11.484  25.282  0.00  0.00    +0.000 A 
ATOM     19  C   UNL     1       7.537  12.008  24.035  0.00  0.00    +0.000 A 
ATOM     20  C   UNL     1       7.101  13.280  23.615  0.00  0.00    +0.000 A 
ATOM     21  C   UNL     1       6.294  14.008  24.521  0.00  0.00    +0.000 A 
BRANCH  16  22
ATOM     22  C   UNL     1       5.132  14.324  26.755  0.00  0.00    +0.000 C 
BRANCH  22  23
ATOM     23  O   UNL     1       4.178  13.505  27.416  0.00  0.00    +0.000 OA
ATOM     24  H   UNL     1       3.508  14.102  27.791  0.00  0.00    +0.000 HD
ENDBRANCH  22  23
ENDBRANCH  16  22
ENDBRANCH   1  20
BRANCH  13  25
ATOM     25  C   UNL     1      10.617  12.316  19.513  0.00  0.00    +0.000 C 
ATOM     26  C   UNL     1      10.942  11.737  18.133  0.00  0.00    +0.000 C 
ATOM     27  C   UNL     1       9.793  10.910  17.549  0.00  0.00    +0.000 C 
ATOM     28  N   UNL     1       9.275   9.866  18.451  0.00  0.00    +0.000 NA
ATOM     29  C   UNL     1       9.037  10.341  19.828  0.00  0.00    +0.000 C 
ATOM     30  C   UNL     1      10.175  11.171  20.428  0.00  0.00    +0.000 C 
BRANCH  28  31
ATOM     31  C   UNL     1       7.984   9.348  17.922  0.00  0.00    +0.000 C 
BRANCH  31  32
ATOM     32  C   UNL     1       7.851   7.840  17.938  0.00  0.00    +0.000 A 
ATOM     33  C   UNL     1       8.270   7.101  19.051  0.00  0.00    +0.000 A 
ATOM     34  C   UNL     1       8.132   5.713  19.073  0.00  0.00    +0.000 A 
ATOM     35  C   UNL     1       7.571   5.048  17.984  0.00  0.00    +0.000 A 
ATOM     36  C   UNL     1       7.150   5.771  16.869  0.00  0.00    +0.000 A 
ATOM     37  C   UNL     1       7.288   7.160  16.845  0.00  0.00    +0.000 A 
ENDBRANCH  31  32
ENDBRANCH  28  31
ENDBRANCH  13  25
TORSDOF 6
ENDMDL
