MODEL 1
REMARK VINA RESULT:      -7.8      0.000      0.000
REMARK  Name = 
REMARK  5 active torsions:
REMARK  status: ('A' for Active; 'I' for Inactive)
REMARK    1  A    between atoms: S_2  and  N_4
REMARK    2  A    between atoms: S_2  and  C_18
REMARK    3  A    between atoms: N_4  and  C_5
REMARK    4  A    between atoms: C_11  and  C_12
REMARK    5  A    between atoms: C_12  and  N_13
REMARK                            x       y       z     vdW  Elec       q    Type
REMARK                         _______ _______ _______ _____ _____    ______ ____
ROOT
ATOM      1  N   UNL     1       2.225   5.678  17.867  0.00  0.00    +0.000 N 
ATOM      2  H   UNL     1       2.172   5.609  16.848  0.00  0.00    +0.000 HD
ENDROOT
BRANCH   1   3
ATOM      3  C   UNL     1       2.530   4.412  18.481  0.00  0.00    +0.000 A 
ATOM      4  C   UNL     1       1.878   4.059  19.670  0.00  0.00    +0.000 A 
ATOM      5  C   UNL     1       2.165   2.843  20.289  0.00  0.00    +0.000 A 
ATOM      6 CL   UNL     1       1.373   2.419  21.757  0.00  0.00    +0.000 Cl
ATOM      7  C   UNL     1       3.093   1.968  19.733  0.00  0.00    +0.000 A 
ATOM      8  C   UNL     1       3.729   2.307  18.540  0.00  0.00    +0.000 A 
ATOM      9  C   UNL     1       3.449   3.526  17.890  0.00  0.00    +0.000 A 
BRANCH   9  10
ATOM     10  C   UNL     1       4.189   3.854  16.617  0.00  0.00    +0.000 C 
BRANCH  10  11
ATOM     11  N   UNL     1       5.576   4.191  16.882  0.00  0.00    +0.000 N 
ATOM     12  C   UNL     1       6.145   4.524  18.079  0.00  0.00    +0.000 A 
ATOM     13  C   UNL     1       7.472   4.697  17.771  0.00  0.00    +0.000 A 
ATOM     14  N   UNL     1       7.669   4.453  16.441  0.00  0.00    +0.000 NA
ATOM     15  N   UNL     1       6.499   4.133  15.904  0.00  0.00    +0.000 NA
ENDBRANCH  10  11
ENDBRANCH   9  10
ENDBRANCH   1   3
BRANCH   1  17
ATOM     16  O   UNL     1       4.019   6.556  19.473  0.00  0.00    +0.000 OA
ATOM     17  S   UNL     1       3.247   6.961  18.319  0.00  0.00    +0.000 S 
ATOM     18  O   UNL     1       3.880   7.464  17.120  0.00  0.00    +0.000 OA
BRANCH  17  19
ATOM     19  C   UNL     1       2.082   8.204  18.856  0.00  0.00    +0.000 A 
ATOM     20  C   UNL     1       1.548   9.099  17.923  0.00  0.00    +0.000 A 
ATOM     21  C   UNL     1       0.563  10.008  18.323  0.00  0.00    +0.000 A 
ATOM     22  C   UNL     1       0.110  10.022  19.648  0.00  0.00    +0.000 A 
ATOM     23 CL   UNL     1      -1.120  11.162  20.065  0.00  0.00    +0.000 Cl
ATOM     24  C   UNL     1       0.645   9.121  20.576  0.00  0.00    +0.000 A 
ATOM     25 CL   UNL     1       0.121   9.072  22.222  0.00  0.00    +0.000 Cl
ATOM     26  C   UNL     1       1.631   8.208  20.180  0.00  0.00    +0.000 A 
ENDBRANCH  17  19
ENDBRANCH   1  17
TORSDOF 5
ENDMDL
MODEL 2
REMARK VINA RESULT:      -7.8      1.469      1.649
REMARK  Name = 
REMARK  5 active torsions:
REMARK  status: ('A' for Active; 'I' for Inactive)
REMARK    1  A    between atoms: S_2  and  N_4
REMARK    2  A    between atoms: S_2  and  C_18
REMARK    3  A    between atoms: N_4  and  C_5
REMARK    4  A    between atoms: C_11  and  C_12
REMARK    5  A    between atoms: C_12  and  N_13
REMARK                            x       y       z     vdW  Elec       q    Type
REMARK                         _______ _______ _______ _____ _____    ______ ____
ROOT
ATOM      1  N   UNL     1       3.634   6.222  19.553  0.00  0.00    +0.000 N 
ATOM      2  H   UNL     1       3.406   6.738  20.405  0.00  0.00    +0.000 HD
ENDROOT
BRANCH   1   3
ATOM      3  C   UNL     1       3.440   4.803  19.710  0.00  0.00    +0.000 A 
ATOM      4  C   UNL     1       2.534   4.343  20.674  0.00  0.00    +0.000 A 
ATOM      5  C   UNL     1       2.338   2.974  20.851  0.00  0.00    +0.000 A 
ATOM      6 CL   UNL     1       1.235   2.412  22.046  0.00  0.00    +0.000 Cl
ATOM      7  C   UNL     1       3.033   2.054  20.073  0.00  0.00    +0.000 A 
ATOM      8  C   UNL     1       3.922   2.508  19.099  0.00  0.00    +0.000 A 
ATOM      9  C   UNL     1       4.129   3.887  18.894  0.00  0.00    +0.000 A 
BRANCH   9  10
ATOM     10  C   UNL     1       5.125   4.321  17.846  0.00  0.00    +0.000 C 
BRANCH  10  11
ATOM     11  N   UNL     1       6.275   4.972  18.446  0.00  0.00    +0.000 N 
ATOM     12  C   UNL     1       7.172   5.811  17.848  0.00  0.00    +0.000 A 
ATOM     13  C   UNL     1       8.015   6.170  18.871  0.00  0.00    +0.000 A 
ATOM     14  N   UNL     1       7.608   5.572  20.030  0.00  0.00    +0.000 NA
ATOM     15  N   UNL     1       6.531   4.846  19.762  0.00  0.00    +0.000 NA
ENDBRANCH  10  11
ENDBRANCH   9  10
ENDBRANCH   1   3
BRANCH   1  17
ATOM     16  O   UNL     1       3.834   7.494  17.337  0.00  0.00    +0.000 OA
ATOM     17  S   UNL     1       2.843   6.912  18.215  0.00  0.00    +0.000 S 
ATOM     18  O   UNL     1       1.872   5.954  17.734  0.00  0.00    +0.000 OA
BRANCH  17  19
ATOM     19  C   UNL     1       1.928   8.252  18.962  0.00  0.00    +0.000 A 
ATOM     20  C   UNL     1       1.431   9.282  18.158  0.00  0.00    +0.000 A 
ATOM     21  C   UNL     1       0.632  10.279  18.727  0.00  0.00    +0.000 A 
ATOM     22  C   UNL     1       0.327  10.247  20.092  0.00  0.00    +0.000 A 
ATOM     23 CL   UNL     1      -0.679  11.503  20.722  0.00  0.00    +0.000 Cl
ATOM     24  C   UNL     1       0.824   9.210  20.892  0.00  0.00    +0.000 A 
ATOM     25 CL   UNL     1       0.474   9.100  22.581  0.00  0.00    +0.000 Cl
ATOM     26  C   UNL     1       1.624   8.209  20.327  0.00  0.00    +0.000 A 
ENDBRANCH  17  19
ENDBRANCH   1  17
TORSDOF 5
ENDMDL
MODEL 3
REMARK VINA RESULT:      -7.6      1.154      1.556
REMARK  Name = 
REMARK  5 active torsions:
REMARK  status: ('A' for Active; 'I' for Inactive)
REMARK    1  A    between atoms: S_2  and  N_4
REMARK    2  A    between atoms: S_2  and  C_18
REMARK    3  A    between atoms: N_4  and  C_5
REMARK    4  A    between atoms: C_11  and  C_12
REMARK    5  A    between atoms: C_12  and  N_13
REMARK                            x       y       z     vdW  Elec       q    Type
REMARK                         _______ _______ _______ _____ _____    ______ ____
ROOT
ATOM      1  N   UNL     1       3.717   6.590  19.598  0.00  0.00    +0.000 N 
ATOM      2  H   UNL     1       3.389   7.087  20.428  0.00  0.00    +0.000 HD
ENDROOT
BRANCH   1   3
ATOM      3  C   UNL     1       3.736   5.163  19.792  0.00  0.00    +0.000 A 
ATOM      4  C   UNL     1       2.655   4.550  20.437  0.00  0.00    +0.000 A 
ATOM      5  C   UNL     1       2.658   3.171  20.646  0.00  0.00    +0.000 A 
ATOM      6 CL   UNL     1       1.333   2.422  21.451  0.00  0.00    +0.000 Cl
ATOM      7  C   UNL     1       3.726   2.392  20.214  0.00  0.00    +0.000 A 
ATOM      8  C   UNL     1       4.796   2.996  19.554  0.00  0.00    +0.000 A 
ATOM      9  C   UNL     1       4.812   4.386  19.322  0.00  0.00    +0.000 A 
BRANCH   9  10
ATOM     10  C   UNL     1       6.009   4.991  18.630  0.00  0.00    +0.000 C 
BRANCH  10  11
ATOM     11  N   UNL     1       6.023   4.665  17.216  0.00  0.00    +0.000 N 
ATOM     12  C   UNL     1       4.953   4.502  16.381  0.00  0.00    +0.000 A 
ATOM     13  C   UNL     1       5.530   4.256  15.158  0.00  0.00    +0.000 A 
ATOM     14  N   UNL     1       6.891   4.293  15.278  0.00  0.00    +0.000 NA
ATOM     15  N   UNL     1       7.185   4.556  16.545  0.00  0.00    +0.000 NA
ENDBRANCH  10  11
ENDBRANCH   9  10
ENDBRANCH   1   3
BRANCH   1  17
ATOM     16  O   UNL     1       3.797   7.752  17.315  0.00  0.00    +0.000 OA
ATOM     17  S   UNL     1       2.867   7.116  18.221  0.00  0.00    +0.000 S 
ATOM     18  O   UNL     1       2.008   6.035  17.792  0.00  0.00    +0.000 OA
BRANCH  17  19
ATOM     19  C   UNL     1       1.808   8.389  18.891  0.00  0.00    +0.000 A 
ATOM     20  C   UNL     1       1.247   9.343  18.035  0.00  0.00    +0.000 A 
ATOM     21  C   UNL     1       0.341  10.279  18.543  0.00  0.00    +0.000 A 
ATOM     22  C   UNL     1      -0.008  10.263  19.898  0.00  0.00    +0.000 A 
ATOM     23 CL   UNL     1      -1.147  11.440  20.450  0.00  0.00    +0.000 Cl
ATOM     24  C   UNL     1       0.553   9.303  20.750  0.00  0.00    +0.000 A 
ATOM     25 CL   UNL     1       0.154   9.214  22.429  0.00  0.00    +0.000 Cl
ATOM     26  C   UNL     1       1.460   8.362  20.246  0.00  0.00    +0.000 A 
ENDBRANCH  17  19
ENDBRANCH   1  17
TORSDOF 5
ENDMDL
MODEL 4
REMARK VINA RESULT:      -7.5      1.560      2.139
REMARK  Name = 
REMARK  5 active torsions:
REMARK  status: ('A' for Active; 'I' for Inactive)
REMARK    1  A    between atoms: S_2  and  N_4
REMARK    2  A    between atoms: S_2  and  C_18
REMARK    3  A    between atoms: N_4  and  C_5
REMARK    4  A    between atoms: C_11  and  C_12
REMARK    5  A    between atoms: C_12  and  N_13
REMARK                            x       y       z     vdW  Elec       q    Type
REMARK                         _______ _______ _______ _____ _____    ______ ____
ROOT
ATOM      1  N   UNL     1       3.639   6.501  19.488  0.00  0.00    +0.000 N 
ATOM      2  H   UNL     1       3.602   6.930  20.416  0.00  0.00    +0.000 HD
ENDROOT
BRANCH   1   3
ATOM      3  C   UNL     1       3.458   5.073  19.543  0.00  0.00    +0.000 A 
ATOM      4  C   UNL     1       2.630   4.530  20.533  0.00  0.00    +0.000 A 
ATOM      5  C   UNL     1       2.448   3.150  20.612  0.00  0.00    +0.000 A 
ATOM      6 CL   UNL     1       1.441   2.485  21.839  0.00  0.00    +0.000 Cl
ATOM      7  C   UNL     1       3.082   2.301  19.711  0.00  0.00    +0.000 A 
ATOM      8  C   UNL     1       3.892   2.839  18.712  0.00  0.00    +0.000 A 
ATOM      9  C   UNL     1       4.083   4.231  18.605  0.00  0.00    +0.000 A 
BRANCH   9  10
ATOM     10  C   UNL     1       4.994   4.756  17.523  0.00  0.00    +0.000 C 
BRANCH  10  11
ATOM     11  N   UNL     1       6.211   5.317  18.081  0.00  0.00    +0.000 N 
ATOM     12  C   UNL     1       6.812   6.503  17.765  0.00  0.00    +0.000 A 
ATOM     13  C   UNL     1       7.889   6.559  18.615  0.00  0.00    +0.000 A 
ATOM     14  N   UNL     1       7.902   5.449  19.412  0.00  0.00    +0.000 NA
ATOM     15  N   UNL     1       6.860   4.696  19.084  0.00  0.00    +0.000 NA
ENDBRANCH  10  11
ENDBRANCH   9  10
ENDBRANCH   1   3
BRANCH   1  17
ATOM     16  O   UNL     1       3.385   8.196  17.583  0.00  0.00    +0.000 OA
ATOM     17  S   UNL     1       2.598   7.317  18.419  0.00  0.00    +0.000 S 
ATOM     18  O   UNL     1       1.694   6.341  17.853  0.00  0.00    +0.000 OA
BRANCH  17  19
ATOM     19  C   UNL     1       1.638   8.339  19.526  0.00  0.00    +0.000 A 
ATOM     20  C   UNL     1       1.484   7.955  20.862  0.00  0.00    +0.000 A 
ATOM     21  C   UNL     1       0.817   8.802  21.752  0.00  0.00    +0.000 A 
ATOM     22  C   UNL     1       0.308  10.030  21.313  0.00  0.00    +0.000 A 
ATOM     23 CL   UNL     1      -0.490  11.031  22.473  0.00  0.00    +0.000 Cl
ATOM     24  C   UNL     1       0.469  10.411  19.975  0.00  0.00    +0.000 A 
ATOM     25 CL   UNL     1      -0.119  11.919  19.368  0.00  0.00    +0.000 Cl
ATOM     26  C   UNL     1       1.138   9.567  19.080  0.00  0.00    +0.000 A 
ENDBRANCH  17  19
ENDBRANCH   1  17
TORSDOF 5
ENDMDL
MODEL 5
REMARK VINA RESULT:      -7.5      2.462      3.827
REMARK  Name = 
REMARK  5 active torsions:
REMARK  status: ('A' for Active; 'I' for Inactive)
REMARK    1  A    between atoms: S_2  and  N_4
REMARK    2  A    between atoms: S_2  and  C_18
REMARK    3  A    between atoms: N_4  and  C_5
REMARK    4  A    between atoms: C_11  and  C_12
REMARK    5  A    between atoms: C_12  and  N_13
REMARK                            x       y       z     vdW  Elec       q    Type
REMARK                         _______ _______ _______ _____ _____    ______ ____
ROOT
ATOM      1  N   UNL     1       3.182   6.036  17.476  0.00  0.00    +0.000 N 
ATOM      2  H   UNL     1       2.797   6.863  17.013  0.00  0.00    +0.000 HD
ENDROOT
BRANCH   1   3
ATOM      3  C   UNL     1       4.600   5.905  17.262  0.00  0.00    +0.000 A 
ATOM      4  C   UNL     1       5.430   7.004  17.518  0.00  0.00    +0.000 A 
ATOM      5  C   UNL     1       6.805   6.904  17.308  0.00  0.00    +0.000 A 
ATOM      6 CL   UNL     1       7.821   8.260  17.609  0.00  0.00    +0.000 Cl
ATOM      7  C   UNL     1       7.366   5.716  16.849  0.00  0.00    +0.000 A 
ATOM      8  C   UNL     1       6.545   4.614  16.612  0.00  0.00    +0.000 A 
ATOM      9  C   UNL     1       5.154   4.687  16.827  0.00  0.00    +0.000 A 
BRANCH   9  10
ATOM     10  C   UNL     1       4.311   3.473  16.525  0.00  0.00    +0.000 C 
BRANCH  10  11
ATOM     11  N   UNL     1       3.808   2.862  17.742  0.00  0.00    +0.000 N 
ATOM     12  C   UNL     1       2.633   2.188  17.921  0.00  0.00    +0.000 A 
ATOM     13  C   UNL     1       2.684   1.787  19.233  0.00  0.00    +0.000 A 
ATOM     14  N   UNL     1       3.860   2.200  19.793  0.00  0.00    +0.000 NA
ATOM     15  N   UNL     1       4.550   2.851  18.866  0.00  0.00    +0.000 NA
ENDBRANCH  10  11
ENDBRANCH   9  10
ENDBRANCH   1   3
BRANCH   1  17
ATOM     16  O   UNL     1       1.581   5.074  19.231  0.00  0.00    +0.000 OA
ATOM     17  S   UNL     1       2.693   5.990  19.104  0.00  0.00    +0.000 S 
ATOM     18  O   UNL     1       3.880   5.859  19.918  0.00  0.00    +0.000 OA
BRANCH  17  19
ATOM     19  C   UNL     1       2.064   7.643  19.360  0.00  0.00    +0.000 A 
ATOM     20  C   UNL     1       2.013   8.536  18.286  0.00  0.00    +0.000 A 
ATOM     21  C   UNL     1       1.430   9.795  18.462  0.00  0.00    +0.000 A 
ATOM     22  C   UNL     1       0.898  10.161  19.704  0.00  0.00    +0.000 A 
ATOM     23 CL   UNL     1       0.180  11.727  19.841  0.00  0.00    +0.000 Cl
ATOM     24  C   UNL     1       0.948   9.260  20.774  0.00  0.00    +0.000 A 
ATOM     25 CL   UNL     1       0.295   9.639  22.329  0.00  0.00    +0.000 Cl
ATOM     26  C   UNL     1       1.529   7.997  20.603  0.00  0.00    +0.000 A 
ENDBRANCH  17  19
ENDBRANCH   1  17
TORSDOF 5
ENDMDL
MODEL 6
REMARK VINA RESULT:      -7.5      0.651      1.406
REMARK  Name = 
REMARK  5 active torsions:
REMARK  status: ('A' for Active; 'I' for Inactive)
REMARK    1  A    between atoms: S_2  and  N_4
REMARK    2  A    between atoms: S_2  and  C_18
REMARK    3  A    between atoms: N_4  and  C_5
REMARK    4  A    between atoms: C_11  and  C_12
REMARK    5  A    between atoms: C_12  and  N_13
REMARK                            x       y       z     vdW  Elec       q    Type
REMARK                         _______ _______ _______ _____ _____    ______ ____
ROOT
ATOM      1  N   UNL     1       2.188   5.730  17.911  0.00  0.00    +0.000 N 
ATOM      2  H   UNL     1       2.170   5.677  16.891  0.00  0.00    +0.000 HD
ENDROOT
BRANCH   1   3
ATOM      3  C   UNL     1       2.522   4.466  18.515  0.00  0.00    +0.000 A 
ATOM      4  C   UNL     1       1.881   4.089  19.702  0.00  0.00    +0.000 A 
ATOM      5  C   UNL     1       2.196   2.874  20.310  0.00  0.00    +0.000 A 
ATOM      6 CL   UNL     1       1.417   2.420  21.777  0.00  0.00    +0.000 Cl
ATOM      7  C   UNL     1       3.142   2.024  19.746  0.00  0.00    +0.000 A 
ATOM      8  C   UNL     1       3.768   2.387  18.554  0.00  0.00    +0.000 A 
ATOM      9  C   UNL     1       3.459   3.605  17.914  0.00  0.00    +0.000 A 
BRANCH   9  10
ATOM     10  C   UNL     1       4.189   3.960  16.643  0.00  0.00    +0.000 C 
BRANCH  10  11
ATOM     11  N   UNL     1       5.588   4.252  16.899  0.00  0.00    +0.000 N 
ATOM     12  C   UNL     1       6.173   4.581  18.089  0.00  0.00    +0.000 A 
ATOM     13  C   UNL     1       7.505   4.701  17.774  0.00  0.00    +0.000 A 
ATOM     14  N   UNL     1       7.688   4.433  16.446  0.00  0.00    +0.000 NA
ATOM     15  N   UNL     1       6.505   4.147  15.918  0.00  0.00    +0.000 NA
ENDBRANCH  10  11
ENDBRANCH   9  10
ENDBRANCH   1   3
BRANCH   1  17
ATOM     16  O   UNL     1       4.125   6.566  19.367  0.00  0.00    +0.000 OA
ATOM     17  S   UNL     1       3.144   7.042  18.417  0.00  0.00    +0.000 S 
ATOM     18  O   UNL     1       3.529   7.788  17.239  0.00  0.00    +0.000 OA
BRANCH  17  19
ATOM     19  C   UNL     1       1.969   8.048  19.311  0.00  0.00    +0.000 A 
ATOM     20  C   UNL     1       1.681   7.751  20.647  0.00  0.00    +0.000 A 
ATOM     21  C   UNL     1       0.838   8.595  21.376  0.00  0.00    +0.000 A 
ATOM     22  C   UNL     1       0.286   9.734  20.777  0.00  0.00    +0.000 A 
ATOM     23 CL   UNL     1      -0.734  10.738  21.745  0.00  0.00    +0.000 Cl
ATOM     24  C   UNL     1       0.582  10.028  19.440  0.00  0.00    +0.000 A 
ATOM     25 CL   UNL     1      -0.050  11.425  18.642  0.00  0.00    +0.000 Cl
ATOM     26  C   UNL     1       1.427   9.187  18.706  0.00  0.00    +0.000 A 
ENDBRANCH  17  19
ENDBRANCH   1  17
TORSDOF 5
ENDMDL
MODEL 7
REMARK VINA RESULT:      -7.5      1.363      1.576
REMARK  Name = 
REMARK  5 active torsions:
REMARK  status: ('A' for Active; 'I' for Inactive)
REMARK    1  A    between atoms: S_2  and  N_4
REMARK    2  A    between atoms: S_2  and  C_18
REMARK    3  A    between atoms: N_4  and  C_5
REMARK    4  A    between atoms: C_11  and  C_12
REMARK    5  A    between atoms: C_12  and  N_13
REMARK                            x       y       z     vdW  Elec       q    Type
REMARK                         _______ _______ _______ _____ _____    ______ ____
ROOT
ATOM      1  N   UNL     1       3.025   6.458  19.760  0.00  0.00    +0.000 N 
ATOM      2  H   UNL     1       2.448   6.690  20.571  0.00  0.00    +0.000 HD
ENDROOT
BRANCH   1   3
ATOM      3  C   UNL     1       3.074   5.039  19.517  0.00  0.00    +0.000 A 
ATOM      4  C   UNL     1       1.877   4.311  19.499  0.00  0.00    +0.000 A 
ATOM      5  C   UNL     1       1.902   2.934  19.277  0.00  0.00    +0.000 A 
ATOM      6 CL   UNL     1       0.431   2.040  19.270  0.00  0.00    +0.000 Cl
ATOM      7  C   UNL     1       3.107   2.273  19.065  0.00  0.00    +0.000 A 
ATOM      8  C   UNL     1       4.298   2.997  19.063  0.00  0.00    +0.000 A 
ATOM      9  C   UNL     1       4.299   4.391  19.275  0.00  0.00    +0.000 A 
BRANCH   9  10
ATOM     10  C   UNL     1       5.620   5.119  19.291  0.00  0.00    +0.000 C 
BRANCH  10  11
ATOM     11  N   UNL     1       6.311   4.992  18.021  0.00  0.00    +0.000 N 
ATOM     12  C   UNL     1       5.898   5.428  16.793  0.00  0.00    +0.000 A 
ATOM     13  C   UNL     1       6.940   5.095  15.963  0.00  0.00    +0.000 A 
ATOM     14  N   UNL     1       7.933   4.501  16.690  0.00  0.00    +0.000 NA
ATOM     15  N   UNL     1       7.542   4.451  17.956  0.00  0.00    +0.000 NA
ENDBRANCH  10  11
ENDBRANCH   9  10
ENDBRANCH   1   3
BRANCH   1  17
ATOM     16  O   UNL     1       3.745   8.032  17.870  0.00  0.00    +0.000 OA
ATOM     17  S   UNL     1       2.566   7.401  18.421  0.00  0.00    +0.000 S 
ATOM     18  O   UNL     1       1.679   6.605  17.603  0.00  0.00    +0.000 OA
BRANCH  17  19
ATOM     19  C   UNL     1       1.573   8.679  19.177  0.00  0.00    +0.000 A 
ATOM     20  C   UNL     1       1.040   9.700  18.384  0.00  0.00    +0.000 A 
ATOM     21  C   UNL     1       0.183  10.644  18.958  0.00  0.00    +0.000 A 
ATOM     22  C   UNL     1      -0.146  10.568  20.316  0.00  0.00    +0.000 A 
ATOM     23 CL   UNL     1      -1.225  11.760  20.951  0.00  0.00    +0.000 Cl
ATOM     24  C   UNL     1       0.386   9.540  21.104  0.00  0.00    +0.000 A 
ATOM     25 CL   UNL     1       0.010   9.376  22.783  0.00  0.00    +0.000 Cl
ATOM     26  C   UNL     1       1.245   8.591  20.535  0.00  0.00    +0.000 A 
ENDBRANCH  17  19
ENDBRANCH   1  17
TORSDOF 5
ENDMDL
MODEL 8
REMARK VINA RESULT:      -7.4      4.053      7.002
REMARK  Name = 
REMARK  5 active torsions:
REMARK  status: ('A' for Active; 'I' for Inactive)
REMARK    1  A    between atoms: S_2  and  N_4
REMARK    2  A    between atoms: S_2  and  C_18
REMARK    3  A    between atoms: N_4  and  C_5
REMARK    4  A    between atoms: C_11  and  C_12
REMARK    5  A    between atoms: C_12  and  N_13
REMARK                            x       y       z     vdW  Elec       q    Type
REMARK                         _______ _______ _______ _____ _____    ______ ____
ROOT
ATOM      1  N   UNL     1       3.814   5.296  17.645  0.00  0.00    +0.000 N 
ATOM      2  H   UNL     1       3.553   4.343  17.910  0.00  0.00    +0.000 HD
ENDROOT
BRANCH   1   3
ATOM      3  C   UNL     1       3.104   6.286  18.412  0.00  0.00    +0.000 A 
ATOM      4  C   UNL     1       2.827   7.529  17.827  0.00  0.00    +0.000 A 
ATOM      5  C   UNL     1       2.150   8.507  18.555  0.00  0.00    +0.000 A 
ATOM      6 CL   UNL     1       1.824  10.038  17.839  0.00  0.00    +0.000 Cl
ATOM      7  C   UNL     1       1.740   8.260  19.861  0.00  0.00    +0.000 A 
ATOM      8  C   UNL     1       1.997   7.018  20.440  0.00  0.00    +0.000 A 
ATOM      9  C   UNL     1       2.670   6.009  19.721  0.00  0.00    +0.000 A 
BRANCH   9  10
ATOM     10  C   UNL     1       2.947   4.695  20.407  0.00  0.00    +0.000 C 
BRANCH  10  11
ATOM     11  N   UNL     1       2.285   3.594  19.731  0.00  0.00    +0.000 N 
ATOM     12  C   UNL     1       0.943   3.375  19.598  0.00  0.00    +0.000 A 
ATOM     13  C   UNL     1       0.873   2.233  18.838  0.00  0.00    +0.000 A 
ATOM     14  N   UNL     1       2.135   1.814  18.524  0.00  0.00    +0.000 NA
ATOM     15  N   UNL     1       2.997   2.663  19.069  0.00  0.00    +0.000 NA
ENDBRANCH  10  11
ENDBRANCH   9  10
ENDBRANCH   1   3
BRANCH   1  17
ATOM     16  O   UNL     1       5.833   6.874  17.678  0.00  0.00    +0.000 OA
ATOM     17  S   UNL     1       5.506   5.465  17.642  0.00  0.00    +0.000 S 
ATOM     18  O   UNL     1       6.044   4.537  18.611  0.00  0.00    +0.000 OA
BRANCH  17  19
ATOM     19  C   UNL     1       5.949   4.848  16.025  0.00  0.00    +0.000 A 
ATOM     20  C   UNL     1       5.178   3.841  15.436  0.00  0.00    +0.000 A 
ATOM     21  C   UNL     1       5.464   3.426  14.131  0.00  0.00    +0.000 A 
ATOM     22  C   UNL     1       6.513   4.016  13.415  0.00  0.00    +0.000 A 
ATOM     23 CL   UNL     1       6.797   3.464  11.802  0.00  0.00    +0.000 Cl
ATOM     24  C   UNL     1       7.278   5.028  14.010  0.00  0.00    +0.000 A 
ATOM     25 CL   UNL     1       8.576   5.811  13.179  0.00  0.00    +0.000 Cl
ATOM     26  C   UNL     1       6.995   5.447  15.315  0.00  0.00    +0.000 A 
ENDBRANCH  17  19
ENDBRANCH   1  17
TORSDOF 5
ENDMDL
MODEL 9
REMARK VINA RESULT:      -7.4      3.756      6.780
REMARK  Name = 
REMARK  5 active torsions:
REMARK  status: ('A' for Active; 'I' for Inactive)
REMARK    1  A    between atoms: S_2  and  N_4
REMARK    2  A    between atoms: S_2  and  C_18
REMARK    3  A    between atoms: N_4  and  C_5
REMARK    4  A    between atoms: C_11  and  C_12
REMARK    5  A    between atoms: C_12  and  N_13
REMARK                            x       y       z     vdW  Elec       q    Type
REMARK                         _______ _______ _______ _____ _____    ______ ____
ROOT
ATOM      1  N   UNL     1       3.444   4.873  18.200  0.00  0.00    +0.000 N 
ATOM      2  H   UNL     1       2.967   3.997  18.422  0.00  0.00    +0.000 HD
ENDROOT
BRANCH   1   3
ATOM      3  C   UNL     1       2.811   6.009  18.820  0.00  0.00    +0.000 A 
ATOM      4  C   UNL     1       2.743   7.218  18.116  0.00  0.00    +0.000 A 
ATOM      5  C   UNL     1       2.144   8.333  18.700  0.00  0.00    +0.000 A 
ATOM      6 CL   UNL     1       2.075   9.821  17.838  0.00  0.00    +0.000 Cl
ATOM      7  C   UNL     1       1.606   8.258  19.981  0.00  0.00    +0.000 A 
ATOM      8  C   UNL     1       1.654   7.051  20.677  0.00  0.00    +0.000 A 
ATOM      9  C   UNL     1       2.245   5.906  20.104  0.00  0.00    +0.000 A 
BRANCH   9  10
ATOM     10  C   UNL     1       2.296   4.635  20.915  0.00  0.00    +0.000 C 
BRANCH  10  11
ATOM     11  N   UNL     1       1.789   3.504  20.159  0.00  0.00    +0.000 N 
ATOM     12  C   UNL     1       0.565   3.369  19.568  0.00  0.00    +0.000 A 
ATOM     13  C   UNL     1       0.633   2.142  18.955  0.00  0.00    +0.000 A 
ATOM     14  N   UNL     1       1.865   1.590  19.170  0.00  0.00    +0.000 NA
ATOM     15  N   UNL     1       2.573   2.440  19.902  0.00  0.00    +0.000 NA
ENDBRANCH  10  11
ENDBRANCH   9  10
ENDBRANCH   1   3
BRANCH   1  17
ATOM     16  O   UNL     1       5.545   5.864  19.282  0.00  0.00    +0.000 OA
ATOM     17  S   UNL     1       5.112   4.729  18.497  0.00  0.00    +0.000 S 
ATOM     18  O   UNL     1       5.369   3.371  18.921  0.00  0.00    +0.000 OA
BRANCH  17  19
ATOM     19  C   UNL     1       5.807   4.906  16.861  0.00  0.00    +0.000 A 
ATOM     20  C   UNL     1       7.046   5.535  16.701  0.00  0.00    +0.000 A 
ATOM     21  C   UNL     1       7.637   5.587  15.435  0.00  0.00    +0.000 A 
ATOM     22  C   UNL     1       6.996   5.010  14.332  0.00  0.00    +0.000 A 
ATOM     23 CL   UNL     1       7.794   5.099  12.801  0.00  0.00    +0.000 Cl
ATOM     24  C   UNL     1       5.758   4.378  14.499  0.00  0.00    +0.000 A 
ATOM     25 CL   UNL     1       4.919   3.631  13.184  0.00  0.00    +0.000 Cl
ATOM     26  C   UNL     1       5.163   4.322  15.765  0.00  0.00    +0.000 A 
ENDBRANCH  17  19
ENDBRANCH   1  17
TORSDOF 5
ENDMDL
