MODEL 1
REMARK VINA RESULT:      -6.2      0.000      0.000
REMARK  Name = 
REMARK  8 active torsions:
REMARK  status: ('A' for Active; 'I' for Inactive)
REMARK    1  A    between atoms: C_1  and  O_2
REMARK    2  A    between atoms: O_2  and  C_3
REMARK    3  A    between atoms: C_3  and  C_4
REMARK    4  A    between atoms: C_4  and  C_5
REMARK    5  A    between atoms: C_5  and  O_6
REMARK    6  A    between atoms: O_6  and  C_7
REMARK    7  A    between atoms: C_10  and  C_12
REMARK    8  A    between atoms: C_16  and  C_17
REMARK                            x       y       z     vdW  Elec       q    Type
REMARK                         _______ _______ _______ _____ _____    ______ ____
ROOT
ATOM      1  C   UNL     1       1.679   4.230  17.510  0.00  0.00    +0.000 C 
ATOM      2  C   UNL     1       2.331   5.388  18.291  0.00  0.00    +0.000 C 
ATOM      3  N   UNL     1       3.531   5.109  17.528  0.00  0.00    +0.000 N 
ATOM      4  C   UNL     1       4.546   5.967  17.184  0.00  0.00    +0.000 C 
ATOM      5  O   UNL     1       4.533   7.136  17.572  0.00  0.00    +0.000 OA
ATOM      6  C   UNL     1       3.110   3.770  17.169  0.00  0.00    +0.000 C 
ENDROOT
BRANCH   4   7
ATOM      7  C   UNL     1       5.610   5.447  16.339  0.00  0.00    +0.000 A 
ATOM      8  C   UNL     1       5.634   5.138  14.949  0.00  0.00    +0.000 A 
ATOM      9  C   UNL     1       6.900   4.695  14.658  0.00  0.00    +0.000 A 
ATOM     10  O   UNL     1       7.659   4.665  15.776  0.00  0.00    +0.000 OA
ATOM     11  C   UNL     1       6.877   5.102  16.802  0.00  0.00    +0.000 A 
ATOM     12  C   UNL     1       7.525   5.119  18.134  0.00  0.00    +0.000 C 
ENDBRANCH   4   7
BRANCH   1  13
ATOM     13  O   UNL     1       0.860   3.310  18.272  0.00  0.00    +0.000 OA
BRANCH  13  14
ATOM     14  C   UNL     1       1.609   2.368  19.041  0.00  0.00    +0.000 C 
BRANCH  14  15
ATOM     15  C   UNL     1       1.386   2.607  20.526  0.00  0.00    +0.000 C 
BRANCH  15  16
ATOM     16  C   UNL     1       2.718   2.798  21.238  0.00  0.00    +0.000 C 
BRANCH  16  18
ATOM     17  C   UNL     1       4.757   1.814  20.568  0.00  0.00    +0.000 C 
ATOM     18  O   UNL     1       3.766   2.788  20.271  0.00  0.00    +0.000 OA
ENDBRANCH  16  18
ENDBRANCH  15  16
ENDBRANCH  14  15
ENDBRANCH  13  14
ENDBRANCH   1  13
TORSDOF 6
ENDMDL
MODEL 2
REMARK VINA RESULT:      -6.0      2.474      6.461
REMARK  Name = 
REMARK  8 active torsions:
REMARK  status: ('A' for Active; 'I' for Inactive)
REMARK    1  A    between atoms: C_1  and  O_2
REMARK    2  A    between atoms: O_2  and  C_3
REMARK    3  A    between atoms: C_3  and  C_4
REMARK    4  A    between atoms: C_4  and  C_5
REMARK    5  A    between atoms: C_5  and  O_6
REMARK    6  A    between atoms: O_6  and  C_7
REMARK    7  A    between atoms: C_10  and  C_12
REMARK    8  A    between atoms: C_16  and  C_17
REMARK                            x       y       z     vdW  Elec       q    Type
REMARK                         _______ _______ _______ _____ _____    ______ ____
ROOT
ATOM      1  C   UNL     1       5.804   4.858  16.758  0.00  0.00    +0.000 C 
ATOM      2  C   UNL     1       6.223   4.443  18.182  0.00  0.00    +0.000 C 
ATOM      3  N   UNL     1       4.835   4.079  18.388  0.00  0.00    +0.000 N 
ATOM      4  C   UNL     1       4.315   3.137  19.240  0.00  0.00    +0.000 C 
ATOM      5  O   UNL     1       5.052   2.504  19.996  0.00  0.00    +0.000 OA
ATOM      6  C   UNL     1       4.357   4.889  17.286  0.00  0.00    +0.000 C 
ENDROOT
BRANCH   4   7
ATOM      7  C   UNL     1       2.878   2.912  19.198  0.00  0.00    +0.000 A 
ATOM      8  C   UNL     1       2.046   2.370  18.176  0.00  0.00    +0.000 A 
ATOM      9  C   UNL     1       0.763   2.364  18.664  0.00  0.00    +0.000 A 
ATOM     10  O   UNL     1       0.727   2.903  19.903  0.00  0.00    +0.000 OA
ATOM     11  C   UNL     1       2.002   3.254  20.225  0.00  0.00    +0.000 A 
ATOM     12  C   UNL     1       2.173   3.893  21.551  0.00  0.00    +0.000 C 
ENDBRANCH   4   7
BRANCH   1  13
ATOM     13  O   UNL     1       6.345   6.104  16.257  0.00  0.00    +0.000 OA
BRANCH  13  14
ATOM     14  C   UNL     1       6.321   7.170  17.208  0.00  0.00    +0.000 C 
BRANCH  14  15
ATOM     15  C   UNL     1       7.733   7.492  17.672  0.00  0.00    +0.000 C 
BRANCH  15  16
ATOM     16  C   UNL     1       7.896   8.992  17.871  0.00  0.00    +0.000 C 
BRANCH  16  18
ATOM     17  C   UNL     1       9.325  10.583  18.871  0.00  0.00    +0.000 C 
ATOM     18  O   UNL     1       8.918   9.222  18.838  0.00  0.00    +0.000 OA
ENDBRANCH  16  18
ENDBRANCH  15  16
ENDBRANCH  14  15
ENDBRANCH  13  14
ENDBRANCH   1  13
TORSDOF 6
ENDMDL
MODEL 3
REMARK VINA RESULT:      -6.0      2.193      6.467
REMARK  Name = 
REMARK  8 active torsions:
REMARK  status: ('A' for Active; 'I' for Inactive)
REMARK    1  A    between atoms: C_1  and  O_2
REMARK    2  A    between atoms: O_2  and  C_3
REMARK    3  A    between atoms: C_3  and  C_4
REMARK    4  A    between atoms: C_4  and  C_5
REMARK    5  A    between atoms: C_5  and  O_6
REMARK    6  A    between atoms: O_6  and  C_7
REMARK    7  A    between atoms: C_10  and  C_12
REMARK    8  A    between atoms: C_16  and  C_17
REMARK                            x       y       z     vdW  Elec       q    Type
REMARK                         _______ _______ _______ _____ _____    ______ ____
ROOT
ATOM      1  C   UNL     1       5.808   4.461  16.248  0.00  0.00    +0.000 C 
ATOM      2  C   UNL     1       6.245   4.405  17.725  0.00  0.00    +0.000 C 
ATOM      3  N   UNL     1       4.859   4.107  18.030  0.00  0.00    +0.000 N 
ATOM      4  C   UNL     1       4.349   3.404  19.093  0.00  0.00    +0.000 C 
ATOM      5  O   UNL     1       5.096   2.973  19.972  0.00  0.00    +0.000 OA
ATOM      6  C   UNL     1       4.367   4.626  16.770  0.00  0.00    +0.000 C 
ENDROOT
BRANCH   4   7
ATOM      7  C   UNL     1       2.912   3.180  19.124  0.00  0.00    +0.000 A 
ATOM      8  C   UNL     1       2.100   2.221  18.454  0.00  0.00    +0.000 A 
ATOM      9  C   UNL     1       0.805   2.440  18.854  0.00  0.00    +0.000 A 
ATOM     10  O   UNL     1       0.744   3.496  19.696  0.00  0.00    +0.000 OA
ATOM     11  C   UNL     1       2.015   3.961  19.849  0.00  0.00    +0.000 A 
ATOM     12  C   UNL     1       2.158   5.147  20.725  0.00  0.00    +0.000 C 
ENDBRANCH   4   7
BRANCH   1  13
ATOM     13  O   UNL     1       6.344   5.545  15.451  0.00  0.00    +0.000 OA
BRANCH  13  14
ATOM     14  C   UNL     1       6.974   5.119  14.242  0.00  0.00    +0.000 C 
BRANCH  14  15
ATOM     15  C   UNL     1       6.375   3.801  13.775  0.00  0.00    +0.000 C 
BRANCH  15  16
ATOM     16  C   UNL     1       6.480   3.679  12.261  0.00  0.00    +0.000 C 
BRANCH  16  18
ATOM     17  C   UNL     1       5.876   1.584  11.357  0.00  0.00    +0.000 C 
ATOM     18  O   UNL     1       5.415   2.857  11.788  0.00  0.00    +0.000 OA
ENDBRANCH  16  18
ENDBRANCH  15  16
ENDBRANCH  14  15
ENDBRANCH  13  14
ENDBRANCH   1  13
TORSDOF 6
ENDMDL
MODEL 4
REMARK VINA RESULT:      -5.9      1.561      2.067
REMARK  Name = 
REMARK  8 active torsions:
REMARK  status: ('A' for Active; 'I' for Inactive)
REMARK    1  A    between atoms: C_1  and  O_2
REMARK    2  A    between atoms: O_2  and  C_3
REMARK    3  A    between atoms: C_3  and  C_4
REMARK    4  A    between atoms: C_4  and  C_5
REMARK    5  A    between atoms: C_5  and  O_6
REMARK    6  A    between atoms: O_6  and  C_7
REMARK    7  A    between atoms: C_10  and  C_12
REMARK    8  A    between atoms: C_16  and  C_17
REMARK                            x       y       z     vdW  Elec       q    Type
REMARK                         _______ _______ _______ _____ _____    ______ ____
ROOT
ATOM      1  C   UNL     1       2.650   5.394  19.505  0.00  0.00    +0.000 C 
ATOM      2  C   UNL     1       2.825   6.823  18.956  0.00  0.00    +0.000 C 
ATOM      3  N   UNL     1       3.943   6.299  18.196  0.00  0.00    +0.000 N 
ATOM      4  C   UNL     1       4.454   6.748  17.004  0.00  0.00    +0.000 C 
ATOM      5  O   UNL     1       3.987   7.750  16.464  0.00  0.00    +0.000 OA
ATOM      6  C   UNL     1       4.096   5.131  19.041  0.00  0.00    +0.000 C 
ENDROOT
BRANCH   4   7
ATOM      7  C   UNL     1       5.543   5.987  16.410  0.00  0.00    +0.000 A 
ATOM      8  C   UNL     1       5.536   4.955  15.428  0.00  0.00    +0.000 A 
ATOM      9  C   UNL     1       6.843   4.597  15.213  0.00  0.00    +0.000 A 
ATOM     10  O   UNL     1       7.665   5.302  16.022  0.00  0.00    +0.000 OA
ATOM     11  C   UNL     1       6.882   6.134  16.763  0.00  0.00    +0.000 A 
ATOM     12  C   UNL     1       7.600   6.983  17.740  0.00  0.00    +0.000 C 
ENDBRANCH   4   7
BRANCH   1  13
ATOM     13  O   UNL     1       2.384   5.269  20.923  0.00  0.00    +0.000 OA
BRANCH  13  14
ATOM     14  C   UNL     1       2.025   3.948  21.331  0.00  0.00    +0.000 C 
BRANCH  14  15
ATOM     15  C   UNL     1       0.949   3.389  20.413  0.00  0.00    +0.000 C 
BRANCH  15  16
ATOM     16  C   UNL     1       1.456   2.144  19.699  0.00  0.00    +0.000 C 
BRANCH  16  18
ATOM     17  C   UNL     1       2.499   2.258  17.584  0.00  0.00    +0.000 C 
ATOM     18  O   UNL     1       1.270   2.308  18.294  0.00  0.00    +0.000 OA
ENDBRANCH  16  18
ENDBRANCH  15  16
ENDBRANCH  14  15
ENDBRANCH  13  14
ENDBRANCH   1  13
TORSDOF 6
ENDMDL
MODEL 5
REMARK VINA RESULT:      -5.9      1.767      6.179
REMARK  Name = 
REMARK  8 active torsions:
REMARK  status: ('A' for Active; 'I' for Inactive)
REMARK    1  A    between atoms: C_1  and  O_2
REMARK    2  A    between atoms: O_2  and  C_3
REMARK    3  A    between atoms: C_3  and  C_4
REMARK    4  A    between atoms: C_4  and  C_5
REMARK    5  A    between atoms: C_5  and  O_6
REMARK    6  A    between atoms: O_6  and  C_7
REMARK    7  A    between atoms: C_10  and  C_12
REMARK    8  A    between atoms: C_16  and  C_17
REMARK                            x       y       z     vdW  Elec       q    Type
REMARK                         _______ _______ _______ _____ _____    ______ ____
ROOT
ATOM      1  C   UNL     1       6.250   5.660  18.514  0.00  0.00    +0.000 C 
ATOM      2  C   UNL     1       4.979   6.269  17.891  0.00  0.00    +0.000 C 
ATOM      3  N   UNL     1       4.239   5.292  18.665  0.00  0.00    +0.000 N 
ATOM      4  C   UNL     1       2.954   5.371  19.141  0.00  0.00    +0.000 C 
ATOM      5  O   UNL     1       2.253   6.350  18.883  0.00  0.00    +0.000 OA
ATOM      6  C   UNL     1       5.388   4.430  18.859  0.00  0.00    +0.000 C 
ENDROOT
BRANCH   4   7
ATOM      7  C   UNL     1       2.472   4.273  19.965  0.00  0.00    +0.000 A 
ATOM      8  C   UNL     1       2.325   4.158  21.377  0.00  0.00    +0.000 A 
ATOM      9  C   UNL     1       1.807   2.912  21.626  0.00  0.00    +0.000 A 
ATOM     10  O   UNL     1       1.658   2.223  20.473  0.00  0.00    +0.000 OA
ATOM     11  C   UNL     1       2.077   3.035  19.463  0.00  0.00    +0.000 A 
ATOM     12  C   UNL     1       2.016   2.448  18.105  0.00  0.00    +0.000 C 
ENDBRANCH   4   7
BRANCH   1  13
ATOM     13  O   UNL     1       7.373   5.444  17.625  0.00  0.00    +0.000 OA
BRANCH  13  14
ATOM     14  C   UNL     1       7.186   4.365  16.708  0.00  0.00    +0.000 C 
BRANCH  14  15
ATOM     15  C   UNL     1       7.040   4.899  15.291  0.00  0.00    +0.000 C 
BRANCH  15  16
ATOM     16  C   UNL     1       6.035   4.063  14.511  0.00  0.00    +0.000 C 
BRANCH  16  18
ATOM     17  C   UNL     1       5.634   3.321  12.306  0.00  0.00    +0.000 C 
ATOM     18  O   UNL     1       6.617   3.681  13.267  0.00  0.00    +0.000 OA
ENDBRANCH  16  18
ENDBRANCH  15  16
ENDBRANCH  14  15
ENDBRANCH  13  14
ENDBRANCH   1  13
TORSDOF 6
ENDMDL
MODEL 6
REMARK VINA RESULT:      -5.9      1.816      2.175
REMARK  Name = 
REMARK  8 active torsions:
REMARK  status: ('A' for Active; 'I' for Inactive)
REMARK    1  A    between atoms: C_1  and  O_2
REMARK    2  A    between atoms: O_2  and  C_3
REMARK    3  A    between atoms: C_3  and  C_4
REMARK    4  A    between atoms: C_4  and  C_5
REMARK    5  A    between atoms: C_5  and  O_6
REMARK    6  A    between atoms: O_6  and  C_7
REMARK    7  A    between atoms: C_10  and  C_12
REMARK    8  A    between atoms: C_16  and  C_17
REMARK                            x       y       z     vdW  Elec       q    Type
REMARK                         _______ _______ _______ _____ _____    ______ ____
ROOT
ATOM      1  C   UNL     1       2.557   5.715  19.665  0.00  0.00    +0.000 C 
ATOM      2  C   UNL     1       3.668   4.800  20.217  0.00  0.00    +0.000 C 
ATOM      3  N   UNL     1       4.266   4.881  18.899  0.00  0.00    +0.000 N 
ATOM      4  C   UNL     1       5.587   4.759  18.550  0.00  0.00    +0.000 C 
ATOM      5  O   UNL     1       6.437   4.504  19.403  0.00  0.00    +0.000 OA
ATOM      6  C   UNL     1       3.037   5.305  18.259  0.00  0.00    +0.000 C 
ENDROOT
BRANCH   4   7
ATOM      7  C   UNL     1       5.935   4.961  17.151  0.00  0.00    +0.000 A 
ATOM      8  C   UNL     1       5.630   4.193  15.991  0.00  0.00    +0.000 A 
ATOM      9  C   UNL     1       6.188   4.843  14.920  0.00  0.00    +0.000 A 
ATOM     10  O   UNL     1       6.859   5.943  15.332  0.00  0.00    +0.000 OA
ATOM     11  C   UNL     1       6.725   6.009  16.686  0.00  0.00    +0.000 A 
ATOM     12  C   UNL     1       7.418   7.143  17.340  0.00  0.00    +0.000 C 
ENDBRANCH   4   7
BRANCH   1  13
ATOM     13  O   UNL     1       1.195   5.373  20.019  0.00  0.00    +0.000 OA
BRANCH  13  14
ATOM     14  C   UNL     1       1.045   4.046  20.526  0.00  0.00    +0.000 C 
BRANCH  14  15
ATOM     15  C   UNL     1       0.586   3.110  19.419  0.00  0.00    +0.000 C 
BRANCH  15  16
ATOM     16  C   UNL     1       1.537   1.927  19.298  0.00  0.00    +0.000 C 
BRANCH  16  18
ATOM     17  C   UNL     1       3.587   1.581  18.181  0.00  0.00    +0.000 C 
ATOM     18  O   UNL     1       2.243   2.025  18.063  0.00  0.00    +0.000 OA
ENDBRANCH  16  18
ENDBRANCH  15  16
ENDBRANCH  14  15
ENDBRANCH  13  14
ENDBRANCH   1  13
TORSDOF 6
ENDMDL
MODEL 7
REMARK VINA RESULT:      -5.9      1.764      6.409
REMARK  Name = 
REMARK  8 active torsions:
REMARK  status: ('A' for Active; 'I' for Inactive)
REMARK    1  A    between atoms: C_1  and  O_2
REMARK    2  A    between atoms: O_2  and  C_3
REMARK    3  A    between atoms: C_3  and  C_4
REMARK    4  A    between atoms: C_4  and  C_5
REMARK    5  A    between atoms: C_5  and  O_6
REMARK    6  A    between atoms: O_6  and  C_7
REMARK    7  A    between atoms: C_10  and  C_12
REMARK    8  A    between atoms: C_16  and  C_17
REMARK                            x       y       z     vdW  Elec       q    Type
REMARK                         _______ _______ _______ _____ _____    ______ ____
ROOT
ATOM      1  C   UNL     1       6.212   4.989  18.595  0.00  0.00    +0.000 C 
ATOM      2  C   UNL     1       5.138   6.069  18.356  0.00  0.00    +0.000 C 
ATOM      3  N   UNL     1       4.206   5.155  18.985  0.00  0.00    +0.000 N 
ATOM      4  C   UNL     1       3.054   5.446  19.672  0.00  0.00    +0.000 C 
ATOM      5  O   UNL     1       2.667   6.610  19.776  0.00  0.00    +0.000 OA
ATOM      6  C   UNL     1       5.048   3.995  18.773  0.00  0.00    +0.000 C 
ENDROOT
BRANCH   4   7
ATOM      7  C   UNL     1       2.333   4.336  20.277  0.00  0.00    +0.000 A 
ATOM      8  C   UNL     1       2.303   3.861  21.620  0.00  0.00    +0.000 A 
ATOM      9  C   UNL     1       1.441   2.793  21.648  0.00  0.00    +0.000 A 
ATOM     10  O   UNL     1       0.962   2.539  20.410  0.00  0.00    +0.000 OA
ATOM     11  C   UNL     1       1.513   3.459  19.571  0.00  0.00    +0.000 A 
ATOM     12  C   UNL     1       1.129   3.333  18.146  0.00  0.00    +0.000 C 
ENDBRANCH   4   7
BRANCH   1  13
ATOM     13  O   UNL     1       7.132   4.733  17.506  0.00  0.00    +0.000 OA
BRANCH  13  14
ATOM     14  C   UNL     1       6.741   5.325  16.266  0.00  0.00    +0.000 C 
BRANCH  14  15
ATOM     15  C   UNL     1       6.160   4.268  15.339  0.00  0.00    +0.000 C 
BRANCH  15  16
ATOM     16  C   UNL     1       6.767   4.393  13.949  0.00  0.00    +0.000 C 
BRANCH  16  18
ATOM     17  C   UNL     1       8.238   5.734  12.680  0.00  0.00    +0.000 C 
ATOM     18  O   UNL     1       7.808   5.366  13.983  0.00  0.00    +0.000 OA
ENDBRANCH  16  18
ENDBRANCH  15  16
ENDBRANCH  14  15
ENDBRANCH  13  14
ENDBRANCH   1  13
TORSDOF 6
ENDMDL
MODEL 8
REMARK VINA RESULT:      -5.8      2.875      6.808
REMARK  Name = 
REMARK  8 active torsions:
REMARK  status: ('A' for Active; 'I' for Inactive)
REMARK    1  A    between atoms: C_1  and  O_2
REMARK    2  A    between atoms: O_2  and  C_3
REMARK    3  A    between atoms: C_3  and  C_4
REMARK    4  A    between atoms: C_4  and  C_5
REMARK    5  A    between atoms: C_5  and  O_6
REMARK    6  A    between atoms: O_6  and  C_7
REMARK    7  A    between atoms: C_10  and  C_12
REMARK    8  A    between atoms: C_16  and  C_17
REMARK                            x       y       z     vdW  Elec       q    Type
REMARK                         _______ _______ _______ _____ _____    ______ ____
ROOT
ATOM      1  C   UNL     1       6.042   5.587  16.950  0.00  0.00    +0.000 C 
ATOM      2  C   UNL     1       6.581   4.822  18.176  0.00  0.00    +0.000 C 
ATOM      3  N   UNL     1       5.205   4.756  18.628  0.00  0.00    +0.000 N 
ATOM      4  C   UNL     1       4.613   3.816  19.432  0.00  0.00    +0.000 C 
ATOM      5  O   UNL     1       5.278   2.897  19.912  0.00  0.00    +0.000 OA
ATOM      6  C   UNL     1       4.772   5.850  17.782  0.00  0.00    +0.000 C 
ENDROOT
BRANCH   4   7
ATOM      7  C   UNL     1       3.184   3.940  19.674  0.00  0.00    +0.000 A 
ATOM      8  C   UNL     1       2.462   4.678  20.656  0.00  0.00    +0.000 A 
ATOM      9  C   UNL     1       1.128   4.459  20.423  0.00  0.00    +0.000 A 
ATOM     10  O   UNL     1       0.963   3.603  19.390  0.00  0.00    +0.000 OA
ATOM     11  C   UNL     1       2.206   3.270  18.943  0.00  0.00    +0.000 A 
ATOM     12  C   UNL     1       2.242   2.310  17.816  0.00  0.00    +0.000 C 
ENDBRANCH   4   7
BRANCH   1  13
ATOM     13  O   UNL     1       6.797   6.746  16.522  0.00  0.00    +0.000 OA
BRANCH  13  14
ATOM     14  C   UNL     1       7.716   7.233  17.502  0.00  0.00    +0.000 C 
BRANCH  14  15
ATOM     15  C   UNL     1       7.653   8.751  17.572  0.00  0.00    +0.000 C 
BRANCH  15  16
ATOM     16  C   UNL     1       8.733   9.283  18.504  0.00  0.00    +0.000 C 
BRANCH  16  18
ATOM     17  C   UNL     1      10.018  11.210  18.961  0.00  0.00    +0.000 C 
ATOM     18  O   UNL     1       8.884  10.684  18.285  0.00  0.00    +0.000 OA
ENDBRANCH  16  18
ENDBRANCH  15  16
ENDBRANCH  14  15
ENDBRANCH  13  14
ENDBRANCH   1  13
TORSDOF 6
ENDMDL
MODEL 9
REMARK VINA RESULT:      -5.8      2.329      6.391
REMARK  Name = 
REMARK  8 active torsions:
REMARK  status: ('A' for Active; 'I' for Inactive)
REMARK    1  A    between atoms: C_1  and  O_2
REMARK    2  A    between atoms: O_2  and  C_3
REMARK    3  A    between atoms: C_3  and  C_4
REMARK    4  A    between atoms: C_4  and  C_5
REMARK    5  A    between atoms: C_5  and  O_6
REMARK    6  A    between atoms: O_6  and  C_7
REMARK    7  A    between atoms: C_10  and  C_12
REMARK    8  A    between atoms: C_16  and  C_17
REMARK                            x       y       z     vdW  Elec       q    Type
REMARK                         _______ _______ _______ _____ _____    ______ ____
ROOT
ATOM      1  C   UNL     1       7.238   4.382  16.081  0.00  0.00    +0.000 C 
ATOM      2  C   UNL     1       7.122   5.472  17.165  0.00  0.00    +0.000 C 
ATOM      3  N   UNL     1       5.919   4.789  17.597  0.00  0.00    +0.000 N 
ATOM      4  C   UNL     1       5.354   4.758  18.847  0.00  0.00    +0.000 C 
ATOM      5  O   UNL     1       5.848   5.404  19.771  0.00  0.00    +0.000 OA
ATOM      6  C   UNL     1       5.748   4.088  16.340  0.00  0.00    +0.000 C 
ENDROOT
BRANCH   4   7
ATOM      7  C   UNL     1       4.174   3.926  19.032  0.00  0.00    +0.000 A 
ATOM      8  C   UNL     1       4.038   2.586  19.494  0.00  0.00    +0.000 A 
ATOM      9  C   UNL     1       2.696   2.295  19.494  0.00  0.00    +0.000 A 
ATOM     10  O   UNL     1       1.986   3.345  19.023  0.00  0.00    +0.000 OA
ATOM     11  C   UNL     1       2.877   4.330  18.724  0.00  0.00    +0.000 A 
ATOM     12  C   UNL     1       2.292   5.570  18.164  0.00  0.00    +0.000 C 
ENDBRANCH   4   7
BRANCH   1  13
ATOM     13  O   UNL     1       7.598   4.823  14.750  0.00  0.00    +0.000 OA
BRANCH  13  14
ATOM     14  C   UNL     1       6.527   4.751  13.807  0.00  0.00    +0.000 C 
BRANCH  14  15
ATOM     15  C   UNL     1       6.999   4.079  12.527  0.00  0.00    +0.000 C 
BRANCH  15  16
ATOM     16  C   UNL     1       6.017   2.996  12.104  0.00  0.00    +0.000 C 
BRANCH  16  18
ATOM     17  C   UNL     1       3.913   3.159  11.046  0.00  0.00    +0.000 C 
ATOM     18  O   UNL     1       4.692   3.517  12.179  0.00  0.00    +0.000 OA
ENDBRANCH  16  18
ENDBRANCH  15  16
ENDBRANCH  14  15
ENDBRANCH  13  14
ENDBRANCH   1  13
TORSDOF 6
ENDMDL
