MODEL 1
REMARK VINA RESULT:      -7.6      0.000      0.000
REMARK  Name = 
REMARK  3 active torsions:
REMARK  status: ('A' for Active; 'I' for Inactive)
REMARK    1  A    between atoms: C_1  and  C_2
REMARK    2  A    between atoms: C_2  and  C_4
REMARK    3  A    between atoms: C_8  and  C_9
REMARK                            x       y       z     vdW  Elec       q    Type
REMARK                         _______ _______ _______ _____ _____    ______ ____
ROOT
ATOM      1  C   UNL     1       5.603   4.901  15.645  0.00  0.00    +0.000 A 
ATOM      2  C   UNL     1       4.847   3.846  16.117  0.00  0.00    +0.000 A 
ATOM      3  C   UNL     1       3.914   4.223  17.137  0.00  0.00    +0.000 A 
ATOM      4  C   UNL     1       3.006   3.439  17.888  0.00  0.00    +0.000 A 
ATOM      5  C   UNL     1       2.179   4.026  18.862  0.00  0.00    +0.000 A 
ATOM      6  C   UNL     1       2.245   5.406  19.069  0.00  0.00    +0.000 A 
ATOM      7  C   UNL     1       3.131   6.204  18.338  0.00  0.00    +0.000 A 
ATOM      8  C   UNL     1       3.966   5.595  17.384  0.00  0.00    +0.000 A 
ATOM      9  S   UNL     1       5.146   6.362  16.398  0.00  0.00    +0.000 S 
ENDROOT
BRANCH   5  10
ATOM     10  C   UNL     1       1.238   3.178  19.684  0.00  0.00    +0.000 C 
ATOM     11  F   UNL     1       0.315   2.509  18.939  0.00  0.00    +0.000 F 
ATOM     12  F   UNL     1       1.894   2.227  20.405  0.00  0.00    +0.000 F 
ATOM     13  F   UNL     1       0.531   3.911  20.587  0.00  0.00    +0.000 F 
ENDBRANCH   5  10
BRANCH   1  15
ATOM     14  C   UNL     1       6.447   3.955  13.425  0.00  0.00    +0.000 C 
ATOM     15  C   UNL     1       6.658   4.827  14.641  0.00  0.00    +0.000 C 
ATOM     16  O   UNL     1       7.704   5.469  14.746  0.00  0.00    +0.000 OA
ENDBRANCH   1  15
TORSDOF 2
ENDMDL
MODEL 2
REMARK VINA RESULT:      -7.4      0.779      1.240
REMARK  Name = 
REMARK  3 active torsions:
REMARK  status: ('A' for Active; 'I' for Inactive)
REMARK    1  A    between atoms: C_1  and  C_2
REMARK    2  A    between atoms: C_2  and  C_4
REMARK    3  A    between atoms: C_8  and  C_9
REMARK                            x       y       z     vdW  Elec       q    Type
REMARK                         _______ _______ _______ _____ _____    ______ ____
ROOT
ATOM      1  C   UNL     1       5.822   4.739  15.953  0.00  0.00    +0.000 A 
ATOM      2  C   UNL     1       4.659   4.005  16.080  0.00  0.00    +0.000 A 
ATOM      3  C   UNL     1       4.015   4.171  17.349  0.00  0.00    +0.000 A 
ATOM      4  C   UNL     1       2.847   3.569  17.873  0.00  0.00    +0.000 A 
ATOM      5  C   UNL     1       2.395   3.875  19.170  0.00  0.00    +0.000 A 
ATOM      6  C   UNL     1       3.105   4.803  19.936  0.00  0.00    +0.000 A 
ATOM      7  C   UNL     1       4.261   5.415  19.441  0.00  0.00    +0.000 A 
ATOM      8  C   UNL     1       4.708   5.079  18.151  0.00  0.00    +0.000 A 
ATOM      9  S   UNL     1       6.109   5.673  17.351  0.00  0.00    +0.000 S 
ENDROOT
BRANCH   5  10
ATOM     10  C   UNL     1       1.168   3.202  19.736  0.00  0.00    +0.000 C 
ATOM     11  F   UNL     1       1.449   2.253  20.672  0.00  0.00    +0.000 F 
ATOM     12  F   UNL     1       0.327   4.085  20.342  0.00  0.00    +0.000 F 
ATOM     13  F   UNL     1       0.428   2.577  18.779  0.00  0.00    +0.000 F 
ENDBRANCH   5  10
BRANCH   1  15
ATOM     14  C   UNL     1       6.348   3.927  13.586  0.00  0.00    +0.000 C 
ATOM     15  C   UNL     1       6.715   4.748  14.800  0.00  0.00    +0.000 C 
ATOM     16  O   UNL     1       7.748   5.421  14.782  0.00  0.00    +0.000 OA
ENDBRANCH   1  15
TORSDOF 2
ENDMDL
MODEL 3
REMARK VINA RESULT:      -7.3      0.659      1.220
REMARK  Name = 
REMARK  3 active torsions:
REMARK  status: ('A' for Active; 'I' for Inactive)
REMARK    1  A    between atoms: C_1  and  C_2
REMARK    2  A    between atoms: C_2  and  C_4
REMARK    3  A    between atoms: C_8  and  C_9
REMARK                            x       y       z     vdW  Elec       q    Type
REMARK                         _______ _______ _______ _____ _____    ______ ____
ROOT
ATOM      1  C   UNL     1       5.609   4.957  15.789  0.00  0.00    +0.000 A 
ATOM      2  C   UNL     1       4.931   3.965  16.471  0.00  0.00    +0.000 A 
ATOM      3  C   UNL     1       4.031   4.469  17.466  0.00  0.00    +0.000 A 
ATOM      4  C   UNL     1       3.202   3.786  18.386  0.00  0.00    +0.000 A 
ATOM      5  C   UNL     1       2.395   4.493  19.295  0.00  0.00    +0.000 A 
ATOM      6  C   UNL     1       2.401   5.890  19.267  0.00  0.00    +0.000 A 
ATOM      7  C   UNL     1       3.209   6.590  18.365  0.00  0.00    +0.000 A 
ATOM      8  C   UNL     1       4.025   5.864  17.479  0.00  0.00    +0.000 A 
ATOM      9  S   UNL     1       5.116   6.503  16.313  0.00  0.00    +0.000 S 
ENDROOT
BRANCH   5  10
ATOM     10  C   UNL     1       1.540   3.757  20.299  0.00  0.00    +0.000 C 
ATOM     11  F   UNL     1       2.139   3.597  21.512  0.00  0.00    +0.000 F 
ATOM     12  F   UNL     1       0.364   4.399  20.547  0.00  0.00    +0.000 F 
ATOM     13  F   UNL     1       1.203   2.507  19.880  0.00  0.00    +0.000 F 
ENDBRANCH   5  10
BRANCH   1  15
ATOM     14  C   UNL     1       6.273   3.897  13.559  0.00  0.00    +0.000 C 
ATOM     15  C   UNL     1       6.615   4.759  14.753  0.00  0.00    +0.000 C 
ATOM     16  O   UNL     1       7.726   5.289  14.813  0.00  0.00    +0.000 OA
ENDBRANCH   1  15
TORSDOF 2
ENDMDL
MODEL 4
REMARK VINA RESULT:      -7.1      1.694      2.532
REMARK  Name = 
REMARK  3 active torsions:
REMARK  status: ('A' for Active; 'I' for Inactive)
REMARK    1  A    between atoms: C_1  and  C_2
REMARK    2  A    between atoms: C_2  and  C_4
REMARK    3  A    between atoms: C_8  and  C_9
REMARK                            x       y       z     vdW  Elec       q    Type
REMARK                         _______ _______ _______ _____ _____    ______ ____
ROOT
ATOM      1  C   UNL     1       5.971   5.424  17.129  0.00  0.00    +0.000 A 
ATOM      2  C   UNL     1       5.209   5.610  18.267  0.00  0.00    +0.000 A 
ATOM      3  C   UNL     1       4.127   4.678  18.388  0.00  0.00    +0.000 A 
ATOM      4  C   UNL     1       3.114   4.568  19.370  0.00  0.00    +0.000 A 
ATOM      5  C   UNL     1       2.129   3.568  19.283  0.00  0.00    +0.000 A 
ATOM      6  C   UNL     1       2.171   2.662  18.220  0.00  0.00    +0.000 A 
ATOM      7  C   UNL     1       3.163   2.747  17.238  0.00  0.00    +0.000 A 
ATOM      8  C   UNL     1       4.126   3.767  17.331  0.00  0.00    +0.000 A 
ATOM      9  S   UNL     1       5.410   4.085  16.232  0.00  0.00    +0.000 S 
ENDROOT
BRANCH   5  10
ATOM     10  C   UNL     1       1.031   3.478  20.315  0.00  0.00    +0.000 C 
ATOM     11  F   UNL     1       1.415   2.860  21.467  0.00  0.00    +0.000 F 
ATOM     12  F   UNL     1       0.568   4.704  20.687  0.00  0.00    +0.000 F 
ATOM     13  F   UNL     1      -0.053   2.790  19.864  0.00  0.00    +0.000 F 
ENDBRANCH   5  10
BRANCH   1  15
ATOM     14  C   UNL     1       7.601   7.328  17.628  0.00  0.00    +0.000 C 
ATOM     15  C   UNL     1       7.109   6.233  16.711  0.00  0.00    +0.000 C 
ATOM     16  O   UNL     1       7.691   6.036  15.643  0.00  0.00    +0.000 OA
ENDBRANCH   1  15
TORSDOF 2
ENDMDL
MODEL 5
REMARK VINA RESULT:      -6.9      1.964      2.746
REMARK  Name = 
REMARK  3 active torsions:
REMARK  status: ('A' for Active; 'I' for Inactive)
REMARK    1  A    between atoms: C_1  and  C_2
REMARK    2  A    between atoms: C_2  and  C_4
REMARK    3  A    between atoms: C_8  and  C_9
REMARK                            x       y       z     vdW  Elec       q    Type
REMARK                         _______ _______ _______ _____ _____    ______ ____
ROOT
ATOM      1  C   UNL     1       6.016   5.223  17.272  0.00  0.00    +0.000 A 
ATOM      2  C   UNL     1       5.539   5.276  18.567  0.00  0.00    +0.000 A 
ATOM      3  C   UNL     1       4.476   4.348  18.822  0.00  0.00    +0.000 A 
ATOM      4  C   UNL     1       3.708   4.128  19.990  0.00  0.00    +0.000 A 
ATOM      5  C   UNL     1       2.691   3.157  20.014  0.00  0.00    +0.000 A 
ATOM      6  C   UNL     1       2.458   2.388  18.871  0.00  0.00    +0.000 A 
ATOM      7  C   UNL     1       3.205   2.583  17.705  0.00  0.00    +0.000 A 
ATOM      8  C   UNL     1       4.202   3.574  17.694  0.00  0.00    +0.000 A 
ATOM      9  S   UNL     1       5.217   4.011  16.376  0.00  0.00    +0.000 S 
ENDROOT
BRANCH   5  10
ATOM     10  C   UNL     1       1.852   2.952  21.252  0.00  0.00    +0.000 C 
ATOM     11  F   UNL     1       2.118   3.846  22.245  0.00  0.00    +0.000 F 
ATOM     12  F   UNL     1       0.519   3.065  20.998  0.00  0.00    +0.000 F 
ATOM     13  F   UNL     1       2.025   1.719  21.801  0.00  0.00    +0.000 F 
ENDBRANCH   5  10
BRANCH   1  15
ATOM     14  C   UNL     1       7.542   7.263  17.489  0.00  0.00    +0.000 C 
ATOM     15  C   UNL     1       7.061   6.066  16.702  0.00  0.00    +0.000 C 
ATOM     16  O   UNL     1       7.574   5.818  15.610  0.00  0.00    +0.000 OA
ENDBRANCH   1  15
TORSDOF 2
ENDMDL
MODEL 6
REMARK VINA RESULT:      -6.9      1.726      2.331
REMARK  Name = 
REMARK  3 active torsions:
REMARK  status: ('A' for Active; 'I' for Inactive)
REMARK    1  A    between atoms: C_1  and  C_2
REMARK    2  A    between atoms: C_2  and  C_4
REMARK    3  A    between atoms: C_8  and  C_9
REMARK                            x       y       z     vdW  Elec       q    Type
REMARK                         _______ _______ _______ _____ _____    ______ ____
ROOT
ATOM      1  C   UNL     1       5.984   5.490  17.107  0.00  0.00    +0.000 A 
ATOM      2  C   UNL     1       5.457   5.444  18.383  0.00  0.00    +0.000 A 
ATOM      3  C   UNL     1       4.294   4.613  18.490  0.00  0.00    +0.000 A 
ATOM      4  C   UNL     1       3.456   4.344  19.598  0.00  0.00    +0.000 A 
ATOM      5  C   UNL     1       2.344   3.491  19.472  0.00  0.00    +0.000 A 
ATOM      6  C   UNL     1       2.084   2.889  18.239  0.00  0.00    +0.000 A 
ATOM      7  C   UNL     1       2.900   3.135  17.129  0.00  0.00    +0.000 A 
ATOM      8  C   UNL     1       3.993   4.008  17.270  0.00  0.00    +0.000 A 
ATOM      9  S   UNL     1       5.105   4.482  16.047  0.00  0.00    +0.000 S 
ENDROOT
BRANCH   5  10
ATOM     10  C   UNL     1       1.433   3.237  20.649  0.00  0.00    +0.000 C 
ATOM     11  F   UNL     1       0.115   3.445  20.373  0.00  0.00    +0.000 F 
ATOM     12  F   UNL     1       1.520   1.956  21.104  0.00  0.00    +0.000 F 
ATOM     13  F   UNL     1       1.723   4.033  21.714  0.00  0.00    +0.000 F 
ENDBRANCH   5  10
BRANCH   1  15
ATOM     14  C   UNL     1       7.633   7.389  17.568  0.00  0.00    +0.000 C 
ATOM     15  C   UNL     1       7.134   6.275  16.676  0.00  0.00    +0.000 C 
ATOM     16  O   UNL     1       7.722   6.044  15.618  0.00  0.00    +0.000 OA
ENDBRANCH   1  15
TORSDOF 2
ENDMDL
MODEL 7
REMARK VINA RESULT:      -6.8      4.333      6.056
REMARK  Name = 
REMARK  3 active torsions:
REMARK  status: ('A' for Active; 'I' for Inactive)
REMARK    1  A    between atoms: C_1  and  C_2
REMARK    2  A    between atoms: C_2  and  C_4
REMARK    3  A    between atoms: C_8  and  C_9
REMARK                            x       y       z     vdW  Elec       q    Type
REMARK                         _______ _______ _______ _____ _____    ______ ____
ROOT
ATOM      1  C   UNL     1       3.085   3.723  19.821  0.00  0.00    +0.000 A 
ATOM      2  C   UNL     1       3.627   3.065  18.734  0.00  0.00    +0.000 A 
ATOM      3  C   UNL     1       4.203   3.947  17.762  0.00  0.00    +0.000 A 
ATOM      4  C   UNL     1       4.809   3.670  16.514  0.00  0.00    +0.000 A 
ATOM      5  C   UNL     1       5.304   4.708  15.705  0.00  0.00    +0.000 A 
ATOM      6  C   UNL     1       5.213   6.027  16.158  0.00  0.00    +0.000 A 
ATOM      7  C   UNL     1       4.622   6.328  17.389  0.00  0.00    +0.000 A 
ATOM      8  C   UNL     1       4.113   5.278  18.173  0.00  0.00    +0.000 A 
ATOM      9  S   UNL     1       3.321   5.408  19.694  0.00  0.00    +0.000 S 
ENDROOT
BRANCH   5  10
ATOM     10  C   UNL     1       5.917   4.409  14.358  0.00  0.00    +0.000 C 
ATOM     11  F   UNL     1       4.999   4.261  13.362  0.00  0.00    +0.000 F 
ATOM     12  F   UNL     1       6.761   5.393  13.942  0.00  0.00    +0.000 F 
ATOM     13  F   UNL     1       6.652   3.263  14.364  0.00  0.00    +0.000 F 
ENDBRANCH   5  10
BRANCH   1  15
ATOM     14  C   UNL     1       0.891   2.975  20.901  0.00  0.00    +0.000 C 
ATOM     15  C   UNL     1       2.396   3.106  20.948  0.00  0.00    +0.000 C 
ATOM     16  O   UNL     1       3.007   2.670  21.926  0.00  0.00    +0.000 OA
ENDBRANCH   1  15
TORSDOF 2
ENDMDL
MODEL 8
REMARK VINA RESULT:      -6.8      2.171      2.895
REMARK  Name = 
REMARK  3 active torsions:
REMARK  status: ('A' for Active; 'I' for Inactive)
REMARK    1  A    between atoms: C_1  and  C_2
REMARK    2  A    between atoms: C_2  and  C_4
REMARK    3  A    between atoms: C_8  and  C_9
REMARK                            x       y       z     vdW  Elec       q    Type
REMARK                         _______ _______ _______ _____ _____    ______ ____
ROOT
ATOM      1  C   UNL     1       6.315   5.789  18.251  0.00  0.00    +0.000 A 
ATOM      2  C   UNL     1       5.471   5.439  19.287  0.00  0.00    +0.000 A 
ATOM      3  C   UNL     1       4.330   4.682  18.863  0.00  0.00    +0.000 A 
ATOM      4  C   UNL     1       3.233   4.182  19.603  0.00  0.00    +0.000 A 
ATOM      5  C   UNL     1       2.203   3.463  18.971  0.00  0.00    +0.000 A 
ATOM      6  C   UNL     1       2.283   3.226  17.596  0.00  0.00    +0.000 A 
ATOM      7  C   UNL     1       3.358   3.706  16.842  0.00  0.00    +0.000 A 
ATOM      8  C   UNL     1       4.367   4.442  17.489  0.00  0.00    +0.000 A 
ATOM      9  S   UNL     1       5.756   5.154  16.769  0.00  0.00    +0.000 S 
ENDROOT
BRANCH   5  10
ATOM     10  C   UNL     1       1.017   2.963  19.760  0.00  0.00    +0.000 C 
ATOM     11  F   UNL     1       1.356   2.135  20.787  0.00  0.00    +0.000 F 
ATOM     12  F   UNL     1       0.302   3.977  20.321  0.00  0.00    +0.000 F 
ATOM     13  F   UNL     1       0.136   2.265  18.992  0.00  0.00    +0.000 F 
ENDBRANCH   5  10
BRANCH   1  15
ATOM     14  C   UNL     1       7.690   7.796  17.465  0.00  0.00    +0.000 C 
ATOM     15  C   UNL     1       7.530   6.588  18.359  0.00  0.00    +0.000 C 
ATOM     16  O   UNL     1       8.417   6.318  19.170  0.00  0.00    +0.000 OA
ENDBRANCH   1  15
TORSDOF 2
ENDMDL
MODEL 9
REMARK VINA RESULT:      -6.8      2.036      2.307
REMARK  Name = 
REMARK  3 active torsions:
REMARK  status: ('A' for Active; 'I' for Inactive)
REMARK    1  A    between atoms: C_1  and  C_2
REMARK    2  A    between atoms: C_2  and  C_4
REMARK    3  A    between atoms: C_8  and  C_9
REMARK                            x       y       z     vdW  Elec       q    Type
REMARK                         _______ _______ _______ _____ _____    ______ ____
ROOT
ATOM      1  C   UNL     1       5.995   6.217  17.550  0.00  0.00    +0.000 A 
ATOM      2  C   UNL     1       5.855   5.141  18.405  0.00  0.00    +0.000 A 
ATOM      3  C   UNL     1       4.492   4.850  18.738  0.00  0.00    +0.000 A 
ATOM      4  C   UNL     1       3.945   3.871  19.600  0.00  0.00    +0.000 A 
ATOM      5  C   UNL     1       2.555   3.769  19.789  0.00  0.00    +0.000 A 
ATOM      6  C   UNL     1       1.709   4.638  19.095  0.00  0.00    +0.000 A 
ATOM      7  C   UNL     1       2.223   5.612  18.234  0.00  0.00    +0.000 A 
ATOM      8  C   UNL     1       3.617   5.712  18.075  0.00  0.00    +0.000 A 
ATOM      9  S   UNL     1       4.473   6.843  17.104  0.00  0.00    +0.000 S 
ENDROOT
BRANCH   5  10
ATOM     10  C   UNL     1       1.980   2.745  20.738  0.00  0.00    +0.000 C 
ATOM     11  F   UNL     1       1.621   1.580  20.131  0.00  0.00    +0.000 F 
ATOM     12  F   UNL     1       2.858   2.398  21.719  0.00  0.00    +0.000 F 
ATOM     13  F   UNL     1       0.865   3.194  21.376  0.00  0.00    +0.000 F 
ENDBRANCH   5  10
BRANCH   1  15
ATOM     14  C   UNL     1       7.898   7.900  17.844  0.00  0.00    +0.000 C 
ATOM     15  C   UNL     1       7.251   6.777  17.066  0.00  0.00    +0.000 C 
ATOM     16  O   UNL     1       7.809   6.347  16.055  0.00  0.00    +0.000 OA
ENDBRANCH   1  15
TORSDOF 2
ENDMDL
