MODEL 1
REMARK VINA RESULT:      -8.1      0.000      0.000
REMARK  Name = 
REMARK  6 active torsions:
REMARK  status: ('A' for Active; 'I' for Inactive)
REMARK    1  A    between atoms: C_1  and  C_2
REMARK    2  A    between atoms: C_4  and  N_5
REMARK    3  A    between atoms: N_5  and  C_6
REMARK    4  A    between atoms: N_5  and  C_12
REMARK    5  A    between atoms: C_6  and  C_7
REMARK    6  A    between atoms: C_17  and  C_18
REMARK                            x       y       z     vdW  Elec       q    Type
REMARK                         _______ _______ _______ _____ _____    ______ ____
ROOT
ATOM      1  C   UNL     1       8.004   5.733  19.357  0.00  0.00    +0.000 C 
ATOM      2  C   UNL     1       7.163   5.229  18.214  0.00  0.00    +0.000 A 
ATOM      3  C   UNL     1       5.802   4.706  18.538  0.00  0.00    +0.000 A 
ATOM      4  C   UNL     1       5.034   4.258  17.520  0.00  0.00    +0.000 A 
ATOM      5  N   UNL     1       5.603   4.311  16.214  0.00  0.00    +0.000 N 
ATOM      6  N   UNL     1       5.087   3.936  15.007  0.00  0.00    +0.000 NA
ATOM      7  C   UNL     1       6.118   4.118  14.162  0.00  0.00    +0.000 A 
ATOM      8  N   UNL     1       7.227   4.686  14.745  0.00  0.00    +0.000 NA
ATOM      9  C   UNL     1       6.905   4.804  16.014  0.00  0.00    +0.000 A 
ATOM     10  N   UNL     1       7.675   5.275  17.022  0.00  0.00    +0.000 NA
ENDROOT
BRANCH   7  11
ATOM     11  C   UNL     1       6.129   3.676  12.716  0.00  0.00    +0.000 C 
ATOM     12  F   UNL     1       4.924   3.820  12.098  0.00  0.00    +0.000 F 
ATOM     13  F   UNL     1       7.029   4.370  11.964  0.00  0.00    +0.000 F 
ATOM     14  F   UNL     1       6.463   2.359  12.598  0.00  0.00    +0.000 F 
ENDBRANCH   7  11
BRANCH   4  15
ATOM     15  N   UNL     1       3.728   3.746  17.701  0.00  0.00    +0.000 N 
BRANCH  15  16
ATOM     16  C   UNL     1       3.596   2.741  18.797  0.00  0.00    +0.000 C 
ATOM     17  C   UNL     1       2.410   1.812  18.919  0.00  0.00    +0.000 C 
ATOM     18  C   UNL     1       3.749   1.267  18.540  0.00  0.00    +0.000 C 
ENDBRANCH  15  16
BRANCH  15  19
ATOM     19  C   UNL     1       2.520   4.577  17.488  0.00  0.00    +0.000 C 
BRANCH  19  20
ATOM     20  C   UNL     1       2.487   5.862  18.271  0.00  0.00    +0.000 A 
ATOM     21  C   UNL     1       2.571   7.169  17.827  0.00  0.00    +0.000 A 
ATOM     22  C   UNL     1       2.259   8.102  18.859  0.00  0.00    +0.000 A 
ATOM     23  C   UNL     1       2.012   7.478  20.062  0.00  0.00    +0.000 A 
ATOM     24  S   UNL     1       2.276   5.793  19.972  0.00  0.00    +0.000 S 
ENDBRANCH  19  20
ENDBRANCH  15  19
ENDBRANCH   4  15
TORSDOF 5
ENDMDL
MODEL 2
REMARK VINA RESULT:      -7.9      0.666      1.198
REMARK  Name = 
REMARK  6 active torsions:
REMARK  status: ('A' for Active; 'I' for Inactive)
REMARK    1  A    between atoms: C_1  and  C_2
REMARK    2  A    between atoms: C_4  and  N_5
REMARK    3  A    between atoms: N_5  and  C_6
REMARK    4  A    between atoms: N_5  and  C_12
REMARK    5  A    between atoms: C_6  and  C_7
REMARK    6  A    between atoms: C_17  and  C_18
REMARK                            x       y       z     vdW  Elec       q    Type
REMARK                         _______ _______ _______ _____ _____    ______ ____
ROOT
ATOM      1  C   UNL     1       7.991   5.716  19.411  0.00  0.00    +0.000 C 
ATOM      2  C   UNL     1       7.180   5.210  18.248  0.00  0.00    +0.000 A 
ATOM      3  C   UNL     1       5.830   4.641  18.543  0.00  0.00    +0.000 A 
ATOM      4  C   UNL     1       5.089   4.192  17.507  0.00  0.00    +0.000 A 
ATOM      5  N   UNL     1       5.672   4.286  16.209  0.00  0.00    +0.000 N 
ATOM      6  N   UNL     1       5.184   3.920  14.989  0.00  0.00    +0.000 NA
ATOM      7  C   UNL     1       6.220   4.148  14.161  0.00  0.00    +0.000 A 
ATOM      8  N   UNL     1       7.304   4.737  14.770  0.00  0.00    +0.000 NA
ATOM      9  C   UNL     1       6.963   4.820  16.037  0.00  0.00    +0.000 A 
ATOM     10  N   UNL     1       7.705   5.294  17.064  0.00  0.00    +0.000 NA
ENDROOT
BRANCH   7  11
ATOM     11  C   UNL     1       6.262   3.735  12.708  0.00  0.00    +0.000 C 
ATOM     12  F   UNL     1       7.122   4.480  11.959  0.00  0.00    +0.000 F 
ATOM     13  F   UNL     1       6.640   2.436  12.544  0.00  0.00    +0.000 F 
ATOM     14  F   UNL     1       5.039   3.857  12.117  0.00  0.00    +0.000 F 
ENDBRANCH   7  11
BRANCH   4  15
ATOM     15  N   UNL     1       3.796   3.639  17.660  0.00  0.00    +0.000 N 
BRANCH  15  16
ATOM     16  C   UNL     1       3.676   2.618  18.743  0.00  0.00    +0.000 C 
ATOM     17  C   UNL     1       2.513   1.659  18.841  0.00  0.00    +0.000 C 
ATOM     18  C   UNL     1       3.869   1.152  18.471  0.00  0.00    +0.000 C 
ENDBRANCH  15  16
BRANCH  15  19
ATOM     19  C   UNL     1       2.567   4.435  17.436  0.00  0.00    +0.000 C 
BRANCH  19  20
ATOM     20  C   UNL     1       2.226   5.400  18.540  0.00  0.00    +0.000 A 
ATOM     21  C   UNL     1       1.722   5.153  19.804  0.00  0.00    +0.000 A 
ATOM     22  C   UNL     1       1.765   6.315  20.629  0.00  0.00    +0.000 A 
ATOM     23  C   UNL     1       2.240   7.414  19.949  0.00  0.00    +0.000 A 
ATOM     24  S   UNL     1       2.511   7.075  18.298  0.00  0.00    +0.000 S 
ENDBRANCH  19  20
ENDBRANCH  15  19
ENDBRANCH   4  15
TORSDOF 5
ENDMDL
MODEL 3
REMARK VINA RESULT:      -7.9      0.860      1.332
REMARK  Name = 
REMARK  6 active torsions:
REMARK  status: ('A' for Active; 'I' for Inactive)
REMARK    1  A    between atoms: C_1  and  C_2
REMARK    2  A    between atoms: C_4  and  N_5
REMARK    3  A    between atoms: N_5  and  C_6
REMARK    4  A    between atoms: N_5  and  C_12
REMARK    5  A    between atoms: C_6  and  C_7
REMARK    6  A    between atoms: C_17  and  C_18
REMARK                            x       y       z     vdW  Elec       q    Type
REMARK                         _______ _______ _______ _____ _____    ______ ____
ROOT
ATOM      1  C   UNL     1       8.091   5.574  19.652  0.00  0.00    +0.000 C 
ATOM      2  C   UNL     1       7.199   5.268  18.477  0.00  0.00    +0.000 A 
ATOM      3  C   UNL     1       5.730   5.174  18.732  0.00  0.00    +0.000 A 
ATOM      4  C   UNL     1       4.919   4.908  17.686  0.00  0.00    +0.000 A 
ATOM      5  N   UNL     1       5.544   4.723  16.418  0.00  0.00    +0.000 N 
ATOM      6  N   UNL     1       5.004   4.444  15.196  0.00  0.00    +0.000 NA
ATOM      7  C   UNL     1       6.085   4.277  14.412  0.00  0.00    +0.000 A 
ATOM      8  N   UNL     1       7.279   4.537  15.043  0.00  0.00    +0.000 NA
ATOM      9  C   UNL     1       6.942   4.812  16.283  0.00  0.00    +0.000 A 
ATOM     10  N   UNL     1       7.762   5.099  17.320  0.00  0.00    +0.000 NA
ENDROOT
BRANCH   7  11
ATOM     11  C   UNL     1       6.041   3.771  12.989  0.00  0.00    +0.000 C 
ATOM     12  F   UNL     1       6.316   2.441  12.880  0.00  0.00    +0.000 F 
ATOM     13  F   UNL     1       4.825   3.959  12.404  0.00  0.00    +0.000 F 
ATOM     14  F   UNL     1       6.950   4.413  12.201  0.00  0.00    +0.000 F 
ENDBRANCH   7  11
BRANCH   4  15
ATOM     15  N   UNL     1       3.513   4.801  17.801  0.00  0.00    +0.000 N 
BRANCH  15  16
ATOM     16  C   UNL     1       2.944   3.504  17.328  0.00  0.00    +0.000 C 
ATOM     17  C   UNL     1       3.228   2.186  18.010  0.00  0.00    +0.000 C 
ATOM     18  C   UNL     1       1.864   2.790  18.094  0.00  0.00    +0.000 C 
ENDBRANCH  15  16
BRANCH  15  19
ATOM     19  C   UNL     1       2.765   5.421  18.919  0.00  0.00    +0.000 C 
BRANCH  19  20
ATOM     20  C   UNL     1       2.501   6.895  18.766  0.00  0.00    +0.000 A 
ATOM     21  C   UNL     1       2.727   7.724  17.682  0.00  0.00    +0.000 A 
ATOM     22  C   UNL     1       2.117   9.002  17.855  0.00  0.00    +0.000 A 
ATOM     23  C   UNL     1       1.505   9.120  19.083  0.00  0.00    +0.000 A 
ATOM     24  S   UNL     1       1.773   7.748  20.064  0.00  0.00    +0.000 S 
ENDBRANCH  19  20
ENDBRANCH  15  19
ENDBRANCH   4  15
TORSDOF 5
ENDMDL
MODEL 4
REMARK VINA RESULT:      -7.9      1.300      3.024
REMARK  Name = 
REMARK  6 active torsions:
REMARK  status: ('A' for Active; 'I' for Inactive)
REMARK    1  A    between atoms: C_1  and  C_2
REMARK    2  A    between atoms: C_4  and  N_5
REMARK    3  A    between atoms: N_5  and  C_6
REMARK    4  A    between atoms: N_5  and  C_12
REMARK    5  A    between atoms: C_6  and  C_7
REMARK    6  A    between atoms: C_17  and  C_18
REMARK                            x       y       z     vdW  Elec       q    Type
REMARK                         _______ _______ _______ _____ _____    ______ ____
ROOT
ATOM      1  C   UNL     1       8.274   5.608  19.841  0.00  0.00    +0.000 C 
ATOM      2  C   UNL     1       7.338   5.342  18.691  0.00  0.00    +0.000 A 
ATOM      3  C   UNL     1       5.872   5.346  18.980  0.00  0.00    +0.000 A 
ATOM      4  C   UNL     1       5.022   5.117  17.956  0.00  0.00    +0.000 A 
ATOM      5  N   UNL     1       5.604   4.874  16.678  0.00  0.00    +0.000 N 
ATOM      6  N   UNL     1       5.020   4.612  15.472  0.00  0.00    +0.000 NA
ATOM      7  C   UNL     1       6.070   4.365  14.668  0.00  0.00    +0.000 A 
ATOM      8  N   UNL     1       7.293   4.557  15.268  0.00  0.00    +0.000 NA
ATOM      9  C   UNL     1       7.002   4.871  16.511  0.00  0.00    +0.000 A 
ATOM     10  N   UNL     1       7.862   5.121  17.525  0.00  0.00    +0.000 NA
ENDROOT
BRANCH   7  11
ATOM     11  C   UNL     1       5.961   3.841  13.255  0.00  0.00    +0.000 C 
ATOM     12  F   UNL     1       6.315   2.531  13.135  0.00  0.00    +0.000 F 
ATOM     13  F   UNL     1       4.698   3.942  12.754  0.00  0.00    +0.000 F 
ATOM     14  F   UNL     1       6.769   4.534  12.401  0.00  0.00    +0.000 F 
ENDBRANCH   7  11
BRANCH   4  15
ATOM     15  N   UNL     1       3.615   5.102  18.104  0.00  0.00    +0.000 N 
BRANCH  15  16
ATOM     16  C   UNL     1       2.913   6.290  17.535  0.00  0.00    +0.000 C 
ATOM     17  C   UNL     1       2.343   7.395  18.394  0.00  0.00    +0.000 C 
ATOM     18  C   UNL     1       3.542   7.656  17.540  0.00  0.00    +0.000 C 
ENDBRANCH  15  16
BRANCH  15  19
ATOM     19  C   UNL     1       2.831   3.846  18.045  0.00  0.00    +0.000 C 
BRANCH  19  20
ATOM     20  C   UNL     1       2.501   3.240  19.382  0.00  0.00    +0.000 A 
ATOM     21  C   UNL     1       3.342   2.701  20.339  0.00  0.00    +0.000 A 
ATOM     22  C   UNL     1       2.660   2.452  21.566  0.00  0.00    +0.000 A 
ATOM     23  C   UNL     1       1.318   2.750  21.481  0.00  0.00    +0.000 A 
ATOM     24  S   UNL     1       0.865   3.207  19.899  0.00  0.00    +0.000 S 
ENDBRANCH  19  20
ENDBRANCH  15  19
ENDBRANCH   4  15
TORSDOF 5
ENDMDL
MODEL 5
REMARK VINA RESULT:      -7.8      0.634      1.080
REMARK  Name = 
REMARK  6 active torsions:
REMARK  status: ('A' for Active; 'I' for Inactive)
REMARK    1  A    between atoms: C_1  and  C_2
REMARK    2  A    between atoms: C_4  and  N_5
REMARK    3  A    between atoms: N_5  and  C_6
REMARK    4  A    between atoms: N_5  and  C_12
REMARK    5  A    between atoms: C_6  and  C_7
REMARK    6  A    between atoms: C_17  and  C_18
REMARK                            x       y       z     vdW  Elec       q    Type
REMARK                         _______ _______ _______ _____ _____    ______ ____
ROOT
ATOM      1  C   UNL     1       7.836   6.675  18.611  0.00  0.00    +0.000 C 
ATOM      2  C   UNL     1       7.080   5.895  17.568  0.00  0.00    +0.000 A 
ATOM      3  C   UNL     1       5.875   5.133  18.015  0.00  0.00    +0.000 A 
ATOM      4  C   UNL     1       5.183   4.437  17.087  0.00  0.00    +0.000 A 
ATOM      5  N   UNL     1       5.677   4.478  15.750  0.00  0.00    +0.000 N 
ATOM      6  N   UNL     1       5.209   3.887  14.613  0.00  0.00    +0.000 NA
ATOM      7  C   UNL     1       6.144   4.197  13.696  0.00  0.00    +0.000 A 
ATOM      8  N   UNL     1       7.126   5.039  14.162  0.00  0.00    +0.000 NA
ATOM      9  C   UNL     1       6.835   5.211  15.433  0.00  0.00    +0.000 A 
ATOM     10  N   UNL     1       7.524   5.930  16.349  0.00  0.00    +0.000 NA
ENDROOT
BRANCH   7  11
ATOM     11  C   UNL     1       6.194   3.627  12.298  0.00  0.00    +0.000 C 
ATOM     12  F   UNL     1       6.604   2.328  12.258  0.00  0.00    +0.000 F 
ATOM     13  F   UNL     1       4.984   3.665  11.673  0.00  0.00    +0.000 F 
ATOM     14  F   UNL     1       7.058   4.323  11.504  0.00  0.00    +0.000 F 
ENDBRANCH   7  11
BRANCH   4  15
ATOM     15  N   UNL     1       4.025   3.682  17.387  0.00  0.00    +0.000 N 
BRANCH  15  16
ATOM     16  C   UNL     1       4.244   2.547  18.332  0.00  0.00    +0.000 C 
ATOM     17  C   UNL     1       4.094   2.686  19.829  0.00  0.00    +0.000 C 
ATOM     18  C   UNL     1       3.101   1.885  19.050  0.00  0.00    +0.000 C 
ENDBRANCH  15  16
BRANCH  15  19
ATOM     19  C   UNL     1       2.683   4.304  17.485  0.00  0.00    +0.000 C 
BRANCH  19  20
ATOM     20  C   UNL     1       2.656   5.653  18.151  0.00  0.00    +0.000 A 
ATOM     21  C   UNL     1       2.769   6.915  17.595  0.00  0.00    +0.000 A 
ATOM     22  C   UNL     1       2.452   7.939  18.534  0.00  0.00    +0.000 A 
ATOM     23  C   UNL     1       2.172   7.428  19.782  0.00  0.00    +0.000 A 
ATOM     24  S   UNL     1       2.412   5.738  19.847  0.00  0.00    +0.000 S 
ENDBRANCH  19  20
ENDBRANCH  15  19
ENDBRANCH   4  15
TORSDOF 5
ENDMDL
MODEL 6
REMARK VINA RESULT:      -7.7      1.433      2.914
REMARK  Name = 
REMARK  6 active torsions:
REMARK  status: ('A' for Active; 'I' for Inactive)
REMARK    1  A    between atoms: C_1  and  C_2
REMARK    2  A    between atoms: C_4  and  N_5
REMARK    3  A    between atoms: N_5  and  C_6
REMARK    4  A    between atoms: N_5  and  C_12
REMARK    5  A    between atoms: C_6  and  C_7
REMARK    6  A    between atoms: C_17  and  C_18
REMARK                            x       y       z     vdW  Elec       q    Type
REMARK                         _______ _______ _______ _____ _____    ______ ____
ROOT
ATOM      1  C   UNL     1       8.356   7.643  18.530  0.00  0.00    +0.000 C 
ATOM      2  C   UNL     1       7.441   6.790  17.691  0.00  0.00    +0.000 A 
ATOM      3  C   UNL     1       6.189   6.286  18.331  0.00  0.00    +0.000 A 
ATOM      4  C   UNL     1       5.356   5.527  17.587  0.00  0.00    +0.000 A 
ATOM      5  N   UNL     1       5.756   5.258  16.245  0.00  0.00    +0.000 N 
ATOM      6  N   UNL     1       5.141   4.533  15.265  0.00  0.00    +0.000 NA
ATOM      7  C   UNL     1       6.040   4.545  14.264  0.00  0.00    +0.000 A 
ATOM      8  N   UNL     1       7.146   5.324  14.514  0.00  0.00    +0.000 NA
ATOM      9  C   UNL     1       6.968   5.763  15.740  0.00  0.00    +0.000 A 
ATOM     10  N   UNL     1       7.800   6.542  16.469  0.00  0.00    +0.000 NA
ENDROOT
BRANCH   7  11
ATOM     11  C   UNL     1       5.924   3.726  12.999  0.00  0.00    +0.000 C 
ATOM     12  F   UNL     1       4.674   3.743  12.457  0.00  0.00    +0.000 F 
ATOM     13  F   UNL     1       6.770   4.153  12.020  0.00  0.00    +0.000 F 
ATOM     14  F   UNL     1       6.224   2.415  13.223  0.00  0.00    +0.000 F 
ENDBRANCH   7  11
BRANCH   4  15
ATOM     15  N   UNL     1       4.140   4.997  18.080  0.00  0.00    +0.000 N 
BRANCH  15  16
ATOM     16  C   UNL     1       2.937   5.841  17.814  0.00  0.00    +0.000 C 
ATOM     17  C   UNL     1       2.264   6.670  18.884  0.00  0.00    +0.000 C 
ATOM     18  C   UNL     1       3.017   7.343  17.782  0.00  0.00    +0.000 C 
ENDBRANCH  15  16
BRANCH  15  19
ATOM     19  C   UNL     1       3.868   3.541  18.105  0.00  0.00    +0.000 C 
BRANCH  19  20
ATOM     20  C   UNL     1       3.064   3.066  19.285  0.00  0.00    +0.000 A 
ATOM     21  C   UNL     1       3.453   2.867  20.597  0.00  0.00    +0.000 A 
ATOM     22  C   UNL     1       2.336   2.642  21.455  0.00  0.00    +0.000 A 
ATOM     23  C   UNL     1       1.148   2.615  20.759  0.00  0.00    +0.000 A 
ATOM     24  S   UNL     1       1.393   2.736  19.073  0.00  0.00    +0.000 S 
ENDBRANCH  19  20
ENDBRANCH  15  19
ENDBRANCH   4  15
TORSDOF 5
ENDMDL
MODEL 7
REMARK VINA RESULT:      -7.5      4.172      6.688
REMARK  Name = 
REMARK  6 active torsions:
REMARK  status: ('A' for Active; 'I' for Inactive)
REMARK    1  A    between atoms: C_1  and  C_2
REMARK    2  A    between atoms: C_4  and  N_5
REMARK    3  A    between atoms: N_5  and  C_6
REMARK    4  A    between atoms: N_5  and  C_12
REMARK    5  A    between atoms: C_6  and  C_7
REMARK    6  A    between atoms: C_17  and  C_18
REMARK                            x       y       z     vdW  Elec       q    Type
REMARK                         _______ _______ _______ _____ _____    ______ ____
ROOT
ATOM      1  C   UNL     1       2.407   9.113  17.737  0.00  0.00    +0.000 C 
ATOM      2  C   UNL     1       2.770   7.715  18.164  0.00  0.00    +0.000 A 
ATOM      3  C   UNL     1       3.891   7.042  17.441  0.00  0.00    +0.000 A 
ATOM      4  C   UNL     1       4.231   5.791  17.820  0.00  0.00    +0.000 A 
ATOM      5  N   UNL     1       3.473   5.211  18.880  0.00  0.00    +0.000 N 
ATOM      6  N   UNL     1       3.572   3.985  19.472  0.00  0.00    +0.000 NA
ATOM      7  C   UNL     1       2.529   3.969  20.322  0.00  0.00    +0.000 A 
ATOM      8  N   UNL     1       1.835   5.155  20.379  0.00  0.00    +0.000 NA
ATOM      9  C   UNL     1       2.420   5.920  19.485  0.00  0.00    +0.000 A 
ATOM     10  N   UNL     1       2.084   7.182  19.128  0.00  0.00    +0.000 NA
ENDROOT
BRANCH   7  11
ATOM     11  C   UNL     1       2.077   2.754  21.099  0.00  0.00    +0.000 C 
ATOM     12  F   UNL     1       1.055   3.015  21.962  0.00  0.00    +0.000 F 
ATOM     13  F   UNL     1       1.645   1.746  20.291  0.00  0.00    +0.000 F 
ATOM     14  F   UNL     1       3.089   2.236  21.853  0.00  0.00    +0.000 F 
ENDBRANCH   7  11
BRANCH   4  15
ATOM     15  N   UNL     1       5.277   5.054  17.216  0.00  0.00    +0.000 N 
BRANCH  15  16
ATOM     16  C   UNL     1       6.376   4.652  18.143  0.00  0.00    +0.000 C 
ATOM     17  C   UNL     1       7.727   5.329  18.155  0.00  0.00    +0.000 C 
ATOM     18  C   UNL     1       6.788   5.518  19.302  0.00  0.00    +0.000 C 
ENDBRANCH  15  16
BRANCH  15  19
ATOM     19  C   UNL     1       5.030   4.096  16.114  0.00  0.00    +0.000 C 
BRANCH  19  20
ATOM     20  C   UNL     1       5.816   4.356  14.858  0.00  0.00    +0.000 A 
ATOM     21  C   UNL     1       6.953   5.121  14.670  0.00  0.00    +0.000 A 
ATOM     22  C   UNL     1       7.525   4.915  13.380  0.00  0.00    +0.000 A 
ATOM     23  C   UNL     1       6.772   4.054  12.613  0.00  0.00    +0.000 A 
ATOM     24  S   UNL     1       5.326   3.598  13.398  0.00  0.00    +0.000 S 
ENDBRANCH  19  20
ENDBRANCH  15  19
ENDBRANCH   4  15
TORSDOF 5
ENDMDL
MODEL 8
REMARK VINA RESULT:      -7.5      1.383      2.994
REMARK  Name = 
REMARK  6 active torsions:
REMARK  status: ('A' for Active; 'I' for Inactive)
REMARK    1  A    between atoms: C_1  and  C_2
REMARK    2  A    between atoms: C_4  and  N_5
REMARK    3  A    between atoms: N_5  and  C_6
REMARK    4  A    between atoms: N_5  and  C_12
REMARK    5  A    between atoms: C_6  and  C_7
REMARK    6  A    between atoms: C_17  and  C_18
REMARK                            x       y       z     vdW  Elec       q    Type
REMARK                         _______ _______ _______ _____ _____    ______ ____
ROOT
ATOM      1  C   UNL     1       8.349   7.838  18.440  0.00  0.00    +0.000 C 
ATOM      2  C   UNL     1       7.443   6.961  17.616  0.00  0.00    +0.000 A 
ATOM      3  C   UNL     1       6.176   6.488  18.250  0.00  0.00    +0.000 A 
ATOM      4  C   UNL     1       5.352   5.708  17.518  0.00  0.00    +0.000 A 
ATOM      5  N   UNL     1       5.773   5.389  16.194  0.00  0.00    +0.000 N 
ATOM      6  N   UNL     1       5.172   4.634  15.230  0.00  0.00    +0.000 NA
ATOM      7  C   UNL     1       6.088   4.605  14.245  0.00  0.00    +0.000 A 
ATOM      8  N   UNL     1       7.194   5.386  14.487  0.00  0.00    +0.000 NA
ATOM      9  C   UNL     1       6.998   5.869  15.693  0.00  0.00    +0.000 A 
ATOM     10  N   UNL     1       7.822   6.668  16.409  0.00  0.00    +0.000 NA
ENDROOT
BRANCH   7  11
ATOM     11  C   UNL     1       5.989   3.743  13.008  0.00  0.00    +0.000 C 
ATOM     12  F   UNL     1       6.298   2.436  13.234  0.00  0.00    +0.000 F 
ATOM     13  F   UNL     1       4.740   3.751  12.463  0.00  0.00    +0.000 F 
ATOM     14  F   UNL     1       6.837   4.171  12.030  0.00  0.00    +0.000 F 
ENDBRANCH   7  11
BRANCH   4  15
ATOM     15  N   UNL     1       4.123   5.204  18.008  0.00  0.00    +0.000 N 
BRANCH  15  16
ATOM     16  C   UNL     1       2.953   6.111  17.815  0.00  0.00    +0.000 C 
ATOM     17  C   UNL     1       2.431   7.018  18.904  0.00  0.00    +0.000 C 
ATOM     18  C   UNL     1       3.119   7.602  17.713  0.00  0.00    +0.000 C 
ENDBRANCH  15  16
BRANCH  15  19
ATOM     19  C   UNL     1       3.789   3.761  17.959  0.00  0.00    +0.000 C 
BRANCH  19  20
ATOM     20  C   UNL     1       2.604   3.355  18.792  0.00  0.00    +0.000 A 
ATOM     21  C   UNL     1       1.363   2.892  18.396  0.00  0.00    +0.000 A 
ATOM     22  C   UNL     1       0.606   2.391  19.496  0.00  0.00    +0.000 A 
ATOM     23  C   UNL     1       1.269   2.548  20.692  0.00  0.00    +0.000 A 
ATOM     24  S   UNL     1       2.734   3.404  20.503  0.00  0.00    +0.000 S 
ENDBRANCH  19  20
ENDBRANCH  15  19
ENDBRANCH   4  15
TORSDOF 5
ENDMDL
MODEL 9
REMARK VINA RESULT:      -7.4      0.919      1.429
REMARK  Name = 
REMARK  6 active torsions:
REMARK  status: ('A' for Active; 'I' for Inactive)
REMARK    1  A    between atoms: C_1  and  C_2
REMARK    2  A    between atoms: C_4  and  N_5
REMARK    3  A    between atoms: N_5  and  C_6
REMARK    4  A    between atoms: N_5  and  C_12
REMARK    5  A    between atoms: C_6  and  C_7
REMARK    6  A    between atoms: C_17  and  C_18
REMARK                            x       y       z     vdW  Elec       q    Type
REMARK                         _______ _______ _______ _____ _____    ______ ____
ROOT
ATOM      1  C   UNL     1       8.193   5.695  19.740  0.00  0.00    +0.000 C 
ATOM      2  C   UNL     1       7.279   5.293  18.613  0.00  0.00    +0.000 A 
ATOM      3  C   UNL     1       5.857   4.985  18.954  0.00  0.00    +0.000 A 
ATOM      4  C   UNL     1       5.025   4.631  17.951  0.00  0.00    +0.000 A 
ATOM      5  N   UNL     1       5.585   4.569  16.642  0.00  0.00    +0.000 N 
ATOM      6  N   UNL     1       5.011   4.245  15.447  0.00  0.00    +0.000 NA
ATOM      7  C   UNL     1       6.051   4.253  14.593  0.00  0.00    +0.000 A 
ATOM      8  N   UNL     1       7.235   4.665  15.158  0.00  0.00    +0.000 NA
ATOM      9  C   UNL     1       6.944   4.859  16.425  0.00  0.00    +0.000 A 
ATOM     10  N   UNL     1       7.783   5.234  17.418  0.00  0.00    +0.000 NA
ENDROOT
BRANCH   7  11
ATOM     11  C   UNL     1       5.985   3.780  13.159  0.00  0.00    +0.000 C 
ATOM     12  F   UNL     1       6.851   4.433  12.335  0.00  0.00    +0.000 F 
ATOM     13  F   UNL     1       6.267   2.452  13.032  0.00  0.00    +0.000 F 
ATOM     14  F   UNL     1       4.742   3.961  12.628  0.00  0.00    +0.000 F 
ENDBRANCH   7  11
BRANCH   4  15
ATOM     15  N   UNL     1       3.658   4.322  18.149  0.00  0.00    +0.000 N 
BRANCH  15  16
ATOM     16  C   UNL     1       3.201   3.060  17.496  0.00  0.00    +0.000 C 
ATOM     17  C   UNL     1       3.458   1.692  18.085  0.00  0.00    +0.000 C 
ATOM     18  C   UNL     1       2.070   2.244  18.059  0.00  0.00    +0.000 C 
ENDBRANCH  15  16
BRANCH  15  19
ATOM     19  C   UNL     1       2.953   4.643  19.412  0.00  0.00    +0.000 C 
BRANCH  19  20
ATOM     20  C   UNL     1       2.396   6.038  19.492  0.00  0.00    +0.000 A 
ATOM     21  C   UNL     1       1.829   6.703  20.564  0.00  0.00    +0.000 A 
ATOM     22  C   UNL     1       1.647   8.091  20.293  0.00  0.00    +0.000 A 
ATOM     23  C   UNL     1       2.022   8.420  19.009  0.00  0.00    +0.000 A 
ATOM     24  S   UNL     1       2.471   7.044  18.103  0.00  0.00    +0.000 S 
ENDBRANCH  19  20
ENDBRANCH  15  19
ENDBRANCH   4  15
TORSDOF 5
ENDMDL
