MODEL 1
REMARK VINA RESULT:      -8.5      0.000      0.000
REMARK  Name = 
REMARK  13 active torsions:
REMARK  status: ('A' for Active; 'I' for Inactive)
REMARK    1  A    between atoms: C_1  and  C_2
REMARK    2  A    between atoms: N_4  and  C_5
REMARK    3  A    between atoms: C_5  and  C_6
REMARK    4  A    between atoms: C_5  and  C_7
REMARK    5  A    between atoms: C_7  and  C_8
REMARK    6  A    between atoms: C_11  and  C_12
REMARK    7  A    between atoms: C_13  and  C_14
REMARK    8  A    between atoms: C_17  and  C_18
REMARK    9  A    between atoms: N_20  and  C_21
REMARK   10  A    between atoms: N_20  and  C_22
REMARK   11  A    between atoms: C_22  and  C_23
REMARK   12  A    between atoms: C_25  and  C_26
REMARK   13  A    between atoms: C_28  and  C_29
REMARK                            x       y       z     vdW  Elec       q    Type
REMARK                         _______ _______ _______ _____ _____    ______ ____
ROOT
ATOM      1  C   UNL     1       7.829   7.976  18.130  0.00  0.00    +0.000 A 
ATOM      2  C   UNL     1       8.268   6.887  18.877  0.00  0.00    +0.000 A 
ATOM      3  C   UNL     1       7.490   5.722  18.918  0.00  0.00    +0.000 A 
ATOM      4  C   UNL     1       6.268   5.634  18.222  0.00  0.00    +0.000 A 
ATOM      5  C   UNL     1       5.816   6.759  17.529  0.00  0.00    +0.000 A 
ATOM      6  C   UNL     1       6.610   7.909  17.455  0.00  0.00    +0.000 A 
ENDROOT
BRANCH   4   7
ATOM      7  C   UNL     1       5.494   4.362  18.357  0.00  0.00    +0.000 C 
ATOM      8  O   UNL     1       5.552   3.812  19.461  0.00  0.00    +0.000 OA
ATOM      9  N   UNL     1       4.776   3.788  17.304  0.00  0.00    +0.000 N 
ATOM     10  C   UNL     1       4.670   4.267  15.934  0.00  0.00    +0.000 C 
BRANCH   9  11
ATOM     11  C   UNL     1       4.073   2.534  17.588  0.00  0.00    +0.000 C 
BRANCH  11  12
ATOM     12  C   UNL     1       2.946   2.716  18.547  0.00  0.00    +0.000 A 
ATOM     13  N   UNL     1       2.944   2.094  19.784  0.00  0.00    +0.000 NA
ATOM     14  C   UNL     1       1.915   2.631  20.408  0.00  0.00    +0.000 A 
ATOM     15  C   UNL     1       1.490   2.469  21.812  0.00  0.00    +0.000 C 
ATOM     16  O   UNL     1       1.203   3.528  19.662  0.00  0.00    +0.000 OA
ATOM     17  C   UNL     1       1.876   3.585  18.474  0.00  0.00    +0.000 A 
ATOM     18  C   UNL     1       1.397   4.558  17.476  0.00  0.00    +0.000 C 
ENDBRANCH  11  12
ENDBRANCH   9  11
ENDBRANCH   4   7
BRANCH   1  20
ATOM     19  C   UNL     1       9.212  10.215  18.025  0.00  0.00    +0.000 C 
ATOM     20  C   UNL     1       8.607   9.177  18.042  0.00  0.00    +0.000 C 
BRANCH  19  24
ATOM     21  C   UNL     1      11.171  13.970  18.120  0.00  0.00    +0.000 A 
ATOM     22  C   UNL     1       9.858  13.858  17.637  0.00  0.00    +0.000 A 
ATOM     23  C   UNL     1       9.216  12.620  17.593  0.00  0.00    +0.000 A 
ATOM     24  C   UNL     1       9.885  11.475  18.021  0.00  0.00    +0.000 A 
ATOM     25  C   UNL     1      11.206  11.566  18.471  0.00  0.00    +0.000 A 
ATOM     26  C   UNL     1      11.848  12.808  18.516  0.00  0.00    +0.000 A 
BRANCH  21  27
ATOM     27  C   UNL     1      11.835  15.326  18.227  0.00  0.00    +0.000 C 
BRANCH  27  28
ATOM     28  C   UNL     1      10.843  16.500  18.092  0.00  0.00    +0.000 C 
ATOM     29  C   UNL     1      11.518  17.707  17.442  0.00  0.00    +0.000 C 
BRANCH  28  33
ATOM     30  C   UNL     1       8.533  17.440  20.954  0.00  0.00    +0.000 C 
ATOM     31  C   UNL     1       8.916  17.023  19.561  0.00  0.00    +0.000 C 
ATOM     32  O   UNL     1       8.085  16.824  18.682  0.00  0.00    +0.000 OA
ATOM     33  N   UNL     1      10.274  16.883  19.383  0.00  0.00    +0.000 N 
ATOM     34  H   UNL     1      10.898  17.123  20.142  0.00  0.00    +0.000 HD
ENDBRANCH  28  33
ENDBRANCH  27  28
ENDBRANCH  21  27
ENDBRANCH  19  24
ENDBRANCH   1  20
TORSDOF 8
ENDMDL
MODEL 2
REMARK VINA RESULT:      -8.0      8.415     12.022
REMARK  Name = 
REMARK  13 active torsions:
REMARK  status: ('A' for Active; 'I' for Inactive)
REMARK    1  A    between atoms: C_1  and  C_2
REMARK    2  A    between atoms: N_4  and  C_5
REMARK    3  A    between atoms: C_5  and  C_6
REMARK    4  A    between atoms: C_5  and  C_7
REMARK    5  A    between atoms: C_7  and  C_8
REMARK    6  A    between atoms: C_11  and  C_12
REMARK    7  A    between atoms: C_13  and  C_14
REMARK    8  A    between atoms: C_17  and  C_18
REMARK    9  A    between atoms: N_20  and  C_21
REMARK   10  A    between atoms: N_20  and  C_22
REMARK   11  A    between atoms: C_22  and  C_23
REMARK   12  A    between atoms: C_25  and  C_26
REMARK   13  A    between atoms: C_28  and  C_29
REMARK                            x       y       z     vdW  Elec       q    Type
REMARK                         _______ _______ _______ _____ _____    ______ ____
ROOT
ATOM      1  C   UNL     1       0.147   9.578  21.339  0.00  0.00    +0.000 A 
ATOM      2  C   UNL     1      -0.416  10.661  20.671  0.00  0.00    +0.000 A 
ATOM      3  C   UNL     1      -1.258  11.537  21.368  0.00  0.00    +0.000 A 
ATOM      4  C   UNL     1      -1.551  11.341  22.732  0.00  0.00    +0.000 A 
ATOM      5  C   UNL     1      -1.025  10.214  23.367  0.00  0.00    +0.000 A 
ATOM      6  C   UNL     1      -0.154   9.359  22.684  0.00  0.00    +0.000 A 
ENDROOT
BRANCH   4   7
ATOM      7  C   UNL     1      -2.488  12.310  23.377  0.00  0.00    +0.000 C 
ATOM      8  O   UNL     1      -3.584  11.855  23.715  0.00  0.00    +0.000 OA
ATOM      9  N   UNL     1      -2.182  13.662  23.561  0.00  0.00    +0.000 N 
ATOM     10  C   UNL     1      -0.974  14.365  23.156  0.00  0.00    +0.000 C 
BRANCH   9  11
ATOM     11  C   UNL     1      -3.206  14.491  24.203  0.00  0.00    +0.000 C 
BRANCH  11  12
ATOM     12  C   UNL     1      -3.843  15.449  23.255  0.00  0.00    +0.000 A 
ATOM     13  N   UNL     1      -3.532  16.797  23.275  0.00  0.00    +0.000 NA
ATOM     14  C   UNL     1      -4.125  17.276  22.199  0.00  0.00    +0.000 A 
ATOM     15  C   UNL     1      -4.038  18.628  21.613  0.00  0.00    +0.000 C 
ATOM     16  O   UNL     1      -4.846  16.357  21.491  0.00  0.00    +0.000 OA
ATOM     17  C   UNL     1      -4.653  15.186  22.169  0.00  0.00    +0.000 A 
ATOM     18  C   UNL     1      -5.237  13.966  21.583  0.00  0.00    +0.000 C 
ENDBRANCH  11  12
ENDBRANCH   9  11
ENDBRANCH   4   7
BRANCH   1  20
ATOM     19  C   UNL     1       1.731   7.920  20.042  0.00  0.00    +0.000 C 
ATOM     20  C   UNL     1       1.033   8.671  20.668  0.00  0.00    +0.000 C 
BRANCH  19  24
ATOM     21  C   UNL     1       4.155   5.286  17.777  0.00  0.00    +0.000 A 
ATOM     22  C   UNL     1       3.711   6.500  17.231  0.00  0.00    +0.000 A 
ATOM     23  C   UNL     1       2.901   7.363  17.972  0.00  0.00    +0.000 A 
ATOM     24  C   UNL     1       2.516   7.015  19.265  0.00  0.00    +0.000 A 
ATOM     25  C   UNL     1       2.921   5.792  19.808  0.00  0.00    +0.000 A 
ATOM     26  C   UNL     1       3.734   4.929  19.066  0.00  0.00    +0.000 A 
BRANCH  21  27
ATOM     27  C   UNL     1       5.086   4.388  16.991  0.00  0.00    +0.000 C 
BRANCH  27  28
ATOM     28  C   UNL     1       6.292   5.141  16.391  0.00  0.00    +0.000 C 
ATOM     29  C   UNL     1       7.062   4.244  15.422  0.00  0.00    +0.000 C 
BRANCH  28  33
ATOM     30  C   UNL     1       8.384   7.300  18.708  0.00  0.00    +0.000 C 
ATOM     31  C   UNL     1       7.414   6.990  17.603  0.00  0.00    +0.000 C 
ATOM     32  O   UNL     1       6.874   7.866  16.936  0.00  0.00    +0.000 OA
ATOM     33  N   UNL     1       7.191   5.642  17.429  0.00  0.00    +0.000 N 
ATOM     34  H   UNL     1       7.721   4.980  17.981  0.00  0.00    +0.000 HD
ENDBRANCH  28  33
ENDBRANCH  27  28
ENDBRANCH  21  27
ENDBRANCH  19  24
ENDBRANCH   1  20
TORSDOF 8
ENDMDL
MODEL 3
REMARK VINA RESULT:      -7.9      1.103      1.572
REMARK  Name = 
REMARK  13 active torsions:
REMARK  status: ('A' for Active; 'I' for Inactive)
REMARK    1  A    between atoms: C_1  and  C_2
REMARK    2  A    between atoms: N_4  and  C_5
REMARK    3  A    between atoms: C_5  and  C_6
REMARK    4  A    between atoms: C_5  and  C_7
REMARK    5  A    between atoms: C_7  and  C_8
REMARK    6  A    between atoms: C_11  and  C_12
REMARK    7  A    between atoms: C_13  and  C_14
REMARK    8  A    between atoms: C_17  and  C_18
REMARK    9  A    between atoms: N_20  and  C_21
REMARK   10  A    between atoms: N_20  and  C_22
REMARK   11  A    between atoms: C_22  and  C_23
REMARK   12  A    between atoms: C_25  and  C_26
REMARK   13  A    between atoms: C_28  and  C_29
REMARK                            x       y       z     vdW  Elec       q    Type
REMARK                         _______ _______ _______ _____ _____    ______ ____
ROOT
ATOM      1  C   UNL     1       7.892   8.082  18.239  0.00  0.00    +0.000 A 
ATOM      2  C   UNL     1       6.652   7.978  17.616  0.00  0.00    +0.000 A 
ATOM      3  C   UNL     1       5.938   6.775  17.702  0.00  0.00    +0.000 A 
ATOM      4  C   UNL     1       6.452   5.667  18.403  0.00  0.00    +0.000 A 
ATOM      5  C   UNL     1       7.724   5.772  18.969  0.00  0.00    +0.000 A 
ATOM      6  C   UNL     1       8.423   6.984  18.917  0.00  0.00    +0.000 A 
ENDROOT
BRANCH   4   7
ATOM      7  C   UNL     1       5.631   4.418  18.407  0.00  0.00    +0.000 C 
ATOM      8  O   UNL     1       5.713   3.723  19.424  0.00  0.00    +0.000 OA
ATOM      9  N   UNL     1       4.841   4.019  17.325  0.00  0.00    +0.000 N 
ATOM     10  C   UNL     1       4.695   4.682  16.037  0.00  0.00    +0.000 C 
BRANCH   9  11
ATOM     11  C   UNL     1       4.097   2.766  17.475  0.00  0.00    +0.000 C 
BRANCH  11  12
ATOM     12  C   UNL     1       2.956   2.890  18.426  0.00  0.00    +0.000 A 
ATOM     13  N   UNL     1       2.994   2.302  19.678  0.00  0.00    +0.000 NA
ATOM     14  C   UNL     1       1.925   2.779  20.286  0.00  0.00    +0.000 A 
ATOM     15  C   UNL     1       1.508   2.623  21.693  0.00  0.00    +0.000 C 
ATOM     16  O   UNL     1       1.153   3.601  19.515  0.00  0.00    +0.000 OA
ATOM     17  C   UNL     1       1.825   3.675  18.327  0.00  0.00    +0.000 A 
ATOM     18  C   UNL     1       1.280   4.584  17.302  0.00  0.00    +0.000 C 
ENDBRANCH  11  12
ENDBRANCH   9  11
ENDBRANCH   4   7
BRANCH   1  20
ATOM     19  C   UNL     1       9.309  10.303  18.227  0.00  0.00    +0.000 C 
ATOM     20  C   UNL     1       8.644   9.302  18.196  0.00  0.00    +0.000 C 
BRANCH  19  24
ATOM     21  C   UNL     1      11.581  13.860  18.575  0.00  0.00    +0.000 A 
ATOM     22  C   UNL     1      10.594  13.734  17.586  0.00  0.00    +0.000 A 
ATOM     23  C   UNL     1       9.853  12.558  17.462  0.00  0.00    +0.000 A 
ATOM     24  C   UNL     1      10.100  11.488  18.320  0.00  0.00    +0.000 A 
ATOM     25  C   UNL     1      11.106  11.586  19.287  0.00  0.00    +0.000 A 
ATOM     26  C   UNL     1      11.846  12.766  19.411  0.00  0.00    +0.000 A 
BRANCH  21  27
ATOM     27  C   UNL     1      12.333  15.164  18.745  0.00  0.00    +0.000 C 
BRANCH  27  28
ATOM     28  C   UNL     1      11.665  16.123  19.752  0.00  0.00    +0.000 C 
ATOM     29  C   UNL     1      11.269  15.379  21.027  0.00  0.00    +0.000 C 
BRANCH  28  33
ATOM     30  C   UNL     1       9.297  18.451  17.913  0.00  0.00    +0.000 C 
ATOM     31  C   UNL     1      10.615  17.909  18.391  0.00  0.00    +0.000 C 
ATOM     32  O   UNL     1      11.686  18.424  18.090  0.00  0.00    +0.000 OA
ATOM     33  N   UNL     1      10.495  16.786  19.178  0.00  0.00    +0.000 N 
ATOM     34  H   UNL     1       9.572  16.456  19.429  0.00  0.00    +0.000 HD
ENDBRANCH  28  33
ENDBRANCH  27  28
ENDBRANCH  21  27
ENDBRANCH  19  24
ENDBRANCH   1  20
TORSDOF 8
ENDMDL
MODEL 4
REMARK VINA RESULT:      -7.9      9.066     12.488
REMARK  Name = 
REMARK  13 active torsions:
REMARK  status: ('A' for Active; 'I' for Inactive)
REMARK    1  A    between atoms: C_1  and  C_2
REMARK    2  A    between atoms: N_4  and  C_5
REMARK    3  A    between atoms: C_5  and  C_6
REMARK    4  A    between atoms: C_5  and  C_7
REMARK    5  A    between atoms: C_7  and  C_8
REMARK    6  A    between atoms: C_11  and  C_12
REMARK    7  A    between atoms: C_13  and  C_14
REMARK    8  A    between atoms: C_17  and  C_18
REMARK    9  A    between atoms: N_20  and  C_21
REMARK   10  A    between atoms: N_20  and  C_22
REMARK   11  A    between atoms: C_22  and  C_23
REMARK   12  A    between atoms: C_25  and  C_26
REMARK   13  A    between atoms: C_28  and  C_29
REMARK                            x       y       z     vdW  Elec       q    Type
REMARK                         _______ _______ _______ _____ _____    ______ ____
ROOT
ATOM      1  C   UNL     1      -0.155  10.169  21.196  0.00  0.00    +0.000 A 
ATOM      2  C   UNL     1      -0.318   9.928  22.556  0.00  0.00    +0.000 A 
ATOM      3  C   UNL     1      -1.212  10.716  23.293  0.00  0.00    +0.000 A 
ATOM      4  C   UNL     1      -1.946  11.753  22.683  0.00  0.00    +0.000 A 
ATOM      5  C   UNL     1      -1.722  12.019  21.331  0.00  0.00    +0.000 A 
ATOM      6  C   UNL     1      -0.858  11.208  20.586  0.00  0.00    +0.000 A 
ENDROOT
BRANCH   4   7
ATOM      7  C   UNL     1      -2.847  12.561  23.561  0.00  0.00    +0.000 C 
ATOM      8  O   UNL     1      -3.839  11.972  24.000  0.00  0.00    +0.000 OA
ATOM      9  N   UNL     1      -2.626  13.910  23.849  0.00  0.00    +0.000 N 
ATOM     10  C   UNL     1      -1.554  14.763  23.355  0.00  0.00    +0.000 C 
BRANCH   9  11
ATOM     11  C   UNL     1      -3.602  14.571  24.721  0.00  0.00    +0.000 C 
BRANCH  11  12
ATOM     12  C   UNL     1      -4.557  15.427  23.962  0.00  0.00    +0.000 A 
ATOM     13  N   UNL     1      -5.245  14.943  22.864  0.00  0.00    +0.000 NA
ATOM     14  C   UNL     1      -6.112  15.897  22.585  0.00  0.00    +0.000 A 
ATOM     15  C   UNL     1      -7.214  15.895  21.603  0.00  0.00    +0.000 C 
ATOM     16  O   UNL     1      -6.019  17.000  23.386  0.00  0.00    +0.000 OA
ATOM     17  C   UNL     1      -5.027  16.688  24.272  0.00  0.00    +0.000 A 
ATOM     18  C   UNL     1      -4.754  17.661  25.346  0.00  0.00    +0.000 C 
ENDBRANCH  11  12
ENDBRANCH   9  11
ENDBRANCH   4   7
BRANCH   1  20
ATOM     19  C   UNL     1       1.442   8.636  19.768  0.00  0.00    +0.000 C 
ATOM     20  C   UNL     1       0.732   9.370  20.401  0.00  0.00    +0.000 C 
BRANCH  19  24
ATOM     21  C   UNL     1       3.834   5.895  17.599  0.00  0.00    +0.000 A 
ATOM     22  C   UNL     1       3.293   5.544  18.845  0.00  0.00    +0.000 A 
ATOM     23  C   UNL     1       2.515   6.451  19.566  0.00  0.00    +0.000 A 
ATOM     24  C   UNL     1       2.279   7.725  19.054  0.00  0.00    +0.000 A 
ATOM     25  C   UNL     1       2.842   8.101  17.831  0.00  0.00    +0.000 A 
ATOM     26  C   UNL     1       3.620   7.191  17.108  0.00  0.00    +0.000 A 
BRANCH  21  27
ATOM     27  C   UNL     1       4.620   4.882  16.793  0.00  0.00    +0.000 C 
BRANCH  27  28
ATOM     28  C   UNL     1       5.872   5.483  16.120  0.00  0.00    +0.000 C 
ATOM     29  C   UNL     1       6.612   4.420  15.309  0.00  0.00    +0.000 C 
BRANCH  28  33
ATOM     30  C   UNL     1       8.108   6.200  19.102  0.00  0.00    +0.000 C 
ATOM     31  C   UNL     1       7.196   5.400  18.214  0.00  0.00    +0.000 C 
ATOM     32  O   UNL     1       6.873   4.246  18.471  0.00  0.00    +0.000 OA
ATOM     33  N   UNL     1       6.777   6.086  17.096  0.00  0.00    +0.000 N 
ATOM     34  H   UNL     1       7.041   7.057  16.986  0.00  0.00    +0.000 HD
ENDBRANCH  28  33
ENDBRANCH  27  28
ENDBRANCH  21  27
ENDBRANCH  19  24
ENDBRANCH   1  20
TORSDOF 8
ENDMDL
MODEL 5
REMARK VINA RESULT:      -7.9      9.073     12.251
REMARK  Name = 
REMARK  13 active torsions:
REMARK  status: ('A' for Active; 'I' for Inactive)
REMARK    1  A    between atoms: C_1  and  C_2
REMARK    2  A    between atoms: N_4  and  C_5
REMARK    3  A    between atoms: C_5  and  C_6
REMARK    4  A    between atoms: C_5  and  C_7
REMARK    5  A    between atoms: C_7  and  C_8
REMARK    6  A    between atoms: C_11  and  C_12
REMARK    7  A    between atoms: C_13  and  C_14
REMARK    8  A    between atoms: C_17  and  C_18
REMARK    9  A    between atoms: N_20  and  C_21
REMARK   10  A    between atoms: N_20  and  C_22
REMARK   11  A    between atoms: C_22  and  C_23
REMARK   12  A    between atoms: C_25  and  C_26
REMARK   13  A    between atoms: C_28  and  C_29
REMARK                            x       y       z     vdW  Elec       q    Type
REMARK                         _______ _______ _______ _____ _____    ______ ____
ROOT
ATOM      1  C   UNL     1       0.356  10.390  21.139  0.00  0.00    +0.000 A 
ATOM      2  C   UNL     1      -0.529  10.227  22.200  0.00  0.00    +0.000 A 
ATOM      3  C   UNL     1      -1.121  11.356  22.782  0.00  0.00    +0.000 A 
ATOM      4  C   UNL     1      -0.833  12.655  22.317  0.00  0.00    +0.000 A 
ATOM      5  C   UNL     1       0.104  12.800  21.293  0.00  0.00    +0.000 A 
ATOM      6  C   UNL     1       0.667  11.672  20.685  0.00  0.00    +0.000 A 
ENDROOT
BRANCH   4   7
ATOM      7  C   UNL     1      -1.488  13.796  23.027  0.00  0.00    +0.000 C 
ATOM      8  O   UNL     1      -1.097  14.009  24.178  0.00  0.00    +0.000 OA
ATOM      9  N   UNL     1      -2.509  14.564  22.460  0.00  0.00    +0.000 N 
ATOM     10  C   UNL     1      -3.129  14.397  21.154  0.00  0.00    +0.000 C 
BRANCH   9  11
ATOM     11  C   UNL     1      -3.058  15.646  23.282  0.00  0.00    +0.000 C 
BRANCH  11  12
ATOM     12  C   UNL     1      -4.529  15.518  23.487  0.00  0.00    +0.000 A 
ATOM     13  N   UNL     1      -5.401  16.523  23.109  0.00  0.00    +0.000 NA
ATOM     14  C   UNL     1      -6.594  15.985  23.263  0.00  0.00    +0.000 A 
ATOM     15  C   UNL     1      -7.915  16.526  22.886  0.00  0.00    +0.000 C 
ATOM     16  O   UNL     1      -6.583  14.713  23.761  0.00  0.00    +0.000 OA
ATOM     17  C   UNL     1      -5.256  14.416  23.893  0.00  0.00    +0.000 A 
ATOM     18  C   UNL     1      -4.912  13.050  24.327  0.00  0.00    +0.000 C 
ENDBRANCH  11  12
ENDBRANCH   9  11
ENDBRANCH   4   7
BRANCH   1  20
ATOM     19  C   UNL     1       1.527   8.363  19.932  0.00  0.00    +0.000 C 
ATOM     20  C   UNL     1       0.965   9.260  20.500  0.00  0.00    +0.000 C 
BRANCH  19  24
ATOM     21  C   UNL     1       3.653   5.332  17.874  0.00  0.00    +0.000 A 
ATOM     22  C   UNL     1       3.593   6.638  17.364  0.00  0.00    +0.000 A 
ATOM     23  C   UNL     1       2.882   7.634  18.035  0.00  0.00    +0.000 A 
ATOM     24  C   UNL     1       2.212   7.332  19.219  0.00  0.00    +0.000 A 
ATOM     25  C   UNL     1       2.232   6.027  19.719  0.00  0.00    +0.000 A 
ATOM     26  C   UNL     1       2.947   5.029  19.047  0.00  0.00    +0.000 A 
BRANCH  21  27
ATOM     27  C   UNL     1       4.481   4.274  17.176  0.00  0.00    +0.000 C 
BRANCH  27  28
ATOM     28  C   UNL     1       5.768   4.835  16.535  0.00  0.00    +0.000 C 
ATOM     29  C   UNL     1       6.402   3.804  15.603  0.00  0.00    +0.000 C 
BRANCH  28  33
ATOM     30  C   UNL     1       8.221   6.779  18.684  0.00  0.00    +0.000 C 
ATOM     31  C   UNL     1       7.221   6.548  17.585  0.00  0.00    +0.000 C 
ATOM     32  O   UNL     1       6.873   7.435  16.814  0.00  0.00    +0.000 OA
ATOM     33  N   UNL     1       6.737   5.259  17.544  0.00  0.00    +0.000 N 
ATOM     34  H   UNL     1       7.118   4.570  18.179  0.00  0.00    +0.000 HD
ENDBRANCH  28  33
ENDBRANCH  27  28
ENDBRANCH  21  27
ENDBRANCH  19  24
ENDBRANCH   1  20
TORSDOF 8
ENDMDL
MODEL 6
REMARK VINA RESULT:      -7.8      7.248     10.072
REMARK  Name = 
REMARK  13 active torsions:
REMARK  status: ('A' for Active; 'I' for Inactive)
REMARK    1  A    between atoms: C_1  and  C_2
REMARK    2  A    between atoms: N_4  and  C_5
REMARK    3  A    between atoms: C_5  and  C_6
REMARK    4  A    between atoms: C_5  and  C_7
REMARK    5  A    between atoms: C_7  and  C_8
REMARK    6  A    between atoms: C_11  and  C_12
REMARK    7  A    between atoms: C_13  and  C_14
REMARK    8  A    between atoms: C_17  and  C_18
REMARK    9  A    between atoms: N_20  and  C_21
REMARK   10  A    between atoms: N_20  and  C_22
REMARK   11  A    between atoms: C_22  and  C_23
REMARK   12  A    between atoms: C_25  and  C_26
REMARK   13  A    between atoms: C_28  and  C_29
REMARK                            x       y       z     vdW  Elec       q    Type
REMARK                         _______ _______ _______ _____ _____    ______ ____
ROOT
ATOM      1  C   UNL     1       2.274   7.599  19.197  0.00  0.00    +0.000 A 
ATOM      2  C   UNL     1       2.666   6.382  19.747  0.00  0.00    +0.000 A 
ATOM      3  C   UNL     1       3.592   5.584  19.064  0.00  0.00    +0.000 A 
ATOM      4  C   UNL     1       4.133   5.987  17.826  0.00  0.00    +0.000 A 
ATOM      5  C   UNL     1       3.681   7.182  17.263  0.00  0.00    +0.000 A 
ATOM      6  C   UNL     1       2.784   7.998  17.961  0.00  0.00    +0.000 A 
ENDROOT
BRANCH   4   7
ATOM      7  C   UNL     1       5.087   5.050  17.159  0.00  0.00    +0.000 C 
ATOM      8  O   UNL     1       4.743   3.866  17.126  0.00  0.00    +0.000 OA
ATOM      9  N   UNL     1       6.317   5.457  16.634  0.00  0.00    +0.000 N 
ATOM     10  C   UNL     1       6.899   6.792  16.659  0.00  0.00    +0.000 C 
BRANCH   9  11
ATOM     11  C   UNL     1       7.149   4.421  16.015  0.00  0.00    +0.000 C 
BRANCH  11  12
ATOM     12  C   UNL     1       6.852   4.240  14.566  0.00  0.00    +0.000 A 
ATOM     13  N   UNL     1       5.759   3.505  14.140  0.00  0.00    +0.000 NA
ATOM     14  C   UNL     1       5.715   3.725  12.842  0.00  0.00    +0.000 A 
ATOM     15  C   UNL     1       4.685   3.321  11.864  0.00  0.00    +0.000 C 
ATOM     16  O   UNL     1       6.723   4.513  12.363  0.00  0.00    +0.000 OA
ATOM     17  C   UNL     1       7.443   4.847  13.476  0.00  0.00    +0.000 A 
ATOM     18  C   UNL     1       8.562   5.789  13.295  0.00  0.00    +0.000 C 
ENDBRANCH  11  12
ENDBRANCH   9  11
ENDBRANCH   4   7
BRANCH   1  20
ATOM     19  C   UNL     1       0.625   9.229  20.446  0.00  0.00    +0.000 C 
ATOM     20  C   UNL     1       1.346   8.456  19.876  0.00  0.00    +0.000 C 
BRANCH  19  24
ATOM     21  C   UNL     1      -1.691  12.089  22.544  0.00  0.00    +0.000 A 
ATOM     22  C   UNL     1      -1.184  10.957  23.199  0.00  0.00    +0.000 A 
ATOM     23  C   UNL     1      -0.432  10.007  22.506  0.00  0.00    +0.000 A 
ATOM     24  C   UNL     1      -0.188  10.174  21.144  0.00  0.00    +0.000 A 
ATOM     25  C   UNL     1      -0.718  11.278  20.470  0.00  0.00    +0.000 A 
ATOM     26  C   UNL     1      -1.470  12.230  21.166  0.00  0.00    +0.000 A 
BRANCH  21  27
ATOM     27  C   UNL     1      -2.449  13.147  23.317  0.00  0.00    +0.000 C 
BRANCH  27  28
ATOM     28  C   UNL     1      -3.449  13.936  22.447  0.00  0.00    +0.000 C 
ATOM     29  C   UNL     1      -2.990  15.383  22.272  0.00  0.00    +0.000 C 
BRANCH  28  33
ATOM     30  C   UNL     1      -7.067  13.133  23.268  0.00  0.00    +0.000 C 
ATOM     31  C   UNL     1      -5.736  12.988  22.585  0.00  0.00    +0.000 C 
ATOM     32  O   UNL     1      -5.519  12.125  21.742  0.00  0.00    +0.000 OA
ATOM     33  N   UNL     1      -4.799  13.905  23.006  0.00  0.00    +0.000 N 
ATOM     34  H   UNL     1      -5.075  14.623  23.664  0.00  0.00    +0.000 HD
ENDBRANCH  28  33
ENDBRANCH  27  28
ENDBRANCH  21  27
ENDBRANCH  19  24
ENDBRANCH   1  20
TORSDOF 8
ENDMDL
MODEL 7
REMARK VINA RESULT:      -7.8      2.150     12.458
REMARK  Name = 
REMARK  13 active torsions:
REMARK  status: ('A' for Active; 'I' for Inactive)
REMARK    1  A    between atoms: C_1  and  C_2
REMARK    2  A    between atoms: N_4  and  C_5
REMARK    3  A    between atoms: C_5  and  C_6
REMARK    4  A    between atoms: C_5  and  C_7
REMARK    5  A    between atoms: C_7  and  C_8
REMARK    6  A    between atoms: C_11  and  C_12
REMARK    7  A    between atoms: C_13  and  C_14
REMARK    8  A    between atoms: C_17  and  C_18
REMARK    9  A    between atoms: N_20  and  C_21
REMARK   10  A    between atoms: N_20  and  C_22
REMARK   11  A    between atoms: C_22  and  C_23
REMARK   12  A    between atoms: C_25  and  C_26
REMARK   13  A    between atoms: C_28  and  C_29
REMARK                            x       y       z     vdW  Elec       q    Type
REMARK                         _______ _______ _______ _____ _____    ______ ____
ROOT
ATOM      1  C   UNL     1       8.957  10.442  18.408  0.00  0.00    +0.000 A 
ATOM      2  C   UNL     1       8.666  11.624  17.733  0.00  0.00    +0.000 A 
ATOM      3  C   UNL     1       9.325  12.805  18.100  0.00  0.00    +0.000 A 
ATOM      4  C   UNL     1      10.273  12.821  19.143  0.00  0.00    +0.000 A 
ATOM      5  C   UNL     1      10.504  11.638  19.847  0.00  0.00    +0.000 A 
ATOM      6  C   UNL     1       9.876  10.449  19.457  0.00  0.00    +0.000 A 
ENDROOT
BRANCH   4   7
ATOM      7  C   UNL     1      10.894  14.137  19.482  0.00  0.00    +0.000 C 
ATOM      8  O   UNL     1      11.613  14.633  18.609  0.00  0.00    +0.000 OA
ATOM      9  N   UNL     1      10.723  14.768  20.717  0.00  0.00    +0.000 N 
ATOM     10  C   UNL     1       9.975  14.284  21.869  0.00  0.00    +0.000 C 
BRANCH   9  11
ATOM     11  C   UNL     1      11.402  16.053  20.905  0.00  0.00    +0.000 C 
BRANCH  11  12
ATOM     12  C   UNL     1      10.514  17.086  21.510  0.00  0.00    +0.000 A 
ATOM     13  N   UNL     1       9.199  17.235  21.104  0.00  0.00    +0.000 NA
ATOM     14  C   UNL     1       8.692  18.086  21.973  0.00  0.00    +0.000 A 
ATOM     15  C   UNL     1       7.292  18.524  22.139  0.00  0.00    +0.000 C 
ATOM     16  O   UNL     1       9.583  18.551  22.899  0.00  0.00    +0.000 OA
ATOM     17  C   UNL     1      10.746  17.898  22.602  0.00  0.00    +0.000 A 
ATOM     18  C   UNL     1      11.891  18.121  23.503  0.00  0.00    +0.000 C 
ENDBRANCH  11  12
ENDBRANCH   9  11
ENDBRANCH   4   7
BRANCH   1  20
ATOM     19  C   UNL     1       7.723   8.204  17.769  0.00  0.00    +0.000 C 
ATOM     20  C   UNL     1       8.323   9.207  18.048  0.00  0.00    +0.000 C 
BRANCH  19  24
ATOM     21  C   UNL     1       5.444   4.717  17.003  0.00  0.00    +0.000 A 
ATOM     22  C   UNL     1       6.707   4.629  17.608  0.00  0.00    +0.000 A 
ATOM     23  C   UNL     1       7.464   5.776  17.849  0.00  0.00    +0.000 A 
ATOM     24  C   UNL     1       6.971   7.025  17.477  0.00  0.00    +0.000 A 
ATOM     25  C   UNL     1       5.731   7.124  16.839  0.00  0.00    +0.000 A 
ATOM     26  C   UNL     1       4.972   5.974  16.600  0.00  0.00    +0.000 A 
BRANCH  21  27
ATOM     27  C   UNL     1       4.602   3.474  16.805  0.00  0.00    +0.000 C 
BRANCH  27  28
ATOM     28  C   UNL     1       3.671   3.176  17.999  0.00  0.00    +0.000 C 
ATOM     29  C   UNL     1       2.550   2.223  17.586  0.00  0.00    +0.000 C 
BRANCH  28  33
ATOM     30  C   UNL     1       2.192   5.826  20.279  0.00  0.00    +0.000 C 
ATOM     31  C   UNL     1       2.780   4.496  19.899  0.00  0.00    +0.000 C 
ATOM     32  O   UNL     1       2.956   3.597  20.714  0.00  0.00    +0.000 OA
ATOM     33  N   UNL     1       3.103   4.399  18.564  0.00  0.00    +0.000 N 
ATOM     34  H   UNL     1       2.871   5.164  17.945  0.00  0.00    +0.000 HD
ENDBRANCH  28  33
ENDBRANCH  27  28
ENDBRANCH  21  27
ENDBRANCH  19  24
ENDBRANCH   1  20
TORSDOF 8
ENDMDL
MODEL 8
REMARK VINA RESULT:      -7.8      7.483     10.641
REMARK  Name = 
REMARK  13 active torsions:
REMARK  status: ('A' for Active; 'I' for Inactive)
REMARK    1  A    between atoms: C_1  and  C_2
REMARK    2  A    between atoms: N_4  and  C_5
REMARK    3  A    between atoms: C_5  and  C_6
REMARK    4  A    between atoms: C_5  and  C_7
REMARK    5  A    between atoms: C_7  and  C_8
REMARK    6  A    between atoms: C_11  and  C_12
REMARK    7  A    between atoms: C_13  and  C_14
REMARK    8  A    between atoms: C_17  and  C_18
REMARK    9  A    between atoms: N_20  and  C_21
REMARK   10  A    between atoms: N_20  and  C_22
REMARK   11  A    between atoms: C_22  and  C_23
REMARK   12  A    between atoms: C_25  and  C_26
REMARK   13  A    between atoms: C_28  and  C_29
REMARK                            x       y       z     vdW  Elec       q    Type
REMARK                         _______ _______ _______ _____ _____    ______ ____
ROOT
ATOM      1  C   UNL     1       1.854   8.323  19.184  0.00  0.00    +0.000 A 
ATOM      2  C   UNL     1       2.350   8.492  17.895  0.00  0.00    +0.000 A 
ATOM      3  C   UNL     1       3.133   7.482  17.321  0.00  0.00    +0.000 A 
ATOM      4  C   UNL     1       3.433   6.299  18.025  0.00  0.00    +0.000 A 
ATOM      5  C   UNL     1       2.977   6.177  19.339  0.00  0.00    +0.000 A 
ATOM      6  C   UNL     1       2.163   7.167  19.901  0.00  0.00    +0.000 A 
ENDROOT
BRANCH   4   7
ATOM      7  C   UNL     1       4.304   5.297  17.340  0.00  0.00    +0.000 C 
ATOM      8  O   UNL     1       3.734   4.286  16.921  0.00  0.00    +0.000 OA
ATOM      9  N   UNL     1       5.687   5.452  17.205  0.00  0.00    +0.000 N 
ATOM     10  C   UNL     1       6.515   6.540  17.705  0.00  0.00    +0.000 C 
BRANCH   9  11
ATOM     11  C   UNL     1       6.410   4.380  16.514  0.00  0.00    +0.000 C 
BRANCH  11  12
ATOM     12  C   UNL     1       6.708   4.717  15.093  0.00  0.00    +0.000 A 
ATOM     13  N   UNL     1       7.766   5.542  14.754  0.00  0.00    +0.000 NA
ATOM     14  C   UNL     1       7.831   5.452  13.441  0.00  0.00    +0.000 A 
ATOM     15  C   UNL     1       8.847   6.000  12.520  0.00  0.00    +0.000 C 
ATOM     16  O   UNL     1       6.866   4.667  12.876  0.00  0.00    +0.000 OA
ATOM     17  C   UNL     1       6.156   4.191  13.942  0.00  0.00    +0.000 A 
ATOM     18  C   UNL     1       5.085   3.218  13.657  0.00  0.00    +0.000 C 
ENDBRANCH  11  12
ENDBRANCH   9  11
ENDBRANCH   4   7
BRANCH   1  20
ATOM     19  C   UNL     1       0.289  10.102  20.335  0.00  0.00    +0.000 C 
ATOM     20  C   UNL     1       1.029   9.322  19.799  0.00  0.00    +0.000 C 
BRANCH  19  24
ATOM     21  C   UNL     1      -2.365  12.824  22.202  0.00  0.00    +0.000 A 
ATOM     22  C   UNL     1      -1.573  11.956  22.969  0.00  0.00    +0.000 A 
ATOM     23  C   UNL     1      -0.708  11.049  22.354  0.00  0.00    +0.000 A 
ATOM     24  C   UNL     1      -0.633  10.993  20.964  0.00  0.00    +0.000 A 
ATOM     25  C   UNL     1      -1.444  11.828  20.187  0.00  0.00    +0.000 A 
ATOM     26  C   UNL     1      -2.309  12.737  20.804  0.00  0.00    +0.000 A 
BRANCH  21  27
ATOM     27  C   UNL     1      -3.251  13.850  22.878  0.00  0.00    +0.000 C 
BRANCH  27  28
ATOM     28  C   UNL     1      -4.593  13.265  23.366  0.00  0.00    +0.000 C 
ATOM     29  C   UNL     1      -4.381  12.373  24.589  0.00  0.00    +0.000 C 
BRANCH  28  33
ATOM     30  C   UNL     1      -7.150  11.711  21.031  0.00  0.00    +0.000 C 
ATOM     31  C   UNL     1      -6.642  12.566  22.158  0.00  0.00    +0.000 C 
ATOM     32  O   UNL     1      -7.385  13.246  22.855  0.00  0.00    +0.000 OA
ATOM     33  N   UNL     1      -5.274  12.514  22.313  0.00  0.00    +0.000 N 
ATOM     34  H   UNL     1      -4.736  11.882  21.734  0.00  0.00    +0.000 HD
ENDBRANCH  28  33
ENDBRANCH  27  28
ENDBRANCH  21  27
ENDBRANCH  19  24
ENDBRANCH   1  20
TORSDOF 8
ENDMDL
MODEL 9
REMARK VINA RESULT:      -7.6      8.101     11.591
REMARK  Name = 
REMARK  13 active torsions:
REMARK  status: ('A' for Active; 'I' for Inactive)
REMARK    1  A    between atoms: C_1  and  C_2
REMARK    2  A    between atoms: N_4  and  C_5
REMARK    3  A    between atoms: C_5  and  C_6
REMARK    4  A    between atoms: C_5  and  C_7
REMARK    5  A    between atoms: C_7  and  C_8
REMARK    6  A    between atoms: C_11  and  C_12
REMARK    7  A    between atoms: C_13  and  C_14
REMARK    8  A    between atoms: C_17  and  C_18
REMARK    9  A    between atoms: N_20  and  C_21
REMARK   10  A    between atoms: N_20  and  C_22
REMARK   11  A    between atoms: C_22  and  C_23
REMARK   12  A    between atoms: C_25  and  C_26
REMARK   13  A    between atoms: C_28  and  C_29
REMARK                            x       y       z     vdW  Elec       q    Type
REMARK                         _______ _______ _______ _____ _____    ______ ____
ROOT
ATOM      1  C   UNL     1       0.542   9.372  20.903  0.00  0.00    +0.000 A 
ATOM      2  C   UNL     1       0.420   9.259  22.285  0.00  0.00    +0.000 A 
ATOM      3  C   UNL     1      -0.415  10.147  22.977  0.00  0.00    +0.000 A 
ATOM      4  C   UNL     1      -1.129  11.157  22.301  0.00  0.00    +0.000 A 
ATOM      5  C   UNL     1      -0.944  11.292  20.924  0.00  0.00    +0.000 A 
ATOM      6  C   UNL     1      -0.141  10.382  20.226  0.00  0.00    +0.000 A 
ENDROOT
BRANCH   4   7
ATOM      7  C   UNL     1      -1.965  12.076  23.132  0.00  0.00    +0.000 C 
ATOM      8  O   UNL     1      -2.987  11.583  23.617  0.00  0.00    +0.000 OA
ATOM      9  N   UNL     1      -1.653  13.424  23.330  0.00  0.00    +0.000 N 
ATOM     10  C   UNL     1      -0.534  14.171  22.772  0.00  0.00    +0.000 C 
BRANCH   9  11
ATOM     11  C   UNL     1      -2.573  14.201  24.165  0.00  0.00    +0.000 C 
BRANCH  11  12
ATOM     12  C   UNL     1      -3.335  15.216  23.383  0.00  0.00    +0.000 A 
ATOM     13  N   UNL     1      -3.041  16.565  23.472  0.00  0.00    +0.000 NA
ATOM     14  C   UNL     1      -3.770  17.113  22.520  0.00  0.00    +0.000 A 
ATOM     15  C   UNL     1      -3.775  18.508  22.038  0.00  0.00    +0.000 C 
ATOM     16  O   UNL     1      -4.564  16.236  21.836  0.00  0.00    +0.000 OA
ATOM     17  C   UNL     1      -4.272  15.020  22.388  0.00  0.00    +0.000 A 
ATOM     18  C   UNL     1      -4.910  13.837  21.784  0.00  0.00    +0.000 C 
ENDBRANCH  11  12
ENDBRANCH   9  11
ENDBRANCH   4   7
BRANCH   1  20
ATOM     19  C   UNL     1       2.090   7.774  19.492  0.00  0.00    +0.000 C 
ATOM     20  C   UNL     1       1.367   8.469  20.155  0.00  0.00    +0.000 C 
BRANCH  19  24
ATOM     21  C   UNL     1       4.733   5.486  17.101  0.00  0.00    +0.000 A 
ATOM     22  C   UNL     1       4.369   6.788  16.723  0.00  0.00    +0.000 A 
ATOM     23  C   UNL     1       3.488   7.538  17.504  0.00  0.00    +0.000 A 
ATOM     24  C   UNL     1       2.951   6.989  18.667  0.00  0.00    +0.000 A 
ATOM     25  C   UNL     1       3.276   5.680  19.036  0.00  0.00    +0.000 A 
ATOM     26  C   UNL     1       4.160   4.930  18.254  0.00  0.00    +0.000 A 
BRANCH  21  27
ATOM     27  C   UNL     1       5.740   4.705  16.284  0.00  0.00    +0.000 C 
BRANCH  27  28
ATOM     28  C   UNL     1       7.201   5.116  16.566  0.00  0.00    +0.000 C 
ATOM     29  C   UNL     1       7.704   4.472  17.858  0.00  0.00    +0.000 C 
BRANCH  28  33
ATOM     30  C   UNL     1       7.825   8.691  17.680  0.00  0.00    +0.000 C 
ATOM     31  C   UNL     1       7.747   7.194  17.802  0.00  0.00    +0.000 C 
ATOM     32  O   UNL     1       8.023   6.604  18.840  0.00  0.00    +0.000 OA
ATOM     33  N   UNL     1       7.352   6.568  16.641  0.00  0.00    +0.000 N 
ATOM     34  H   UNL     1       7.085   7.131  15.844  0.00  0.00    +0.000 HD
ENDBRANCH  28  33
ENDBRANCH  27  28
ENDBRANCH  21  27
ENDBRANCH  19  24
ENDBRANCH   1  20
TORSDOF 8
ENDMDL
