MODEL 1
REMARK VINA RESULT:      -6.3      0.000      0.000
REMARK  Name = 
REMARK  9 active torsions:
REMARK  status: ('A' for Active; 'I' for Inactive)
REMARK    1  A    between atoms: C_1  and  C_2
REMARK    2  A    between atoms: C_7  and  O_8
REMARK    3  A    between atoms: C_9  and  C_10
REMARK    4  A    between atoms: C_10  and  N_11
REMARK    5  A    between atoms: N_14  and  C_15
REMARK    6  A    between atoms: C_18  and  O_19
REMARK    7  A    between atoms: C_20  and  C_21
REMARK    8  A    between atoms: N_24  and  C_25
REMARK    9  A    between atoms: C_27  and  O_28
REMARK                            x       y       z     vdW  Elec       q    Type
REMARK                         _______ _______ _______ _____ _____    ______ ____
ROOT
ATOM      1  C   UNL     1      -2.702  10.741  15.613  0.00  0.00    +0.000 C 
ATOM      2  C   UNL     1      -3.539  11.191  16.767  0.00  0.00    +0.000 A 
ATOM      3  C   UNL     1      -4.878  11.217  16.688  0.00  0.00    +0.000 A 
ATOM      4  C   UNL     1      -5.645  11.667  17.844  0.00  0.00    +0.000 A 
ATOM      5  O   UNL     1      -6.874  11.740  17.798  0.00  0.00    +0.000 OA
ATOM      6  C   UNL     1      -4.894  12.040  19.047  0.00  0.00    +0.000 A 
ATOM      7  C   UNL     1      -5.565  12.482  20.190  0.00  0.00    +0.000 A 
ATOM      8  C   UNL     1      -4.859  12.866  21.343  0.00  0.00    +0.000 A 
ATOM      9  C   UNL     1      -3.450  12.809  21.312  0.00  0.00    +0.000 A 
ATOM     10  C   UNL     1      -2.745  12.397  20.160  0.00  0.00    +0.000 A 
ATOM     11  C   UNL     1      -3.499  11.987  19.030  0.00  0.00    +0.000 A 
ATOM     12  O   UNL     1      -2.822  11.567  17.896  0.00  0.00    +0.000 OA
ENDROOT
BRANCH  10  13
ATOM     13  C   UNL     1      -1.227  12.520  20.061  0.00  0.00    +0.000 C 
ATOM     14  C   UNL     1      -0.492  11.178  19.894  0.00  0.00    +0.000 C 
ATOM     15  C   UNL     1       0.970  11.374  20.300  0.00  0.00    +0.000 C 
ATOM     16  N   UNL     1       1.662  12.439  19.565  0.00  0.00    +0.000 NA
ATOM     17  C   UNL     1       2.212  11.969  18.301  0.00  0.00    +0.000 C 
ATOM     18  C   UNL     1       0.889  13.694  19.446  0.00  0.00    +0.000 C 
ATOM     19  C   UNL     1      -0.617  13.566  19.096  0.00  0.00    +0.000 C 
BRANCH  19  20
ATOM     20  O   UNL     1      -0.761  13.277  17.702  0.00  0.00    +0.000 OA
ATOM     21  H   UNL     1      -1.526  13.768  17.364  0.00  0.00    +0.000 HD
ENDBRANCH  19  20
ENDBRANCH  10  13
BRANCH   7  22
ATOM     22  O   UNL     1      -6.939  12.586  20.214  0.00  0.00    +0.000 OA
ATOM     23  H   UNL     1      -7.323  11.814  19.737  0.00  0.00    +0.000 HD
ENDBRANCH   7  22
BRANCH   9  24
ATOM     24  O   UNL     1      -2.697  13.179  22.397  0.00  0.00    +0.000 OA
ATOM     25  H   UNL     1      -3.244  13.689  23.018  0.00  0.00    +0.000 HD
ENDBRANCH   9  24
BRANCH   8  26
ATOM     26  C   UNL     1      -5.649  13.372  22.539  0.00  0.00    +0.000 C 
BRANCH  26  27
ATOM     27  N   UNL     1      -6.395  14.620  22.281  0.00  0.00    +0.000 NA
ATOM     28  C   UNL     1      -5.445  15.705  21.945  0.00  0.00    +0.000 C 
ATOM     29  C   UNL     1      -6.162  17.054  21.691  0.00  0.00    +0.000 C 
ATOM     30  N   UNL     1      -7.043  17.516  22.781  0.00  0.00    +0.000 NA
ATOM     31  C   UNL     1      -6.284  18.048  23.911  0.00  0.00    +0.000 C 
ATOM     32  C   UNL     1      -7.916  16.402  23.197  0.00  0.00    +0.000 C 
ATOM     33  C   UNL     1      -7.183  15.064  23.459  0.00  0.00    +0.000 C 
ENDBRANCH  26  27
ENDBRANCH   8  26
TORSDOF 6
ENDMDL
MODEL 2
REMARK VINA RESULT:      -6.2      0.676      1.077
REMARK  Name = 
REMARK  9 active torsions:
REMARK  status: ('A' for Active; 'I' for Inactive)
REMARK    1  A    between atoms: C_1  and  C_2
REMARK    2  A    between atoms: C_7  and  O_8
REMARK    3  A    between atoms: C_9  and  C_10
REMARK    4  A    between atoms: C_10  and  N_11
REMARK    5  A    between atoms: N_14  and  C_15
REMARK    6  A    between atoms: C_18  and  O_19
REMARK    7  A    between atoms: C_20  and  C_21
REMARK    8  A    between atoms: N_24  and  C_25
REMARK    9  A    between atoms: C_27  and  O_28
REMARK                            x       y       z     vdW  Elec       q    Type
REMARK                         _______ _______ _______ _____ _____    ______ ____
ROOT
ATOM      1  C   UNL     1      -2.763  10.548  15.633  0.00  0.00    +0.000 C 
ATOM      2  C   UNL     1      -3.588  11.094  16.753  0.00  0.00    +0.000 A 
ATOM      3  C   UNL     1      -4.926  11.160  16.666  0.00  0.00    +0.000 A 
ATOM      4  C   UNL     1      -5.681  11.704  17.789  0.00  0.00    +0.000 A 
ATOM      5  O   UNL     1      -6.906  11.815  17.731  0.00  0.00    +0.000 OA
ATOM      6  C   UNL     1      -4.922  12.124  18.971  0.00  0.00    +0.000 A 
ATOM      7  C   UNL     1      -5.582  12.655  20.082  0.00  0.00    +0.000 A 
ATOM      8  C   UNL     1      -4.868  13.084  21.214  0.00  0.00    +0.000 A 
ATOM      9  C   UNL     1      -3.461  12.979  21.194  0.00  0.00    +0.000 A 
ATOM     10  C   UNL     1      -2.766  12.475  20.073  0.00  0.00    +0.000 A 
ATOM     11  C   UNL     1      -3.530  12.024  18.965  0.00  0.00    +0.000 A 
ATOM     12  O   UNL     1      -2.863  11.513  17.862  0.00  0.00    +0.000 OA
ENDROOT
BRANCH  10  13
ATOM     13  C   UNL     1      -1.245  12.543  19.975  0.00  0.00    +0.000 C 
ATOM     14  C   UNL     1      -0.556  11.170  19.867  0.00  0.00    +0.000 C 
ATOM     15  C   UNL     1       0.911  11.333  20.271  0.00  0.00    +0.000 C 
ATOM     16  N   UNL     1       1.641  12.341  19.495  0.00  0.00    +0.000 NA
ATOM     17  C   UNL     1       2.178  11.800  18.254  0.00  0.00    +0.000 C 
ATOM     18  C   UNL     1       0.912  13.616  19.320  0.00  0.00    +0.000 C 
ATOM     19  C   UNL     1      -0.597  13.526  18.969  0.00  0.00    +0.000 C 
BRANCH  19  20
ATOM     20  O   UNL     1      -0.747  13.183  17.588  0.00  0.00    +0.000 OA
ATOM     21  H   UNL     1       0.086  13.377  17.131  0.00  0.00    +0.000 HD
ENDBRANCH  19  20
ENDBRANCH  10  13
BRANCH   7  22
ATOM     22  O   UNL     1      -6.952  12.806  20.091  0.00  0.00    +0.000 OA
ATOM     23  H   UNL     1      -7.361  12.012  19.676  0.00  0.00    +0.000 HD
ENDBRANCH   7  22
BRANCH   9  24
ATOM     24  O   UNL     1      -2.701  13.389  22.259  0.00  0.00    +0.000 OA
ATOM     25  H   UNL     1      -2.385  14.296  22.108  0.00  0.00    +0.000 HD
ENDBRANCH   9  24
BRANCH   8  26
ATOM     26  C   UNL     1      -5.645  13.688  22.372  0.00  0.00    +0.000 C 
BRANCH  26  27
ATOM     27  N   UNL     1      -5.215  15.053  22.737  0.00  0.00    +0.000 NA
ATOM     28  C   UNL     1      -5.853  15.448  24.015  0.00  0.00    +0.000 C 
ATOM     29  C   UNL     1      -5.467  16.886  24.441  0.00  0.00    +0.000 C 
ATOM     30  N   UNL     1      -5.727  17.935  23.437  0.00  0.00    +0.000 NA
ATOM     31  C   UNL     1      -7.148  18.265  23.344  0.00  0.00    +0.000 C 
ATOM     32  C   UNL     1      -5.191  17.495  22.134  0.00  0.00    +0.000 C 
ATOM     33  C   UNL     1      -5.596  16.061  21.715  0.00  0.00    +0.000 C 
ENDBRANCH  26  27
ENDBRANCH   8  26
TORSDOF 6
ENDMDL
MODEL 3
REMARK VINA RESULT:      -6.2      3.008      7.891
REMARK  Name = 
REMARK  9 active torsions:
REMARK  status: ('A' for Active; 'I' for Inactive)
REMARK    1  A    between atoms: C_1  and  C_2
REMARK    2  A    between atoms: C_7  and  O_8
REMARK    3  A    between atoms: C_9  and  C_10
REMARK    4  A    between atoms: C_10  and  N_11
REMARK    5  A    between atoms: N_14  and  C_15
REMARK    6  A    between atoms: C_18  and  O_19
REMARK    7  A    between atoms: C_20  and  C_21
REMARK    8  A    between atoms: N_24  and  C_25
REMARK    9  A    between atoms: C_27  and  O_28
REMARK                            x       y       z     vdW  Elec       q    Type
REMARK                         _______ _______ _______ _____ _____    ______ ____
ROOT
ATOM      1  C   UNL     1      -6.025  12.866  18.677  0.00  0.00    +0.000 C 
ATOM      2  C   UNL     1      -4.699  12.197  18.505  0.00  0.00    +0.000 A 
ATOM      3  C   UNL     1      -4.454  11.393  17.460  0.00  0.00    +0.000 A 
ATOM      4  C   UNL     1      -3.143  10.764  17.344  0.00  0.00    +0.000 A 
ATOM      5  O   UNL     1      -2.893   9.991  16.419  0.00  0.00    +0.000 OA
ATOM      6  C   UNL     1      -2.151  11.079  18.377  0.00  0.00    +0.000 A 
ATOM      7  C   UNL     1      -0.876  10.511  18.328  0.00  0.00    +0.000 A 
ATOM      8  C   UNL     1       0.079  10.784  19.322  0.00  0.00    +0.000 A 
ATOM      9  C   UNL     1      -0.289  11.637  20.384  0.00  0.00    +0.000 A 
ATOM     10  C   UNL     1      -1.581  12.200  20.476  0.00  0.00    +0.000 A 
ATOM     11  C   UNL     1      -2.502  11.923  19.432  0.00  0.00    +0.000 A 
ATOM     12  O   UNL     1      -3.770  12.479  19.499  0.00  0.00    +0.000 OA
ENDROOT
BRANCH  10  13
ATOM     13  C   UNL     1      -2.040  12.960  21.717  0.00  0.00    +0.000 C 
ATOM     14  C   UNL     1      -2.409  14.432  21.457  0.00  0.00    +0.000 C 
ATOM     15  C   UNL     1      -2.361  15.183  22.790  0.00  0.00    +0.000 C 
ATOM     16  N   UNL     1      -3.218  14.611  23.835  0.00  0.00    +0.000 NA
ATOM     17  C   UNL     1      -4.587  15.100  23.756  0.00  0.00    +0.000 C 
ATOM     18  C   UNL     1      -3.119  13.141  23.961  0.00  0.00    +0.000 C 
ATOM     19  C   UNL     1      -3.100  12.318  22.645  0.00  0.00    +0.000 C 
BRANCH  19  20
ATOM     20  O   UNL     1      -4.424  12.243  22.109  0.00  0.00    +0.000 OA
ATOM     21  H   UNL     1      -4.369  11.913  21.199  0.00  0.00    +0.000 HD
ENDBRANCH  19  20
ENDBRANCH  10  13
BRANCH   7  22
ATOM     22  O   UNL     1      -0.523   9.640  17.321  0.00  0.00    +0.000 OA
ATOM     23  H   UNL     1      -0.023   8.887  17.713  0.00  0.00    +0.000 HD
ENDBRANCH   7  22
BRANCH   9  24
ATOM     24  O   UNL     1       0.588  11.938  21.395  0.00  0.00    +0.000 OA
ATOM     25  H   UNL     1       1.485  12.033  21.034  0.00  0.00    +0.000 HD
ENDBRANCH   9  24
BRANCH   8  26
ATOM     26  C   UNL     1       1.435  10.104  19.230  0.00  0.00    +0.000 C 
BRANCH  26  27
ATOM     27  N   UNL     1       1.362   8.632  19.123  0.00  0.00    +0.000 NA
ATOM     28  C   UNL     1       1.749   8.023  20.417  0.00  0.00    +0.000 C 
ATOM     29  C   UNL     1       1.723   6.475  20.366  0.00  0.00    +0.000 C 
ATOM     30  N   UNL     1       2.532   5.865  19.294  0.00  0.00    +0.000 NA
ATOM     31  C   UNL     1       3.962   5.905  19.597  0.00  0.00    +0.000 C 
ATOM     32  C   UNL     1       2.234   6.547  18.020  0.00  0.00    +0.000 C 
ATOM     33  C   UNL     1       2.275   8.092  18.084  0.00  0.00    +0.000 C 
ENDBRANCH  26  27
ENDBRANCH   8  26
TORSDOF 6
ENDMDL
MODEL 4
REMARK VINA RESULT:      -6.1      2.040      7.070
REMARK  Name = 
REMARK  9 active torsions:
REMARK  status: ('A' for Active; 'I' for Inactive)
REMARK    1  A    between atoms: C_1  and  C_2
REMARK    2  A    between atoms: C_7  and  O_8
REMARK    3  A    between atoms: C_9  and  C_10
REMARK    4  A    between atoms: C_10  and  N_11
REMARK    5  A    between atoms: N_14  and  C_15
REMARK    6  A    between atoms: C_18  and  O_19
REMARK    7  A    between atoms: C_20  and  C_21
REMARK    8  A    between atoms: N_24  and  C_25
REMARK    9  A    between atoms: C_27  and  O_28
REMARK                            x       y       z     vdW  Elec       q    Type
REMARK                         _______ _______ _______ _____ _____    ______ ____
ROOT
ATOM      1  C   UNL     1      -6.307  11.320  18.344  0.00  0.00    +0.000 C 
ATOM      2  C   UNL     1      -4.813  11.324  18.407  0.00  0.00    +0.000 A 
ATOM      3  C   UNL     1      -4.080  10.550  17.593  0.00  0.00    +0.000 A 
ATOM      4  C   UNL     1      -2.626  10.592  17.699  0.00  0.00    +0.000 A 
ATOM      5  O   UNL     1      -1.919   9.869  16.995  0.00  0.00    +0.000 OA
ATOM      6  C   UNL     1      -2.049  11.513  18.683  0.00  0.00    +0.000 A 
ATOM      7  C   UNL     1      -0.663  11.603  18.839  0.00  0.00    +0.000 A 
ATOM      8  C   UNL     1      -0.094  12.464  19.793  0.00  0.00    +0.000 A 
ATOM      9  C   UNL     1      -0.961  13.226  20.605  0.00  0.00    +0.000 A 
ATOM     10  C   UNL     1      -2.366  13.131  20.491  0.00  0.00    +0.000 A 
ATOM     11  C   UNL     1      -2.895  12.274  19.491  0.00  0.00    +0.000 A 
ATOM     12  O   UNL     1      -4.272  12.180  19.357  0.00  0.00    +0.000 OA
ENDROOT
BRANCH  10  13
ATOM     13  C   UNL     1      -3.300  13.803  21.494  0.00  0.00    +0.000 C 
ATOM     14  C   UNL     1      -4.237  14.857  20.877  0.00  0.00    +0.000 C 
ATOM     15  C   UNL     1      -4.734  15.774  21.997  0.00  0.00    +0.000 C 
ATOM     16  N   UNL     1      -5.399  15.072  23.100  0.00  0.00    +0.000 NA
ATOM     17  C   UNL     1      -6.813  14.843  22.836  0.00  0.00    +0.000 C 
ATOM     18  C   UNL     1      -4.681  13.869  23.572  0.00  0.00    +0.000 C 
ATOM     19  C   UNL     1      -4.096  12.924  22.489  0.00  0.00    +0.000 C 
BRANCH  19  20
ATOM     20  O   UNL     1      -5.148  12.143  21.917  0.00  0.00    +0.000 OA
ATOM     21  H   UNL     1      -5.897  12.729  21.726  0.00  0.00    +0.000 HD
ENDBRANCH  19  20
ENDBRANCH  10  13
BRANCH   7  22
ATOM     22  O   UNL     1       0.190  10.829  18.084  0.00  0.00    +0.000 OA
ATOM     23  H   UNL     1       1.017  10.677  18.595  0.00  0.00    +0.000 HD
ENDBRANCH   7  22
BRANCH   9  24
ATOM     24  O   UNL     1      -0.476  14.077  21.564  0.00  0.00    +0.000 OA
ATOM     25  H   UNL     1      -1.213  14.542  21.994  0.00  0.00    +0.000 HD
ENDBRANCH   9  24
BRANCH   8  26
ATOM     26  C   UNL     1       1.418  12.486  19.937  0.00  0.00    +0.000 C 
BRANCH  26  27
ATOM     27  N   UNL     1       2.028  13.804  19.669  0.00  0.00    +0.000 NA
ATOM     28  C   UNL     1       2.400  13.895  18.238  0.00  0.00    +0.000 C 
ATOM     29  C   UNL     1       3.075  15.246  17.894  0.00  0.00    +0.000 C 
ATOM     30  N   UNL     1       4.253  15.591  18.712  0.00  0.00    +0.000 NA
ATOM     31  C   UNL     1       5.433  14.819  18.326  0.00  0.00    +0.000 C 
ATOM     32  C   UNL     1       3.923  15.391  20.136  0.00  0.00    +0.000 C 
ATOM     33  C   UNL     1       3.260  14.032  20.467  0.00  0.00    +0.000 C 
ENDBRANCH  26  27
ENDBRANCH   8  26
TORSDOF 6
ENDMDL
MODEL 5
REMARK VINA RESULT:      -6.1      3.039      7.771
REMARK  Name = 
REMARK  9 active torsions:
REMARK  status: ('A' for Active; 'I' for Inactive)
REMARK    1  A    between atoms: C_1  and  C_2
REMARK    2  A    between atoms: C_7  and  O_8
REMARK    3  A    between atoms: C_9  and  C_10
REMARK    4  A    between atoms: C_10  and  N_11
REMARK    5  A    between atoms: N_14  and  C_15
REMARK    6  A    between atoms: C_18  and  O_19
REMARK    7  A    between atoms: C_20  and  C_21
REMARK    8  A    between atoms: N_24  and  C_25
REMARK    9  A    between atoms: C_27  and  O_28
REMARK                            x       y       z     vdW  Elec       q    Type
REMARK                         _______ _______ _______ _____ _____    ______ ____
ROOT
ATOM      1  C   UNL     1      -6.105  12.499  17.606  0.00  0.00    +0.000 C 
ATOM      2  C   UNL     1      -4.745  11.881  17.639  0.00  0.00    +0.000 A 
ATOM      3  C   UNL     1      -4.319  11.080  16.650  0.00  0.00    +0.000 A 
ATOM      4  C   UNL     1      -2.983  10.501  16.735  0.00  0.00    +0.000 A 
ATOM      5  O   UNL     1      -2.571   9.732  15.866  0.00  0.00    +0.000 OA
ATOM      6  C   UNL     1      -2.166  10.861  17.898  0.00  0.00    +0.000 A 
ATOM      7  C   UNL     1      -0.877  10.342  18.044  0.00  0.00    +0.000 A 
ATOM      8  C   UNL     1      -0.090  10.657  19.164  0.00  0.00    +0.000 A 
ATOM      9  C   UNL     1      -0.641  11.502  20.151  0.00  0.00    +0.000 A 
ATOM     10  C   UNL     1      -1.953  12.015  20.045  0.00  0.00    +0.000 A 
ATOM     11  C   UNL     1      -2.699  11.697  18.881  0.00  0.00    +0.000 A 
ATOM     12  O   UNL     1      -3.983  12.204  18.755  0.00  0.00    +0.000 OA
ENDROOT
BRANCH  10  13
ATOM     13  C   UNL     1      -2.617  12.765  21.197  0.00  0.00    +0.000 C 
ATOM     14  C   UNL     1      -2.459  12.084  22.569  0.00  0.00    +0.000 C 
ATOM     15  C   UNL     1      -3.542  12.628  23.504  0.00  0.00    +0.000 C 
ATOM     16  N   UNL     1      -3.536  14.088  23.647  0.00  0.00    +0.000 NA
ATOM     17  C   UNL     1      -2.605  14.539  24.672  0.00  0.00    +0.000 C 
ATOM     18  C   UNL     1      -3.410  14.821  22.368  0.00  0.00    +0.000 C 
ATOM     19  C   UNL     1      -2.373  14.287  21.345  0.00  0.00    +0.000 C 
BRANCH  19  20
ATOM     20  O   UNL     1      -1.057  14.664  21.758  0.00  0.00    +0.000 OA
ATOM     21  H   UNL     1      -0.429  14.005  21.422  0.00  0.00    +0.000 HD
ENDBRANCH  19  20
ENDBRANCH  10  13
BRANCH   7  22
ATOM     22  O   UNL     1      -0.348   9.478  17.109  0.00  0.00    +0.000 OA
ATOM     23  H   UNL     1       0.503   9.122  17.454  0.00  0.00    +0.000 HD
ENDBRANCH   7  22
BRANCH   9  24
ATOM     24  O   UNL     1       0.066  11.842  21.275  0.00  0.00    +0.000 OA
ATOM     25  H   UNL     1       0.992  11.564  21.178  0.00  0.00    +0.000 HD
ENDBRANCH   9  24
BRANCH   8  26
ATOM     26  C   UNL     1       1.289  10.028  19.279  0.00  0.00    +0.000 C 
BRANCH  26  27
ATOM     27  N   UNL     1       1.290   8.557  19.157  0.00  0.00    +0.000 NA
ATOM     28  C   UNL     1       1.702   7.953  20.446  0.00  0.00    +0.000 C 
ATOM     29  C   UNL     1       1.753   6.407  20.378  0.00  0.00    +0.000 C 
ATOM     30  N   UNL     1       2.596   5.849  19.303  0.00  0.00    +0.000 NA
ATOM     31  C   UNL     1       4.021   5.957  19.613  0.00  0.00    +0.000 C 
ATOM     32  C   UNL     1       2.269   6.529  18.035  0.00  0.00    +0.000 C 
ATOM     33  C   UNL     1       2.233   8.074  18.116  0.00  0.00    +0.000 C 
ENDBRANCH  26  27
ENDBRANCH   8  26
TORSDOF 6
ENDMDL
MODEL 6
REMARK VINA RESULT:      -6.1      2.199      6.973
REMARK  Name = 
REMARK  9 active torsions:
REMARK  status: ('A' for Active; 'I' for Inactive)
REMARK    1  A    between atoms: C_1  and  C_2
REMARK    2  A    between atoms: C_7  and  O_8
REMARK    3  A    between atoms: C_9  and  C_10
REMARK    4  A    between atoms: C_10  and  N_11
REMARK    5  A    between atoms: N_14  and  C_15
REMARK    6  A    between atoms: C_18  and  O_19
REMARK    7  A    between atoms: C_20  and  C_21
REMARK    8  A    between atoms: N_24  and  C_25
REMARK    9  A    between atoms: C_27  and  O_28
REMARK                            x       y       z     vdW  Elec       q    Type
REMARK                         _______ _______ _______ _____ _____    ______ ____
ROOT
ATOM      1  C   UNL     1      -6.087  11.109  18.076  0.00  0.00    +0.000 C 
ATOM      2  C   UNL     1      -4.596  11.153  18.186  0.00  0.00    +0.000 A 
ATOM      3  C   UNL     1      -3.817  10.396  17.399  0.00  0.00    +0.000 A 
ATOM      4  C   UNL     1      -2.369  10.477  17.551  0.00  0.00    +0.000 A 
ATOM      5  O   UNL     1      -1.622   9.771  16.873  0.00  0.00    +0.000 OA
ATOM      6  C   UNL     1      -1.848  11.416  18.549  0.00  0.00    +0.000 A 
ATOM      7  C   UNL     1      -0.471  11.544  18.748  0.00  0.00    +0.000 A 
ATOM      8  C   UNL     1       0.045  12.422  19.716  0.00  0.00    +0.000 A 
ATOM      9  C   UNL     1      -0.867  13.163  20.497  0.00  0.00    +0.000 A 
ATOM     10  C   UNL     1      -2.264  13.031  20.339  0.00  0.00    +0.000 A 
ATOM     11  C   UNL     1      -2.739  12.157  19.327  0.00  0.00    +0.000 A 
ATOM     12  O   UNL     1      -4.108  12.026  19.150  0.00  0.00    +0.000 OA
ENDROOT
BRANCH  10  13
ATOM     13  C   UNL     1      -3.247  13.682  21.309  0.00  0.00    +0.000 C 
ATOM     14  C   UNL     1      -3.054  13.266  22.779  0.00  0.00    +0.000 C 
ATOM     15  C   UNL     1      -4.348  13.566  23.538  0.00  0.00    +0.000 C 
ATOM     16  N   UNL     1      -4.789  14.963  23.449  0.00  0.00    +0.000 NA
ATOM     17  C   UNL     1      -4.156  15.807  24.452  0.00  0.00    +0.000 C 
ATOM     18  C   UNL     1      -4.740  15.527  22.082  0.00  0.00    +0.000 C 
ATOM     19  C   UNL     1      -3.482  15.210  21.232  0.00  0.00    +0.000 C 
BRANCH  19  20
ATOM     20  O   UNL     1      -2.391  16.025  21.670  0.00  0.00    +0.000 OA
ATOM     21  H   UNL     1      -1.694  15.993  20.997  0.00  0.00    +0.000 HD
ENDBRANCH  19  20
ENDBRANCH  10  13
BRANCH   7  22
ATOM     22  O   UNL     1       0.426  10.789  18.023  0.00  0.00    +0.000 OA
ATOM     23  H   UNL     1       0.933  11.386  17.426  0.00  0.00    +0.000 HD
ENDBRANCH   7  22
BRANCH   9  24
ATOM     24  O   UNL     1      -0.435  14.030  21.467  0.00  0.00    +0.000 OA
ATOM     25  H   UNL     1      -0.762  13.741  22.336  0.00  0.00    +0.000 HD
ENDBRANCH   9  24
BRANCH   8  26
ATOM     26  C   UNL     1       1.551  12.484  19.907  0.00  0.00    +0.000 C 
BRANCH  26  27
ATOM     27  N   UNL     1       2.141  13.803  19.602  0.00  0.00    +0.000 NA
ATOM     28  C   UNL     1       2.526  13.855  18.172  0.00  0.00    +0.000 C 
ATOM     29  C   UNL     1       3.181  15.206  17.791  0.00  0.00    +0.000 C 
ATOM     30  N   UNL     1       4.345  15.597  18.609  0.00  0.00    +0.000 NA
ATOM     31  C   UNL     1       5.541  14.833  18.260  0.00  0.00    +0.000 C 
ATOM     32  C   UNL     1       4.003  15.438  20.036  0.00  0.00    +0.000 C 
ATOM     33  C   UNL     1       3.361  14.079  20.404  0.00  0.00    +0.000 C 
ENDBRANCH  26  27
ENDBRANCH   8  26
TORSDOF 6
ENDMDL
MODEL 7
REMARK VINA RESULT:      -5.9      0.851      1.407
REMARK  Name = 
REMARK  9 active torsions:
REMARK  status: ('A' for Active; 'I' for Inactive)
REMARK    1  A    between atoms: C_1  and  C_2
REMARK    2  A    between atoms: C_7  and  O_8
REMARK    3  A    between atoms: C_9  and  C_10
REMARK    4  A    between atoms: C_10  and  N_11
REMARK    5  A    between atoms: N_14  and  C_15
REMARK    6  A    between atoms: C_18  and  O_19
REMARK    7  A    between atoms: C_20  and  C_21
REMARK    8  A    between atoms: N_24  and  C_25
REMARK    9  A    between atoms: C_27  and  O_28
REMARK                            x       y       z     vdW  Elec       q    Type
REMARK                         _______ _______ _______ _____ _____    ______ ____
ROOT
ATOM      1  C   UNL     1      -2.812  10.704  15.402  0.00  0.00    +0.000 C 
ATOM      2  C   UNL     1      -3.535  11.156  16.629  0.00  0.00    +0.000 A 
ATOM      3  C   UNL     1      -4.876  11.162  16.686  0.00  0.00    +0.000 A 
ATOM      4  C   UNL     1      -5.529  11.615  17.909  0.00  0.00    +0.000 A 
ATOM      5  O   UNL     1      -6.757  11.669  17.985  0.00  0.00    +0.000 OA
ATOM      6  C   UNL     1      -4.667  12.013  19.025  0.00  0.00    +0.000 A 
ATOM      7  C   UNL     1      -5.226  12.458  20.226  0.00  0.00    +0.000 A 
ATOM      8  C   UNL     1      -4.415  12.866  21.298  0.00  0.00    +0.000 A 
ATOM      9  C   UNL     1      -3.015  12.829  21.126  0.00  0.00    +0.000 A 
ATOM     10  C   UNL     1      -2.423  12.413  19.913  0.00  0.00    +0.000 A 
ATOM     11  C   UNL     1      -3.280  11.979  18.869  0.00  0.00    +0.000 A 
ATOM     12  O   UNL     1      -2.715  11.555  17.677  0.00  0.00    +0.000 OA
ENDROOT
BRANCH  10  13
ATOM     13  C   UNL     1      -0.924  12.558  19.660  0.00  0.00    +0.000 C 
ATOM     14  C   UNL     1      -0.404  14.003  19.753  0.00  0.00    +0.000 C 
ATOM     15  C   UNL     1       0.935  14.081  19.016  0.00  0.00    +0.000 C 
ATOM     16  N   UNL     1       1.946  13.135  19.501  0.00  0.00    +0.000 NA
ATOM     17  C   UNL     1       2.689  13.656  20.639  0.00  0.00    +0.000 C 
ATOM     18  C   UNL     1       1.441  11.759  19.701  0.00  0.00    +0.000 C 
ATOM     19  C   UNL     1       0.058  11.607  20.389  0.00  0.00    +0.000 C 
BRANCH  19  20
ATOM     20  O   UNL     1       0.197  11.824  21.796  0.00  0.00    +0.000 OA
ATOM     21  H   UNL     1       1.131  11.718  22.032  0.00  0.00    +0.000 HD
ENDBRANCH  19  20
ENDBRANCH  10  13
BRANCH   7  22
ATOM     22  O   UNL     1      -6.592  12.543  20.386  0.00  0.00    +0.000 OA
ATOM     23  H   UNL     1      -6.988  12.890  19.554  0.00  0.00    +0.000 HD
ENDBRANCH   7  22
BRANCH   9  24
ATOM     24  O   UNL     1      -2.163  13.223  22.125  0.00  0.00    +0.000 OA
ATOM     25  H   UNL     1      -2.637  13.240  22.974  0.00  0.00    +0.000 HD
ENDBRANCH   9  24
BRANCH   8  26
ATOM     26  C   UNL     1      -5.087  13.375  22.562  0.00  0.00    +0.000 C 
BRANCH  26  27
ATOM     27  N   UNL     1      -5.909  14.586  22.359  0.00  0.00    +0.000 NA
ATOM     28  C   UNL     1      -5.025  15.746  22.097  0.00  0.00    +0.000 C 
ATOM     29  C   UNL     1      -5.824  17.058  21.905  0.00  0.00    +0.000 C 
ATOM     30  N   UNL     1      -6.747  17.404  23.002  0.00  0.00    +0.000 NA
ATOM     31  C   UNL     1      -6.038  17.920  24.172  0.00  0.00    +0.000 C 
ATOM     32  C   UNL     1      -7.553  16.215  23.344  0.00  0.00    +0.000 C 
ATOM     33  C   UNL     1      -6.739  14.914  23.546  0.00  0.00    +0.000 C 
ENDBRANCH  26  27
ENDBRANCH   8  26
TORSDOF 6
ENDMDL
MODEL 8
REMARK VINA RESULT:      -5.9      5.326      9.293
REMARK  Name = 
REMARK  9 active torsions:
REMARK  status: ('A' for Active; 'I' for Inactive)
REMARK    1  A    between atoms: C_1  and  C_2
REMARK    2  A    between atoms: C_7  and  O_8
REMARK    3  A    between atoms: C_9  and  C_10
REMARK    4  A    between atoms: C_10  and  N_11
REMARK    5  A    between atoms: N_14  and  C_15
REMARK    6  A    between atoms: C_18  and  O_19
REMARK    7  A    between atoms: C_20  and  C_21
REMARK    8  A    between atoms: N_24  and  C_25
REMARK    9  A    between atoms: C_27  and  O_28
REMARK                            x       y       z     vdW  Elec       q    Type
REMARK                         _______ _______ _______ _____ _____    ______ ____
ROOT
ATOM      1  C   UNL     1      -1.176  13.210  23.440  0.00  0.00    +0.000 C 
ATOM      2  C   UNL     1      -0.749  12.040  22.614  0.00  0.00    +0.000 A 
ATOM      3  C   UNL     1      -1.029  10.783  22.989  0.00  0.00    +0.000 A 
ATOM      4  C   UNL     1      -0.586   9.678  22.145  0.00  0.00    +0.000 A 
ATOM      5  O   UNL     1      -0.792   8.510  22.475  0.00  0.00    +0.000 OA
ATOM      6  C   UNL     1       0.121  10.019  20.907  0.00  0.00    +0.000 A 
ATOM      7  C   UNL     1       0.574   9.010  20.053  0.00  0.00    +0.000 A 
ATOM      8  C   UNL     1       1.274   9.318  18.874  0.00  0.00    +0.000 A 
ATOM      9  C   UNL     1       1.523  10.676  18.581  0.00  0.00    +0.000 A 
ATOM     10  C   UNL     1       1.104  11.714  19.442  0.00  0.00    +0.000 A 
ATOM     11  C   UNL     1       0.372  11.358  20.605  0.00  0.00    +0.000 A 
ATOM     12  O   UNL     1      -0.058  12.366  21.454  0.00  0.00    +0.000 OA
ENDROOT
BRANCH  10  13
ATOM     13  C   UNL     1       1.540  13.160  19.227  0.00  0.00    +0.000 C 
ATOM     14  C   UNL     1       0.389  14.182  19.275  0.00  0.00    +0.000 C 
ATOM     15  C   UNL     1       0.851  15.461  18.574  0.00  0.00    +0.000 C 
ATOM     16  N   UNL     1       2.081  16.041  19.126  0.00  0.00    +0.000 NA
ATOM     17  C   UNL     1       1.819  16.912  20.263  0.00  0.00    +0.000 C 
ATOM     18  C   UNL     1       3.158  15.056  19.368  0.00  0.00    +0.000 C 
ATOM     19  C   UNL     1       2.751  13.709  20.021  0.00  0.00    +0.000 C 
BRANCH  19  20
ATOM     20  O   UNL     1       2.533  13.903  21.421  0.00  0.00    +0.000 OA
ATOM     21  H   UNL     1       1.596  13.740  21.612  0.00  0.00    +0.000 HD
ENDBRANCH  19  20
ENDBRANCH  10  13
BRANCH   7  22
ATOM     22  O   UNL     1       0.377   7.680  20.354  0.00  0.00    +0.000 OA
ATOM     23  H   UNL     1      -0.497   7.582  20.797  0.00  0.00    +0.000 HD
ENDBRANCH   7  22
BRANCH   9  24
ATOM     24  O   UNL     1       2.209  11.048  17.454  0.00  0.00    +0.000 OA
ATOM     25  H   UNL     1       2.415  10.263  16.919  0.00  0.00    +0.000 HD
ENDBRANCH   9  24
BRANCH   8  26
ATOM     26  C   UNL     1       1.772   8.172  18.008  0.00  0.00    +0.000 C 
BRANCH  26  27
ATOM     27  N   UNL     1       2.974   7.498  18.538  0.00  0.00    +0.000 NA
ATOM     28  C   UNL     1       3.965   7.323  17.450  0.00  0.00    +0.000 C 
ATOM     29  C   UNL     1       5.242   6.593  17.932  0.00  0.00    +0.000 C 
ATOM     30  N   UNL     1       5.016   5.287  18.581  0.00  0.00    +0.000 NA
ATOM     31  C   UNL     1       4.695   4.242  17.612  0.00  0.00    +0.000 C 
ATOM     32  C   UNL     1       3.948   5.431  19.590  0.00  0.00    +0.000 C 
ATOM     33  C   UNL     1       2.674   6.152  19.090  0.00  0.00    +0.000 C 
ENDBRANCH  26  27
ENDBRANCH   8  26
TORSDOF 6
ENDMDL
MODEL 9
REMARK VINA RESULT:      -5.9      3.450      9.168
REMARK  Name = 
REMARK  9 active torsions:
REMARK  status: ('A' for Active; 'I' for Inactive)
REMARK    1  A    between atoms: C_1  and  C_2
REMARK    2  A    between atoms: C_7  and  O_8
REMARK    3  A    between atoms: C_9  and  C_10
REMARK    4  A    between atoms: C_10  and  N_11
REMARK    5  A    between atoms: N_14  and  C_15
REMARK    6  A    between atoms: C_18  and  O_19
REMARK    7  A    between atoms: C_20  and  C_21
REMARK    8  A    between atoms: N_24  and  C_25
REMARK    9  A    between atoms: C_27  and  O_28
REMARK                            x       y       z     vdW  Elec       q    Type
REMARK                         _______ _______ _______ _____ _____    ______ ____
ROOT
ATOM      1  C   UNL     1       1.061  16.452  21.115  0.00  0.00    +0.000 C 
ATOM      2  C   UNL     1       1.376  15.214  20.337  0.00  0.00    +0.000 A 
ATOM      3  C   UNL     1       2.402  15.176  19.473  0.00  0.00    +0.000 A 
ATOM      4  C   UNL     1       2.662  13.943  18.739  0.00  0.00    +0.000 A 
ATOM      5  O   UNL     1       3.571  13.881  17.911  0.00  0.00    +0.000 OA
ATOM      6  C   UNL     1       1.791  12.797  19.018  0.00  0.00    +0.000 A 
ATOM      7  C   UNL     1       1.983  11.585  18.349  0.00  0.00    +0.000 A 
ATOM      8  C   UNL     1       1.142  10.484  18.587  0.00  0.00    +0.000 A 
ATOM      9  C   UNL     1       0.086  10.638  19.509  0.00  0.00    +0.000 A 
ATOM     10  C   UNL     1      -0.150  11.861  20.176  0.00  0.00    +0.000 A 
ATOM     11  C   UNL     1       0.743  12.936  19.929  0.00  0.00    +0.000 A 
ATOM     12  O   UNL     1       0.533  14.139  20.586  0.00  0.00    +0.000 OA
ENDROOT
BRANCH  10  13
ATOM     13  C   UNL     1      -1.401  12.086  21.020  0.00  0.00    +0.000 C 
ATOM     14  C   UNL     1      -1.117  12.543  22.463  0.00  0.00    +0.000 C 
ATOM     15  C   UNL     1      -2.356  12.254  23.313  0.00  0.00    +0.000 C 
ATOM     16  N   UNL     1      -3.590  12.868  22.809  0.00  0.00    +0.000 NA
ATOM     17  C   UNL     1      -3.752  14.240  23.270  0.00  0.00    +0.000 C 
ATOM     18  C   UNL     1      -3.797  12.703  21.354  0.00  0.00    +0.000 C 
ATOM     19  C   UNL     1      -2.566  12.921  20.434  0.00  0.00    +0.000 C 
BRANCH  19  20
ATOM     20  O   UNL     1      -2.313  14.322  20.299  0.00  0.00    +0.000 OA
ATOM     21  H   UNL     1      -1.390  14.493  20.540  0.00  0.00    +0.000 HD
ENDBRANCH  19  20
ENDBRANCH  10  13
BRANCH   7  22
ATOM     22  O   UNL     1       2.982  11.440  17.412  0.00  0.00    +0.000 OA
ATOM     23  H   UNL     1       3.727  10.940  17.818  0.00  0.00    +0.000 HD
ENDBRANCH   7  22
BRANCH   9  24
ATOM     24  O   UNL     1      -0.779   9.610  19.781  0.00  0.00    +0.000 OA
ATOM     25  H   UNL     1      -1.690   9.884  19.581  0.00  0.00    +0.000 HD
ENDBRANCH   9  24
BRANCH   8  26
ATOM     26  C   UNL     1       1.383   9.208  17.798  0.00  0.00    +0.000 C 
BRANCH  26  27
ATOM     27  N   UNL     1       2.443   8.346  18.359  0.00  0.00    +0.000 NA
ATOM     28  C   UNL     1       3.231   7.749  17.255  0.00  0.00    +0.000 C 
ATOM     29  C   UNL     1       4.344   6.806  17.774  0.00  0.00    +0.000 C 
ATOM     30  N   UNL     1       3.891   5.726  18.671  0.00  0.00    +0.000 NA
ATOM     31  C   UNL     1       3.221   4.652  17.940  0.00  0.00    +0.000 C 
ATOM     32  C   UNL     1       3.012   6.300  19.708  0.00  0.00    +0.000 C 
ATOM     33  C   UNL     1       1.896   7.230  19.173  0.00  0.00    +0.000 C 
ENDBRANCH  26  27
ENDBRANCH   8  26
TORSDOF 6
ENDMDL
