MODEL 1
REMARK VINA RESULT:      -8.0      0.000      0.000
REMARK  Name = 
REMARK  14 active torsions:
REMARK  status: ('A' for Active; 'I' for Inactive)
REMARK    1  A    between atoms: C_1  and  C_2
REMARK    2  A    between atoms: C_2  and  C_3
REMARK    3  A    between atoms: C_3  and  N_4
REMARK    4  A    between atoms: N_4  and  C_20
REMARK    5  A    between atoms: C_5  and  C_7
REMARK    6  A    between atoms: C_7  and  O_8
REMARK    7  A    between atoms: O_8  and  C_9
REMARK    8  A    between atoms: C_9  and  C_11
REMARK    9  A    between atoms: C_11  and  C_12
REMARK   10  A    between atoms: C_12  and  O_13
REMARK   11  A    between atoms: O_13  and  C_14
REMARK   12  A    between atoms: C_21  and  N_22
REMARK   13  A    between atoms: N_23  and  C_24
REMARK   14  A    between atoms: C_24  and  C_25
REMARK                            x       y       z     vdW  Elec       q    Type
REMARK                         _______ _______ _______ _____ _____    ______ ____
ROOT
ATOM      1  N   UNL     1       2.890   4.847  18.378  0.00  0.00    +0.000 N 
ATOM      2  C   UNL     1       4.267   4.427  18.434  0.00  0.00    +0.000 C 
ATOM      3  O   UNL     1       4.694   3.438  17.945  0.00  0.00    +0.000 OA
ENDROOT
BRANCH   1   4
ATOM      4  C   UNL     1       2.425   5.957  19.108  0.00  0.00    +0.000 A 
ATOM      5  C   UNL     1       2.264   7.214  18.598  0.00  0.00    +0.000 A 
ATOM      6  N   UNL     1       1.928   8.267  19.432  0.00  0.00    +0.000 N 
ATOM      7  C   UNL     1       1.457   8.077  20.725  0.00  0.00    +0.000 A 
ATOM      8  O   UNL     1       0.929   8.897  21.442  0.00  0.00    +0.000 OA
ATOM      9  N   UNL     1       1.623   6.845  21.233  0.00  0.00    +0.000 N 
ATOM     10  C   UNL     1       2.121   5.801  20.579  0.00  0.00    +0.000 A 
ATOM     11  O   UNL     1       2.274   4.795  21.260  0.00  0.00    +0.000 OA
ATOM     12  H   UNL     1       1.354   6.690  22.193  0.00  0.00    +0.000 HD
BRANCH   5  13
ATOM     13  N   UNL     1       2.397   7.482  17.234  0.00  0.00    +0.000 N 
ATOM     14  H   UNL     1       1.824   8.230  16.907  0.00  0.00    +0.000 HD
ATOM     15  H   UNL     1       2.113   6.697  16.639  0.00  0.00    +0.000 HD
ENDBRANCH   5  13
BRANCH   6  16
ATOM     16  C   UNL     1       1.972   9.636  18.882  0.00  0.00    +0.000 C 
BRANCH  16  17
ATOM     17  C   UNL     1       0.640  10.338  18.686  0.00  0.00    +0.000 A 
ATOM     18  C   UNL     1       0.475  11.663  19.141  0.00  0.00    +0.000 A 
ATOM     19  C   UNL     1      -0.690  12.377  18.848  0.00  0.00    +0.000 A 
ATOM     20  C   UNL     1      -1.678  11.794  18.057  0.00  0.00    +0.000 A 
ATOM     21  C   UNL     1      -1.529  10.485  17.602  0.00  0.00    +0.000 A 
ATOM     22  C   UNL     1      -0.390   9.754  17.940  0.00  0.00    +0.000 A 
ENDBRANCH  16  17
ENDBRANCH   6  16
ENDBRANCH   1   4
BRANCH   1  23
ATOM     23  C   UNL     1       1.870   3.997  17.664  0.00  0.00    +0.000 C 
BRANCH  23  25
ATOM     24  C   UNL     1       0.573   2.518  19.387  0.00  0.00    +0.000 C 
ATOM     25  C   UNL     1       1.593   2.593  18.282  0.00  0.00    +0.000 C 
ENDBRANCH  23  25
ENDBRANCH   1  23
BRANCH   2  26
ATOM     26  C   UNL     1       5.251   5.326  19.258  0.00  0.00    +0.000 C 
BRANCH  26  27
ATOM     27  O   UNL     1       6.561   4.883  19.463  0.00  0.00    +0.000 OA
BRANCH  27  28
ATOM     28  C   UNL     1       7.440   5.584  18.715  0.00  0.00    +0.000 C 
ATOM     29  O   UNL     1       8.034   6.595  19.092  0.00  0.00    +0.000 OA
BRANCH  28  30
ATOM     30  C   UNL     1       7.577   4.977  17.363  0.00  0.00    +0.000 C 
BRANCH  30  31
ATOM     31  C   UNL     1       6.861   5.813  16.307  0.00  0.00    +0.000 C 
BRANCH  31  32
ATOM     32  O   UNL     1       7.594   5.709  15.088  0.00  0.00    +0.000 OA
BRANCH  32  33
ATOM     33  C   UNL     1       7.042   4.910  14.126  0.00  0.00    +0.000 A 
ATOM     34  C   UNL     1       7.744   4.876  12.920  0.00  0.00    +0.000 A 
ATOM     35  C   UNL     1       7.241   4.170  11.827  0.00  0.00    +0.000 A 
ATOM     36  C   UNL     1       6.055   3.452  11.948  0.00  0.00    +0.000 A 
ATOM     37  C   UNL     1       5.375   3.439  13.165  0.00  0.00    +0.000 A 
ATOM     38  C   UNL     1       5.865   4.167  14.255  0.00  0.00    +0.000 A 
ENDBRANCH  32  33
ENDBRANCH  31  32
ENDBRANCH  30  31
ENDBRANCH  28  30
ENDBRANCH  27  28
ENDBRANCH  26  27
ENDBRANCH   2  26
TORSDOF 13
ENDMDL
MODEL 2
REMARK VINA RESULT:      -7.9      3.070      4.654
REMARK  Name = 
REMARK  14 active torsions:
REMARK  status: ('A' for Active; 'I' for Inactive)
REMARK    1  A    between atoms: C_1  and  C_2
REMARK    2  A    between atoms: C_2  and  C_3
REMARK    3  A    between atoms: C_3  and  N_4
REMARK    4  A    between atoms: N_4  and  C_20
REMARK    5  A    between atoms: C_5  and  C_7
REMARK    6  A    between atoms: C_7  and  O_8
REMARK    7  A    between atoms: O_8  and  C_9
REMARK    8  A    between atoms: C_9  and  C_11
REMARK    9  A    between atoms: C_11  and  C_12
REMARK   10  A    between atoms: C_12  and  O_13
REMARK   11  A    between atoms: O_13  and  C_14
REMARK   12  A    between atoms: C_21  and  N_22
REMARK   13  A    between atoms: N_23  and  C_24
REMARK   14  A    between atoms: C_24  and  C_25
REMARK                            x       y       z     vdW  Elec       q    Type
REMARK                         _______ _______ _______ _____ _____    ______ ____
ROOT
ATOM      1  N   UNL     1       3.506   4.898  18.050  0.00  0.00    +0.000 N 
ATOM      2  C   UNL     1       4.942   4.807  17.973  0.00  0.00    +0.000 C 
ATOM      3  O   UNL     1       5.538   3.956  17.410  0.00  0.00    +0.000 OA
ENDROOT
BRANCH   1   4
ATOM      4  C   UNL     1       2.868   5.854  18.862  0.00  0.00    +0.000 A 
ATOM      5  C   UNL     1       2.544   7.121  18.468  0.00  0.00    +0.000 A 
ATOM      6  N   UNL     1       2.038   8.028  19.383  0.00  0.00    +0.000 N 
ATOM      7  C   UNL     1       1.563   7.646  20.632  0.00  0.00    +0.000 A 
ATOM      8  O   UNL     1       0.904   8.310  21.401  0.00  0.00    +0.000 OA
ATOM      9  N   UNL     1       1.890   6.405  21.027  0.00  0.00    +0.000 N 
ATOM     10  C   UNL     1       2.549   5.511  20.298  0.00  0.00    +0.000 A 
ATOM     11  O   UNL     1       2.826   4.474  20.886  0.00  0.00    +0.000 OA
ATOM     12  H   UNL     1       1.619   6.119  21.956  0.00  0.00    +0.000 HD
BRANCH   5  13
ATOM     13  N   UNL     1       2.674   7.540  17.142  0.00  0.00    +0.000 N 
ATOM     14  H   UNL     1       3.475   8.109  16.970  0.00  0.00    +0.000 HD
ATOM     15  H   UNL     1       1.898   8.132  16.827  0.00  0.00    +0.000 HD
ENDBRANCH   5  13
BRANCH   6  16
ATOM     16  C   UNL     1       1.901   9.438  18.968  0.00  0.00    +0.000 C 
BRANCH  16  17
ATOM     17  C   UNL     1       0.488   9.974  18.820  0.00  0.00    +0.000 A 
ATOM     18  C   UNL     1       0.040  11.007  19.668  0.00  0.00    +0.000 A 
ATOM     19  C   UNL     1      -1.202  11.612  19.460  0.00  0.00    +0.000 A 
ATOM     20  C   UNL     1      -1.986  11.227  18.374  0.00  0.00    +0.000 A 
ATOM     21  C   UNL     1      -1.556  10.206  17.528  0.00  0.00    +0.000 A 
ATOM     22  C   UNL     1      -0.341   9.565  17.768  0.00  0.00    +0.000 A 
ENDBRANCH  16  17
ENDBRANCH   6  16
ENDBRANCH   1   4
BRANCH   1  23
ATOM     23  C   UNL     1       2.648   3.850  17.389  0.00  0.00    +0.000 C 
BRANCH  23  25
ATOM     24  C   UNL     1       0.834   2.517  18.721  0.00  0.00    +0.000 C 
ATOM     25  C   UNL     1       1.182   3.736  17.909  0.00  0.00    +0.000 C 
ENDBRANCH  23  25
ENDBRANCH   1  23
BRANCH   2  26
ATOM     26  C   UNL     1       5.765   5.892  18.749  0.00  0.00    +0.000 C 
BRANCH  26  27
ATOM     27  O   UNL     1       7.128   6.035  18.471  0.00  0.00    +0.000 OA
BRANCH  27  28
ATOM     28  C   UNL     1       7.327   6.731  17.330  0.00  0.00    +0.000 C 
ATOM     29  O   UNL     1       7.586   6.228  16.237  0.00  0.00    +0.000 OA
BRANCH  28  30
ATOM     30  C   UNL     1       7.206   8.193  17.583  0.00  0.00    +0.000 C 
BRANCH  30  31
ATOM     31  C   UNL     1       8.470   8.746  18.233  0.00  0.00    +0.000 C 
BRANCH  31  32
ATOM     32  O   UNL     1       8.456  10.166  18.091  0.00  0.00    +0.000 OA
BRANCH  32  33
ATOM     33  C   UNL     1       9.445  10.841  18.750  0.00  0.00    +0.000 A 
ATOM     34  C   UNL     1      10.515  11.241  17.947  0.00  0.00    +0.000 A 
ATOM     35  C   UNL     1      11.631  11.860  18.510  0.00  0.00    +0.000 A 
ATOM     36  C   UNL     1      11.663  12.127  19.876  0.00  0.00    +0.000 A 
ATOM     37  C   UNL     1      10.576  11.777  20.675  0.00  0.00    +0.000 A 
ATOM     38  C   UNL     1       9.467  11.133  20.115  0.00  0.00    +0.000 A 
ENDBRANCH  32  33
ENDBRANCH  31  32
ENDBRANCH  30  31
ENDBRANCH  28  30
ENDBRANCH  27  28
ENDBRANCH  26  27
ENDBRANCH   2  26
TORSDOF 13
ENDMDL
MODEL 3
REMARK VINA RESULT:      -7.8      3.069      4.725
REMARK  Name = 
REMARK  14 active torsions:
REMARK  status: ('A' for Active; 'I' for Inactive)
REMARK    1  A    between atoms: C_1  and  C_2
REMARK    2  A    between atoms: C_2  and  C_3
REMARK    3  A    between atoms: C_3  and  N_4
REMARK    4  A    between atoms: N_4  and  C_20
REMARK    5  A    between atoms: C_5  and  C_7
REMARK    6  A    between atoms: C_7  and  O_8
REMARK    7  A    between atoms: O_8  and  C_9
REMARK    8  A    between atoms: C_9  and  C_11
REMARK    9  A    between atoms: C_11  and  C_12
REMARK   10  A    between atoms: C_12  and  O_13
REMARK   11  A    between atoms: O_13  and  C_14
REMARK   12  A    between atoms: C_21  and  N_22
REMARK   13  A    between atoms: N_23  and  C_24
REMARK   14  A    between atoms: C_24  and  C_25
REMARK                            x       y       z     vdW  Elec       q    Type
REMARK                         _______ _______ _______ _____ _____    ______ ____
ROOT
ATOM      1  N   UNL     1       2.900   5.116  17.974  0.00  0.00    +0.000 N 
ATOM      2  C   UNL     1       4.298   4.970  17.658  0.00  0.00    +0.000 C 
ATOM      3  O   UNL     1       4.758   4.093  17.012  0.00  0.00    +0.000 OA
ENDROOT
BRANCH   1   4
ATOM      4  C   UNL     1       2.443   6.100  18.871  0.00  0.00    +0.000 A 
ATOM      5  C   UNL     1       2.131   7.385  18.527  0.00  0.00    +0.000 A 
ATOM      6  N   UNL     1       1.818   8.312  19.506  0.00  0.00    +0.000 N 
ATOM      7  C   UNL     1       1.518   7.949  20.814  0.00  0.00    +0.000 A 
ATOM      8  O   UNL     1       1.020   8.642  21.672  0.00  0.00    +0.000 OA
ATOM      9  N   UNL     1       1.835   6.689  21.158  0.00  0.00    +0.000 N 
ATOM     10  C   UNL     1       2.328   5.766  20.340  0.00  0.00    +0.000 A 
ATOM     11  O   UNL     1       2.635   4.712  20.881  0.00  0.00    +0.000 OA
ATOM     12  H   UNL     1       1.693   6.413  22.118  0.00  0.00    +0.000 HD
BRANCH   5  13
ATOM     13  N   UNL     1       2.081   7.804  17.196  0.00  0.00    +0.000 N 
ATOM     14  H   UNL     1       1.192   7.680  16.762  0.00  0.00    +0.000 HD
ATOM     15  H   UNL     1       2.713   7.277  16.583  0.00  0.00    +0.000 HD
ENDBRANCH   5  13
BRANCH   6  16
ATOM     16  C   UNL     1       1.695   9.730  19.114  0.00  0.00    +0.000 C 
BRANCH  16  17
ATOM     17  C   UNL     1       0.287  10.279  18.967  0.00  0.00    +0.000 A 
ATOM     18  C   UNL     1      -0.132  11.351  19.782  0.00  0.00    +0.000 A 
ATOM     19  C   UNL     1      -1.369  11.966  19.570  0.00  0.00    +0.000 A 
ATOM     20  C   UNL     1      -2.176  11.550  18.513  0.00  0.00    +0.000 A 
ATOM     21  C   UNL     1      -1.774  10.492  17.700  0.00  0.00    +0.000 A 
ATOM     22  C   UNL     1      -0.564   9.843  17.945  0.00  0.00    +0.000 A 
ENDBRANCH  16  17
ENDBRANCH   6  16
ENDBRANCH   1   4
BRANCH   1  23
ATOM     23  C   UNL     1       1.903   4.100  17.478  0.00  0.00    +0.000 C 
BRANCH  23  25
ATOM     24  C   UNL     1       2.643   1.821  18.525  0.00  0.00    +0.000 C 
ATOM     25  C   UNL     1       1.604   2.907  18.436  0.00  0.00    +0.000 C 
ENDBRANCH  23  25
ENDBRANCH   1  23
BRANCH   2  26
ATOM     26  C   UNL     1       5.279   6.025  18.272  0.00  0.00    +0.000 C 
BRANCH  26  27
ATOM     27  O   UNL     1       5.789   7.035  17.450  0.00  0.00    +0.000 OA
BRANCH  27  28
ATOM     28  C   UNL     1       7.085   6.810  17.142  0.00  0.00    +0.000 C 
ATOM     29  O   UNL     1       7.476   6.245  16.121  0.00  0.00    +0.000 OA
BRANCH  28  30
ATOM     30  C   UNL     1       7.974   7.325  18.218  0.00  0.00    +0.000 C 
BRANCH  30  31
ATOM     31  C   UNL     1       8.230   8.820  18.053  0.00  0.00    +0.000 C 
BRANCH  31  32
ATOM     32  O   UNL     1       9.069   9.247  19.125  0.00  0.00    +0.000 OA
BRANCH  32  33
ATOM     33  C   UNL     1       9.379  10.578  19.147  0.00  0.00    +0.000 A 
ATOM     34  C   UNL     1       9.541  11.119  20.424  0.00  0.00    +0.000 A 
ATOM     35  C   UNL     1       9.771  12.485  20.591  0.00  0.00    +0.000 A 
ATOM     36  C   UNL     1       9.887  13.312  19.477  0.00  0.00    +0.000 A 
ATOM     37  C   UNL     1       9.777  12.770  18.198  0.00  0.00    +0.000 A 
ATOM     38  C   UNL     1       9.522  11.404  18.030  0.00  0.00    +0.000 A 
ENDBRANCH  32  33
ENDBRANCH  31  32
ENDBRANCH  30  31
ENDBRANCH  28  30
ENDBRANCH  27  28
ENDBRANCH  26  27
ENDBRANCH   2  26
TORSDOF 13
ENDMDL
MODEL 4
REMARK VINA RESULT:      -7.7      0.601      1.311
REMARK  Name = 
REMARK  14 active torsions:
REMARK  status: ('A' for Active; 'I' for Inactive)
REMARK    1  A    between atoms: C_1  and  C_2
REMARK    2  A    between atoms: C_2  and  C_3
REMARK    3  A    between atoms: C_3  and  N_4
REMARK    4  A    between atoms: N_4  and  C_20
REMARK    5  A    between atoms: C_5  and  C_7
REMARK    6  A    between atoms: C_7  and  O_8
REMARK    7  A    between atoms: O_8  and  C_9
REMARK    8  A    between atoms: C_9  and  C_11
REMARK    9  A    between atoms: C_11  and  C_12
REMARK   10  A    between atoms: C_12  and  O_13
REMARK   11  A    between atoms: O_13  and  C_14
REMARK   12  A    between atoms: C_21  and  N_22
REMARK   13  A    between atoms: N_23  and  C_24
REMARK   14  A    between atoms: C_24  and  C_25
REMARK                            x       y       z     vdW  Elec       q    Type
REMARK                         _______ _______ _______ _____ _____    ______ ____
ROOT
ATOM      1  N   UNL     1       2.918   4.972  18.290  0.00  0.00    +0.000 N 
ATOM      2  C   UNL     1       4.321   4.644  18.267  0.00  0.00    +0.000 C 
ATOM      3  O   UNL     1       4.787   3.696  17.736  0.00  0.00    +0.000 OA
ENDROOT
BRANCH   1   4
ATOM      4  C   UNL     1       2.419   6.034  19.067  0.00  0.00    +0.000 A 
ATOM      5  C   UNL     1       2.240   7.312  18.619  0.00  0.00    +0.000 A 
ATOM      6  N   UNL     1       1.869   8.314  19.499  0.00  0.00    +0.000 N 
ATOM      7  C   UNL     1       1.383   8.050  20.773  0.00  0.00    +0.000 A 
ATOM      8  O   UNL     1       0.828   8.822  21.522  0.00  0.00    +0.000 OA
ATOM      9  N   UNL     1       1.568   6.797  21.221  0.00  0.00    +0.000 N 
ATOM     10  C   UNL     1       2.097   5.798  20.524  0.00  0.00    +0.000 A 
ATOM     11  O   UNL     1       2.261   4.762  21.155  0.00  0.00    +0.000 OA
ATOM     12  H   UNL     1       1.287   6.588  22.168  0.00  0.00    +0.000 HD
BRANCH   5  13
ATOM     13  N   UNL     1       2.387   7.651  17.272  0.00  0.00    +0.000 N 
ATOM     14  H   UNL     1       2.969   7.028  16.755  0.00  0.00    +0.000 HD
ATOM     15  H   UNL     1       2.842   8.560  17.132  0.00  0.00    +0.000 HD
ENDBRANCH   5  13
BRANCH   6  16
ATOM     16  C   UNL     1       1.893   9.710  19.019  0.00  0.00    +0.000 C 
BRANCH  16  17
ATOM     17  C   UNL     1       0.549  10.370  18.769  0.00  0.00    +0.000 A 
ATOM     18  C   UNL     1      -0.385   9.752  17.912  0.00  0.00    +0.000 A 
ATOM     19  C   UNL     1      -1.678  10.265  17.777  0.00  0.00    +0.000 A 
ATOM     20  C   UNL     1      -2.066  11.368  18.533  0.00  0.00    +0.000 A 
ATOM     21  C   UNL     1      -1.154  11.990  19.384  0.00  0.00    +0.000 A 
ATOM     22  C   UNL     1       0.152  11.511  19.478  0.00  0.00    +0.000 A 
ENDBRANCH  16  17
ENDBRANCH   6  16
ENDBRANCH   1   4
BRANCH   1  23
ATOM     23  C   UNL     1       1.921   4.070  17.609  0.00  0.00    +0.000 C 
BRANCH  23  25
ATOM     24  C   UNL     1       0.556   2.480  19.174  0.00  0.00    +0.000 C 
ATOM     25  C   UNL     1       1.726   2.659  18.244  0.00  0.00    +0.000 C 
ENDBRANCH  23  25
ENDBRANCH   1  23
BRANCH   2  26
ATOM     26  C   UNL     1       5.285   5.591  19.061  0.00  0.00    +0.000 C 
BRANCH  26  27
ATOM     27  O   UNL     1       6.512   5.089  19.505  0.00  0.00    +0.000 OA
BRANCH  27  28
ATOM     28  C   UNL     1       7.470   5.229  18.563  0.00  0.00    +0.000 C 
ATOM     29  O   UNL     1       8.304   4.370  18.277  0.00  0.00    +0.000 OA
BRANCH  28  30
ATOM     30  C   UNL     1       7.388   6.573  17.930  0.00  0.00    +0.000 C 
BRANCH  30  31
ATOM     31  C   UNL     1       7.124   6.461  16.431  0.00  0.00    +0.000 C 
BRANCH  31  32
ATOM     32  O   UNL     1       7.389   5.117  16.034  0.00  0.00    +0.000 OA
BRANCH  32  33
ATOM     33  C   UNL     1       7.132   4.820  14.725  0.00  0.00    +0.000 A 
ATOM     34  C   UNL     1       6.066   3.943  14.523  0.00  0.00    +0.000 A 
ATOM     35  C   UNL     1       5.754   3.487  13.242  0.00  0.00    +0.000 A 
ATOM     36  C   UNL     1       6.480   3.946  12.146  0.00  0.00    +0.000 A 
ATOM     37  C   UNL     1       7.513   4.862  12.334  0.00  0.00    +0.000 A 
ATOM     38  C   UNL     1       7.843   5.300  13.622  0.00  0.00    +0.000 A 
ENDBRANCH  32  33
ENDBRANCH  31  32
ENDBRANCH  30  31
ENDBRANCH  28  30
ENDBRANCH  27  28
ENDBRANCH  26  27
ENDBRANCH   2  26
TORSDOF 13
ENDMDL
MODEL 5
REMARK VINA RESULT:      -7.7      1.306      2.082
REMARK  Name = 
REMARK  14 active torsions:
REMARK  status: ('A' for Active; 'I' for Inactive)
REMARK    1  A    between atoms: C_1  and  C_2
REMARK    2  A    between atoms: C_2  and  C_3
REMARK    3  A    between atoms: C_3  and  N_4
REMARK    4  A    between atoms: N_4  and  C_20
REMARK    5  A    between atoms: C_5  and  C_7
REMARK    6  A    between atoms: C_7  and  O_8
REMARK    7  A    between atoms: O_8  and  C_9
REMARK    8  A    between atoms: C_9  and  C_11
REMARK    9  A    between atoms: C_11  and  C_12
REMARK   10  A    between atoms: C_12  and  O_13
REMARK   11  A    between atoms: O_13  and  C_14
REMARK   12  A    between atoms: C_21  and  N_22
REMARK   13  A    between atoms: N_23  and  C_24
REMARK   14  A    between atoms: C_24  and  C_25
REMARK                            x       y       z     vdW  Elec       q    Type
REMARK                         _______ _______ _______ _____ _____    ______ ____
ROOT
ATOM      1  N   UNL     1       2.996   5.136  19.055  0.00  0.00    +0.000 N 
ATOM      2  C   UNL     1       4.285   4.638  19.463  0.00  0.00    +0.000 C 
ATOM      3  O   UNL     1       4.508   3.525  19.792  0.00  0.00    +0.000 OA
ENDROOT
BRANCH   1   4
ATOM      4  C   UNL     1       2.772   6.506  18.820  0.00  0.00    +0.000 A 
ATOM      5  C   UNL     1       2.063   7.333  19.645  0.00  0.00    +0.000 A 
ATOM      6  N   UNL     1       1.787   8.633  19.259  0.00  0.00    +0.000 N 
ATOM      7  C   UNL     1       2.434   9.252  18.197  0.00  0.00    +0.000 A 
ATOM      8  O   UNL     1       2.435  10.432  17.924  0.00  0.00    +0.000 OA
ATOM      9  N   UNL     1       3.122   8.440  17.378  0.00  0.00    +0.000 N 
ATOM     10  C   UNL     1       3.290   7.133  17.548  0.00  0.00    +0.000 A 
ATOM     11  O   UNL     1       3.871   6.567  16.632  0.00  0.00    +0.000 OA
ATOM     12  H   UNL     1       3.549   8.847  16.558  0.00  0.00    +0.000 HD
BRANCH   5  13
ATOM     13  N   UNL     1       1.624   6.922  20.905  0.00  0.00    +0.000 N 
ATOM     14  H   UNL     1       1.284   5.985  20.934  0.00  0.00    +0.000 HD
ATOM     15  H   UNL     1       0.827   7.468  21.253  0.00  0.00    +0.000 HD
ENDBRANCH   5  13
BRANCH   6  16
ATOM     16  C   UNL     1       0.846   9.422  20.078  0.00  0.00    +0.000 C 
BRANCH  16  17
ATOM     17  C   UNL     1      -0.241  10.177  19.335  0.00  0.00    +0.000 A 
ATOM     18  C   UNL     1      -0.425  11.554  19.576  0.00  0.00    +0.000 A 
ATOM     19  C   UNL     1      -1.321  12.300  18.805  0.00  0.00    +0.000 A 
ATOM     20  C   UNL     1      -2.003  11.690  17.755  0.00  0.00    +0.000 A 
ATOM     21  C   UNL     1      -1.832  10.329  17.506  0.00  0.00    +0.000 A 
ATOM     22  C   UNL     1      -0.979   9.573  18.309  0.00  0.00    +0.000 A 
ENDBRANCH  16  17
ENDBRANCH   6  16
ENDBRANCH   1   4
BRANCH   1  23
ATOM     23  C   UNL     1       1.803   4.215  19.034  0.00  0.00    +0.000 C 
BRANCH  23  25
ATOM     24  C   UNL     1       1.465   2.805  21.210  0.00  0.00    +0.000 C 
ATOM     25  C   UNL     1       1.072   4.008  20.395  0.00  0.00    +0.000 C 
ENDBRANCH  23  25
ENDBRANCH   1  23
BRANCH   2  26
ATOM     26  C   UNL     1       5.458   5.675  19.530  0.00  0.00    +0.000 C 
BRANCH  26  27
ATOM     27  O   UNL     1       6.760   5.211  19.742  0.00  0.00    +0.000 OA
BRANCH  27  28
ATOM     28  C   UNL     1       7.599   5.641  18.774  0.00  0.00    +0.000 C 
ATOM     29  O   UNL     1       8.097   6.766  18.726  0.00  0.00    +0.000 OA
BRANCH  28  30
ATOM     30  C   UNL     1       7.823   4.572  17.764  0.00  0.00    +0.000 C 
BRANCH  30  31
ATOM     31  C   UNL     1       6.778   4.633  16.654  0.00  0.00    +0.000 C 
BRANCH  31  32
ATOM     32  O   UNL     1       7.330   5.374  15.567  0.00  0.00    +0.000 OA
BRANCH  32  33
ATOM     33  C   UNL     1       7.063   4.889  14.318  0.00  0.00    +0.000 A 
ATOM     34  C   UNL     1       5.953   4.047  14.243  0.00  0.00    +0.000 A 
ATOM     35  C   UNL     1       5.622   3.413  13.044  0.00  0.00    +0.000 A 
ATOM     36  C   UNL     1       6.375   3.657  11.899  0.00  0.00    +0.000 A 
ATOM     37  C   UNL     1       7.455   4.536  11.954  0.00  0.00    +0.000 A 
ATOM     38  C   UNL     1       7.802   5.153  13.162  0.00  0.00    +0.000 A 
ENDBRANCH  32  33
ENDBRANCH  31  32
ENDBRANCH  30  31
ENDBRANCH  28  30
ENDBRANCH  27  28
ENDBRANCH  26  27
ENDBRANCH   2  26
TORSDOF 13
ENDMDL
MODEL 6
REMARK VINA RESULT:      -7.6      4.009      6.971
REMARK  Name = 
REMARK  14 active torsions:
REMARK  status: ('A' for Active; 'I' for Inactive)
REMARK    1  A    between atoms: C_1  and  C_2
REMARK    2  A    between atoms: C_2  and  C_3
REMARK    3  A    between atoms: C_3  and  N_4
REMARK    4  A    between atoms: N_4  and  C_20
REMARK    5  A    between atoms: C_5  and  C_7
REMARK    6  A    between atoms: C_7  and  O_8
REMARK    7  A    between atoms: O_8  and  C_9
REMARK    8  A    between atoms: C_9  and  C_11
REMARK    9  A    between atoms: C_11  and  C_12
REMARK   10  A    between atoms: C_12  and  O_13
REMARK   11  A    between atoms: O_13  and  C_14
REMARK   12  A    between atoms: C_21  and  N_22
REMARK   13  A    between atoms: N_23  and  C_24
REMARK   14  A    between atoms: C_24  and  C_25
REMARK                            x       y       z     vdW  Elec       q    Type
REMARK                         _______ _______ _______ _____ _____    ______ ____
ROOT
ATOM      1  N   UNL     1       6.218   4.867  17.043  0.00  0.00    +0.000 N 
ATOM      2  C   UNL     1       7.456   4.886  17.781  0.00  0.00    +0.000 C 
ATOM      3  O   UNL     1       8.351   4.130  17.623  0.00  0.00    +0.000 OA
ENDROOT
BRANCH   1   4
ATOM      4  C   UNL     1       5.139   5.702  17.386  0.00  0.00    +0.000 A 
ATOM      5  C   UNL     1       4.374   5.567  18.510  0.00  0.00    +0.000 A 
ATOM      6  N   UNL     1       3.252   6.358  18.689  0.00  0.00    +0.000 N 
ATOM      7  C   UNL     1       3.007   7.494  17.928  0.00  0.00    +0.000 A 
ATOM      8  O   UNL     1       2.195   8.364  18.148  0.00  0.00    +0.000 OA
ATOM      9  N   UNL     1       3.750   7.624  16.816  0.00  0.00    +0.000 N 
ATOM     10  C   UNL     1       4.730   6.809  16.443  0.00  0.00    +0.000 A 
ATOM     11  O   UNL     1       5.214   7.057  15.346  0.00  0.00    +0.000 OA
ATOM     12  H   UNL     1       3.552   8.402  16.205  0.00  0.00    +0.000 HD
BRANCH   5  13
ATOM     13  N   UNL     1       4.702   4.665  19.524  0.00  0.00    +0.000 N 
ATOM     14  H   UNL     1       4.780   3.718  19.220  0.00  0.00    +0.000 HD
ATOM     15  H   UNL     1       3.992   4.612  20.263  0.00  0.00    +0.000 HD
ENDBRANCH   5  13
BRANCH   6  16
ATOM     16  C   UNL     1       2.340   6.037  19.805  0.00  0.00    +0.000 C 
BRANCH  16  17
ATOM     17  C   UNL     1       1.897   4.590  19.932  0.00  0.00    +0.000 A 
ATOM     18  C   UNL     1       1.885   3.972  21.199  0.00  0.00    +0.000 A 
ATOM     19  C   UNL     1       1.349   2.691  21.362  0.00  0.00    +0.000 A 
ATOM     20  C   UNL     1       0.774   2.038  20.274  0.00  0.00    +0.000 A 
ATOM     21  C   UNL     1       0.779   2.637  19.016  0.00  0.00    +0.000 A 
ATOM     22  C   UNL     1       1.363   3.892  18.842  0.00  0.00    +0.000 A 
ENDBRANCH  16  17
ENDBRANCH   6  16
ENDBRANCH   1   4
BRANCH   1  23
ATOM     23  C   UNL     1       5.988   3.822  15.982  0.00  0.00    +0.000 C 
BRANCH  23  25
ATOM     24  C   UNL     1       5.800   3.740  13.375  0.00  0.00    +0.000 C 
ATOM     25  C   UNL     1       6.615   4.113  14.584  0.00  0.00    +0.000 C 
ENDBRANCH  23  25
ENDBRANCH   1  23
BRANCH   2  26
ATOM     26  C   UNL     1       7.588   5.956  18.918  0.00  0.00    +0.000 C 
BRANCH  26  27
ATOM     27  O   UNL     1       8.461   7.033  18.735  0.00  0.00    +0.000 OA
BRANCH  27  28
ATOM     28  C   UNL     1       8.118   7.765  17.652  0.00  0.00    +0.000 C 
ATOM     29  O   UNL     1       8.097   7.342  16.497  0.00  0.00    +0.000 OA
BRANCH  28  30
ATOM     30  C   UNL     1       7.787   9.160  18.049  0.00  0.00    +0.000 C 
BRANCH  30  31
ATOM     31  C   UNL     1       8.992   9.858  18.671  0.00  0.00    +0.000 C 
BRANCH  31  32
ATOM     32  O   UNL     1       9.296  11.007  17.882  0.00  0.00    +0.000 OA
BRANCH  32  33
ATOM     33  C   UNL     1       9.878  12.050  18.546  0.00  0.00    +0.000 A 
ATOM     34  C   UNL     1       9.933  13.244  17.825  0.00  0.00    +0.000 A 
ATOM     35  C   UNL     1      10.581  14.362  18.352  0.00  0.00    +0.000 A 
ATOM     36  C   UNL     1      11.139  14.305  19.626  0.00  0.00    +0.000 A 
ATOM     37  C   UNL     1      11.043  13.132  20.373  0.00  0.00    +0.000 A 
ATOM     38  C   UNL     1      10.415  12.003  19.835  0.00  0.00    +0.000 A 
ENDBRANCH  32  33
ENDBRANCH  31  32
ENDBRANCH  30  31
ENDBRANCH  28  30
ENDBRANCH  27  28
ENDBRANCH  26  27
ENDBRANCH   2  26
TORSDOF 13
ENDMDL
MODEL 7
REMARK VINA RESULT:      -7.5      3.392      4.615
REMARK  Name = 
REMARK  14 active torsions:
REMARK  status: ('A' for Active; 'I' for Inactive)
REMARK    1  A    between atoms: C_1  and  C_2
REMARK    2  A    between atoms: C_2  and  C_3
REMARK    3  A    between atoms: C_3  and  N_4
REMARK    4  A    between atoms: N_4  and  C_20
REMARK    5  A    between atoms: C_5  and  C_7
REMARK    6  A    between atoms: C_7  and  O_8
REMARK    7  A    between atoms: O_8  and  C_9
REMARK    8  A    between atoms: C_9  and  C_11
REMARK    9  A    between atoms: C_11  and  C_12
REMARK   10  A    between atoms: C_12  and  O_13
REMARK   11  A    between atoms: O_13  and  C_14
REMARK   12  A    between atoms: C_21  and  N_22
REMARK   13  A    between atoms: N_23  and  C_24
REMARK   14  A    between atoms: C_24  and  C_25
REMARK                            x       y       z     vdW  Elec       q    Type
REMARK                         _______ _______ _______ _____ _____    ______ ____
ROOT
ATOM      1  N   UNL     1       3.361   5.039  17.935  0.00  0.00    +0.000 N 
ATOM      2  C   UNL     1       4.771   5.085  17.642  0.00  0.00    +0.000 C 
ATOM      3  O   UNL     1       5.358   4.279  17.007  0.00  0.00    +0.000 OA
ENDROOT
BRANCH   1   4
ATOM      4  C   UNL     1       2.759   5.952  18.821  0.00  0.00    +0.000 A 
ATOM      5  C   UNL     1       2.390   7.227  18.496  0.00  0.00    +0.000 A 
ATOM      6  N   UNL     1       1.928   8.090  19.474  0.00  0.00    +0.000 N 
ATOM      7  C   UNL     1       1.539   7.653  20.735  0.00  0.00    +0.000 A 
ATOM      8  O   UNL     1       0.919   8.275  21.568  0.00  0.00    +0.000 OA
ATOM      9  N   UNL     1       1.911   6.405  21.062  0.00  0.00    +0.000 N 
ATOM     10  C   UNL     1       2.538   5.551  20.260  0.00  0.00    +0.000 A 
ATOM     11  O   UNL     1       2.868   4.498  20.790  0.00  0.00    +0.000 OA
ATOM     12  H   UNL     1       1.703   6.080  21.995  0.00  0.00    +0.000 HD
BRANCH   5  13
ATOM     13  N   UNL     1       2.430   7.696  17.181  0.00  0.00    +0.000 N 
ATOM     14  H   UNL     1       3.009   8.497  17.051  0.00  0.00    +0.000 HD
ATOM     15  H   UNL     1       1.517   8.014  16.838  0.00  0.00    +0.000 HD
ENDBRANCH   5  13
BRANCH   6  16
ATOM     16  C   UNL     1       1.741   9.511  19.123  0.00  0.00    +0.000 C 
BRANCH  16  17
ATOM     17  C   UNL     1       0.313   9.986  18.926  0.00  0.00    +0.000 A 
ATOM     18  C   UNL     1      -0.238  10.931  19.816  0.00  0.00    +0.000 A 
ATOM     19  C   UNL     1      -1.497  11.488  19.575  0.00  0.00    +0.000 A 
ATOM     20  C   UNL     1      -2.195  11.145  18.418  0.00  0.00    +0.000 A 
ATOM     21  C   UNL     1      -1.663  10.212  17.531  0.00  0.00    +0.000 A 
ATOM     22  C   UNL     1      -0.431   9.615  17.799  0.00  0.00    +0.000 A 
ENDBRANCH  16  17
ENDBRANCH   6  16
ENDBRANCH   1   4
BRANCH   1  23
ATOM     23  C   UNL     1       2.522   3.895  17.427  0.00  0.00    +0.000 C 
BRANCH  23  25
ATOM     24  C   UNL     1       0.774   2.474  18.756  0.00  0.00    +0.000 C 
ATOM     25  C   UNL     1       1.097   3.761  18.046  0.00  0.00    +0.000 C 
ENDBRANCH  23  25
ENDBRANCH   1  23
BRANCH   2  26
ATOM     26  C   UNL     1       5.588   6.267  18.268  0.00  0.00    +0.000 C 
BRANCH  26  27
ATOM     27  O   UNL     1       6.963   6.108  18.466  0.00  0.00    +0.000 OA
BRANCH  27  28
ATOM     28  C   UNL     1       7.672   6.947  17.680  0.00  0.00    +0.000 C 
ATOM     29  O   UNL     1       7.706   6.897  16.450  0.00  0.00    +0.000 OA
BRANCH  28  30
ATOM     30  C   UNL     1       8.422   7.931  18.507  0.00  0.00    +0.000 C 
BRANCH  30  31
ATOM     31  C   UNL     1       8.264   9.346  17.960  0.00  0.00    +0.000 C 
BRANCH  31  32
ATOM     32  O   UNL     1       8.827  10.253  18.907  0.00  0.00    +0.000 OA
BRANCH  32  33
ATOM     33  C   UNL     1       9.379  11.390  18.389  0.00  0.00    +0.000 A 
ATOM     34  C   UNL     1      10.704  11.259  17.970  0.00  0.00    +0.000 A 
ATOM     35  C   UNL     1      11.414  12.366  17.504  0.00  0.00    +0.000 A 
ATOM     36  C   UNL     1      10.786  13.605  17.411  0.00  0.00    +0.000 A 
ATOM     37  C   UNL     1       9.448  13.733  17.780  0.00  0.00    +0.000 A 
ATOM     38  C   UNL     1       8.743  12.628  18.270  0.00  0.00    +0.000 A 
ENDBRANCH  32  33
ENDBRANCH  31  32
ENDBRANCH  30  31
ENDBRANCH  28  30
ENDBRANCH  27  28
ENDBRANCH  26  27
ENDBRANCH   2  26
TORSDOF 13
ENDMDL
MODEL 8
REMARK VINA RESULT:      -7.5      3.234      4.837
REMARK  Name = 
REMARK  14 active torsions:
REMARK  status: ('A' for Active; 'I' for Inactive)
REMARK    1  A    between atoms: C_1  and  C_2
REMARK    2  A    between atoms: C_2  and  C_3
REMARK    3  A    between atoms: C_3  and  N_4
REMARK    4  A    between atoms: N_4  and  C_20
REMARK    5  A    between atoms: C_5  and  C_7
REMARK    6  A    between atoms: C_7  and  O_8
REMARK    7  A    between atoms: O_8  and  C_9
REMARK    8  A    between atoms: C_9  and  C_11
REMARK    9  A    between atoms: C_11  and  C_12
REMARK   10  A    between atoms: C_12  and  O_13
REMARK   11  A    between atoms: O_13  and  C_14
REMARK   12  A    between atoms: C_21  and  N_22
REMARK   13  A    between atoms: N_23  and  C_24
REMARK   14  A    between atoms: C_24  and  C_25
REMARK                            x       y       z     vdW  Elec       q    Type
REMARK                         _______ _______ _______ _____ _____    ______ ____
ROOT
ATOM      1  N   UNL     1       2.993   5.274  17.914  0.00  0.00    +0.000 N 
ATOM      2  C   UNL     1       4.389   5.195  17.565  0.00  0.00    +0.000 C 
ATOM      3  O   UNL     1       4.880   4.328  16.929  0.00  0.00    +0.000 OA
ENDROOT
BRANCH   1   4
ATOM      4  C   UNL     1       2.505   6.255  18.797  0.00  0.00    +0.000 A 
ATOM      5  C   UNL     1       2.211   7.543  18.449  0.00  0.00    +0.000 A 
ATOM      6  N   UNL     1       1.864   8.466  19.420  0.00  0.00    +0.000 N 
ATOM      7  C   UNL     1       1.513   8.097  20.713  0.00  0.00    +0.000 A 
ATOM      8  O   UNL     1       0.984   8.788  21.555  0.00  0.00    +0.000 OA
ATOM      9  N   UNL     1       1.812   6.835  21.062  0.00  0.00    +0.000 N 
ATOM     10  C   UNL     1       2.333   5.915  20.259  0.00  0.00    +0.000 A 
ATOM     11  O   UNL     1       2.615   4.857  20.806  0.00  0.00    +0.000 OA
ATOM     12  H   UNL     1       1.632   6.554  22.015  0.00  0.00    +0.000 HD
BRANCH   5  13
ATOM     13  N   UNL     1       2.214   7.969  17.119  0.00  0.00    +0.000 N 
ATOM     14  H   UNL     1       1.420   8.516  16.863  0.00  0.00    +0.000 HD
ATOM     15  H   UNL     1       2.187   7.194  16.447  0.00  0.00    +0.000 HD
ENDBRANCH   5  13
BRANCH   6  16
ATOM     16  C   UNL     1       1.761   9.886  19.030  0.00  0.00    +0.000 C 
BRANCH  16  17
ATOM     17  C   UNL     1       0.361  10.448  18.853  0.00  0.00    +0.000 A 
ATOM     18  C   UNL     1      -0.518   9.851  17.927  0.00  0.00    +0.000 A 
ATOM     19  C   UNL     1      -1.853  10.258  17.847  0.00  0.00    +0.000 A 
ATOM     20  C   UNL     1      -2.334  11.227  18.725  0.00  0.00    +0.000 A 
ATOM     21  C   UNL     1      -1.476  11.826  19.645  0.00  0.00    +0.000 A 
ATOM     22  C   UNL     1      -0.131  11.458  19.688  0.00  0.00    +0.000 A 
ENDBRANCH  16  17
ENDBRANCH   6  16
ENDBRANCH   1   4
BRANCH   1  23
ATOM     23  C   UNL     1       2.041   4.194  17.469  0.00  0.00    +0.000 C 
BRANCH  23  25
ATOM     24  C   UNL     1       2.943   1.805  18.036  0.00  0.00    +0.000 C 
ATOM     25  C   UNL     1       1.984   2.918  18.364  0.00  0.00    +0.000 C 
ENDBRANCH  23  25
ENDBRANCH   1  23
BRANCH   2  26
ATOM     26  C   UNL     1       5.326   6.318  18.127  0.00  0.00    +0.000 C 
BRANCH  26  27
ATOM     27  O   UNL     1       6.666   6.014  18.384  0.00  0.00    +0.000 OA
BRANCH  27  28
ATOM     28  C   UNL     1       7.495   6.841  17.709  0.00  0.00    +0.000 C 
ATOM     29  O   UNL     1       7.549   6.932  16.482  0.00  0.00    +0.000 OA
BRANCH  28  30
ATOM     30  C   UNL     1       8.347   7.613  18.653  0.00  0.00    +0.000 C 
BRANCH  30  31
ATOM     31  C   UNL     1       8.389   9.090  18.276  0.00  0.00    +0.000 C 
BRANCH  31  32
ATOM     32  O   UNL     1       8.913   9.816  19.387  0.00  0.00    +0.000 OA
BRANCH  32  33
ATOM     33  C   UNL     1       9.789  10.821  19.083  0.00  0.00    +0.000 A 
ATOM     34  C   UNL     1      10.253  11.544  20.183  0.00  0.00    +0.000 A 
ATOM     35  C   UNL     1      11.082  12.652  20.005  0.00  0.00    +0.000 A 
ATOM     36  C   UNL     1      11.491  13.015  18.725  0.00  0.00    +0.000 A 
ATOM     37  C   UNL     1      11.073  12.267  17.626  0.00  0.00    +0.000 A 
ATOM     38  C   UNL     1      10.221  11.170  17.802  0.00  0.00    +0.000 A 
ENDBRANCH  32  33
ENDBRANCH  31  32
ENDBRANCH  30  31
ENDBRANCH  28  30
ENDBRANCH  27  28
ENDBRANCH  26  27
ENDBRANCH   2  26
TORSDOF 13
ENDMDL
MODEL 9
REMARK VINA RESULT:      -7.3      0.969      1.287
REMARK  Name = 
REMARK  14 active torsions:
REMARK  status: ('A' for Active; 'I' for Inactive)
REMARK    1  A    between atoms: C_1  and  C_2
REMARK    2  A    between atoms: C_2  and  C_3
REMARK    3  A    between atoms: C_3  and  N_4
REMARK    4  A    between atoms: N_4  and  C_20
REMARK    5  A    between atoms: C_5  and  C_7
REMARK    6  A    between atoms: C_7  and  O_8
REMARK    7  A    between atoms: O_8  and  C_9
REMARK    8  A    between atoms: C_9  and  C_11
REMARK    9  A    between atoms: C_11  and  C_12
REMARK   10  A    between atoms: C_12  and  O_13
REMARK   11  A    between atoms: O_13  and  C_14
REMARK   12  A    between atoms: C_21  and  N_22
REMARK   13  A    between atoms: N_23  and  C_24
REMARK   14  A    between atoms: C_24  and  C_25
REMARK                            x       y       z     vdW  Elec       q    Type
REMARK                         _______ _______ _______ _____ _____    ______ ____
ROOT
ATOM      1  N   UNL     1       2.445   5.311  18.131  0.00  0.00    +0.000 N 
ATOM      2  C   UNL     1       3.800   5.108  17.686  0.00  0.00    +0.000 C 
ATOM      3  O   UNL     1       4.176   4.177  17.062  0.00  0.00    +0.000 OA
ENDROOT
BRANCH   1   4
ATOM      4  C   UNL     1       2.100   6.366  18.996  0.00  0.00    +0.000 A 
ATOM      5  C   UNL     1       1.935   7.667  18.612  0.00  0.00    +0.000 A 
ATOM      6  N   UNL     1       1.726   8.653  19.561  0.00  0.00    +0.000 N 
ATOM      7  C   UNL     1       1.386   8.366  20.877  0.00  0.00    +0.000 A 
ATOM      8  O   UNL     1       0.967   9.136  21.712  0.00  0.00    +0.000 OA
ATOM      9  N   UNL     1       1.559   7.090  21.261  0.00  0.00    +0.000 N 
ATOM     10  C   UNL     1       1.946   6.093  20.474  0.00  0.00    +0.000 A 
ATOM     11  O   UNL     1       2.132   5.028  21.048  0.00  0.00    +0.000 OA
ATOM     12  H   UNL     1       1.385   6.861  22.228  0.00  0.00    +0.000 HD
BRANCH   5  13
ATOM     13  N   UNL     1       1.934   8.048  17.269  0.00  0.00    +0.000 N 
ATOM     14  H   UNL     1       1.298   8.785  17.053  0.00  0.00    +0.000 HD
ATOM     15  H   UNL     1       1.639   7.296  16.636  0.00  0.00    +0.000 HD
ENDBRANCH   5  13
BRANCH   6  16
ATOM     16  C   UNL     1       1.764  10.063  19.125  0.00  0.00    +0.000 C 
BRANCH  16  17
ATOM     17  C   UNL     1       0.428  10.728  18.844  0.00  0.00    +0.000 A 
ATOM     18  C   UNL     1       0.355  12.132  18.741  0.00  0.00    +0.000 A 
ATOM     19  C   UNL     1      -0.831  12.757  18.345  0.00  0.00    +0.000 A 
ATOM     20  C   UNL     1      -1.938  11.985  18.000  0.00  0.00    +0.000 A 
ATOM     21  C   UNL     1      -1.880  10.596  18.099  0.00  0.00    +0.000 A 
ATOM     22  C   UNL     1      -0.714   9.975  18.545  0.00  0.00    +0.000 A 
ENDBRANCH  16  17
ENDBRANCH   6  16
ENDBRANCH   1   4
BRANCH   1  23
ATOM     23  C   UNL     1       1.386   4.287  17.815  0.00  0.00    +0.000 C 
BRANCH  23  25
ATOM     24  C   UNL     1       1.180   2.331  19.539  0.00  0.00    +0.000 C 
ATOM     25  C   UNL     1       1.711   2.816  18.216  0.00  0.00    +0.000 C 
ENDBRANCH  23  25
ENDBRANCH   1  23
BRANCH   2  26
ATOM     26  C   UNL     1       4.858   6.180  18.119  0.00  0.00    +0.000 C 
BRANCH  26  27
ATOM     27  O   UNL     1       5.443   6.987  17.138  0.00  0.00    +0.000 OA
BRANCH  27  28
ATOM     28  C   UNL     1       6.759   7.178  17.381  0.00  0.00    +0.000 C 
ATOM     29  O   UNL     1       7.321   8.274  17.377  0.00  0.00    +0.000 OA
BRANCH  28  30
ATOM     30  C   UNL     1       7.438   5.879  17.636  0.00  0.00    +0.000 C 
BRANCH  30  31
ATOM     31  C   UNL     1       7.188   4.894  16.499  0.00  0.00    +0.000 C 
BRANCH  31  32
ATOM     32  O   UNL     1       7.735   5.449  15.303  0.00  0.00    +0.000 OA
BRANCH  32  33
ATOM     33  C   UNL     1       7.267   4.922  14.132  0.00  0.00    +0.000 A 
ATOM     34  C   UNL     1       6.203   4.031  14.276  0.00  0.00    +0.000 A 
ATOM     35  C   UNL     1       5.690   3.354  13.168  0.00  0.00    +0.000 A 
ATOM     36  C   UNL     1       6.210   3.602  11.901  0.00  0.00    +0.000 A 
ATOM     37  C   UNL     1       7.238   4.529  11.743  0.00  0.00    +0.000 A 
ATOM     38  C   UNL     1       7.770   5.190  12.856  0.00  0.00    +0.000 A 
ENDBRANCH  32  33
ENDBRANCH  31  32
ENDBRANCH  30  31
ENDBRANCH  28  30
ENDBRANCH  27  28
ENDBRANCH  26  27
ENDBRANCH   2  26
TORSDOF 13
ENDMDL
