MODEL 1
REMARK VINA RESULT:      -7.1      0.000      0.000
REMARK  Name = 
REMARK  3 active torsions:
REMARK  status: ('A' for Active; 'I' for Inactive)
REMARK    1  A    between atoms: C_1  and  C_2
REMARK    2  A    between atoms: C_5  and  N_6
REMARK    3  A    between atoms: N_11  and  C_12
REMARK                            x       y       z     vdW  Elec       q    Type
REMARK                         _______ _______ _______ _____ _____    ______ ____
ROOT
ATOM      1  N   UNL     1       2.379   7.625  18.855  0.00  0.00    +0.000 N 
ATOM      2  C   UNL     1       1.930   7.541  20.130  0.00  0.00    +0.000 C 
ATOM      3  N   UNL     1       2.354   6.758  21.061  0.00  0.00    +0.000 NA
ATOM      4  C   UNL     1       0.913   8.623  20.288  0.00  0.00    +0.000 C 
ATOM      5  S   UNL     1      -0.200   8.514  21.514  0.00  0.00    +0.000 S 
ATOM      6  N   UNL     1       1.058   9.441  19.191  0.00  0.00    +0.000 N 
ATOM      7  C   UNL     1       1.923   8.810  18.282  0.00  0.00    +0.000 C 
ATOM      8  O   UNL     1       2.226   9.216  17.167  0.00  0.00    +0.000 OA
ATOM      9  H   UNL     1       3.127   6.174  20.716  0.00  0.00    +0.000 HD
ENDROOT
BRANCH   6  10
ATOM     10  C   UNL     1       0.360  10.667  18.950  0.00  0.00    +0.000 A 
ATOM     11  C   UNL     1       0.980  11.916  19.104  0.00  0.00    +0.000 A 
ATOM     12  C   UNL     1       0.283  13.102  18.826  0.00  0.00    +0.000 A 
ATOM     13 CL   UNL     1       1.078  14.619  18.992  0.00  0.00    +0.000 Cl
ATOM     14  C   UNL     1      -1.042  13.072  18.404  0.00  0.00    +0.000 A 
ATOM     15  C   UNL     1      -1.673  11.845  18.282  0.00  0.00    +0.000 A 
ATOM     16 CL   UNL     1      -3.319  11.775  17.783  0.00  0.00    +0.000 Cl
ATOM     17  C   UNL     1      -0.989  10.660  18.562  0.00  0.00    +0.000 A 
ENDBRANCH   6  10
BRANCH   1  22
ATOM     18  C   UNL     1       5.298   3.581  16.046  0.00  0.00    +0.000 C 
ATOM     19  C   UNL     1       4.513   4.624  16.783  0.00  0.00    +0.000 A 
ATOM     20  C   UNL     1       3.245   4.347  17.311  0.00  0.00    +0.000 A 
ATOM     21  C   UNL     1       2.537   5.322  18.026  0.00  0.00    +0.000 A 
ATOM     22  C   UNL     1       3.072   6.600  18.174  0.00  0.00    +0.000 A 
ATOM     23  C   UNL     1       4.339   6.880  17.641  0.00  0.00    +0.000 A 
ATOM     24  C   UNL     1       5.063   5.894  16.971  0.00  0.00    +0.000 A 
ENDBRANCH   1  22
TORSDOF 2
ENDMDL
MODEL 2
REMARK VINA RESULT:      -7.0      0.105      1.875
REMARK  Name = 
REMARK  3 active torsions:
REMARK  status: ('A' for Active; 'I' for Inactive)
REMARK    1  A    between atoms: C_1  and  C_2
REMARK    2  A    between atoms: C_5  and  N_6
REMARK    3  A    between atoms: N_11  and  C_12
REMARK                            x       y       z     vdW  Elec       q    Type
REMARK                         _______ _______ _______ _____ _____    ______ ____
ROOT
ATOM      1  N   UNL     1       2.351   7.657  18.874  0.00  0.00    +0.000 N 
ATOM      2  C   UNL     1       1.917   7.568  20.154  0.00  0.00    +0.000 C 
ATOM      3  N   UNL     1       2.363   6.793  21.082  0.00  0.00    +0.000 NA
ATOM      4  C   UNL     1       0.884   8.633  20.321  0.00  0.00    +0.000 C 
ATOM      5  S   UNL     1      -0.215   8.507  21.559  0.00  0.00    +0.000 S 
ATOM      6  N   UNL     1       1.003   9.452  19.221  0.00  0.00    +0.000 N 
ATOM      7  C   UNL     1       1.869   8.834  18.305  0.00  0.00    +0.000 C 
ATOM      8  O   UNL     1       2.154   9.243  17.186  0.00  0.00    +0.000 OA
ATOM      9  H   UNL     1       3.142   6.221  20.730  0.00  0.00    +0.000 HD
ENDROOT
BRANCH   6  10
ATOM     10  C   UNL     1       0.284  10.665  18.986  0.00  0.00    +0.000 A 
ATOM     11  C   UNL     1      -1.074  10.667  18.634  0.00  0.00    +0.000 A 
ATOM     12  C   UNL     1      -1.765  11.874  18.445  0.00  0.00    +0.000 A 
ATOM     13 CL   UNL     1      -3.439  11.847  18.045  0.00  0.00    +0.000 Cl
ATOM     14  C   UNL     1      -1.121  13.098  18.588  0.00  0.00    +0.000 A 
ATOM     15  C   UNL     1       0.228  13.106  18.903  0.00  0.00    +0.000 A 
ATOM     16 CL   UNL     1       1.060  14.605  19.064  0.00  0.00    +0.000 Cl
ATOM     17  C   UNL     1       0.925  11.910  19.087  0.00  0.00    +0.000 A 
ENDBRANCH   6  10
BRANCH   1  22
ATOM     18  C   UNL     1       5.308   3.658  16.041  0.00  0.00    +0.000 C 
ATOM     19  C   UNL     1       4.514   4.689  16.785  0.00  0.00    +0.000 A 
ATOM     20  C   UNL     1       3.254   4.393  17.323  0.00  0.00    +0.000 A 
ATOM     21  C   UNL     1       2.537   5.357  18.043  0.00  0.00    +0.000 A 
ATOM     22  C   UNL     1       3.054   6.643  18.188  0.00  0.00    +0.000 A 
ATOM     23  C   UNL     1       4.312   6.942  17.645  0.00  0.00    +0.000 A 
ATOM     24  C   UNL     1       5.046   5.967  16.969  0.00  0.00    +0.000 A 
ENDBRANCH   1  22
TORSDOF 2
ENDMDL
MODEL 3
REMARK VINA RESULT:      -7.0      6.776      8.514
REMARK  Name = 
REMARK  3 active torsions:
REMARK  status: ('A' for Active; 'I' for Inactive)
REMARK    1  A    between atoms: C_1  and  C_2
REMARK    2  A    between atoms: C_5  and  N_6
REMARK    3  A    between atoms: N_11  and  C_12
REMARK                            x       y       z     vdW  Elec       q    Type
REMARK                         _______ _______ _______ _____ _____    ______ ____
ROOT
ATOM      1  N   UNL     1       5.146   4.210  18.373  0.00  0.00    +0.000 N 
ATOM      2  C   UNL     1       6.148   5.084  18.627  0.00  0.00    +0.000 C 
ATOM      3  N   UNL     1       6.624   5.421  19.776  0.00  0.00    +0.000 NA
ATOM      4  C   UNL     1       6.683   5.506  17.298  0.00  0.00    +0.000 C 
ATOM      5  S   UNL     1       7.545   6.919  17.185  0.00  0.00    +0.000 S 
ATOM      6  N   UNL     1       6.154   4.627  16.381  0.00  0.00    +0.000 N 
ATOM      7  C   UNL     1       5.172   3.857  17.026  0.00  0.00    +0.000 C 
ATOM      8  O   UNL     1       4.446   3.020  16.502  0.00  0.00    +0.000 OA
ATOM      9  H   UNL     1       6.140   4.914  20.528  0.00  0.00    +0.000 HD
ENDROOT
BRANCH   6  10
ATOM     10  C   UNL     1       6.456   4.576  14.984  0.00  0.00    +0.000 A 
ATOM     11  C   UNL     1       7.451   5.381  14.409  0.00  0.00    +0.000 A 
ATOM     12  C   UNL     1       7.751   5.285  13.042  0.00  0.00    +0.000 A 
ATOM     13 CL   UNL     1       8.999   6.261  12.370  0.00  0.00    +0.000 Cl
ATOM     14  C   UNL     1       7.063   4.401  12.218  0.00  0.00    +0.000 A 
ATOM     15  C   UNL     1       6.055   3.626  12.769  0.00  0.00    +0.000 A 
ATOM     16 CL   UNL     1       5.169   2.538  11.771  0.00  0.00    +0.000 Cl
ATOM     17  C   UNL     1       5.746   3.719  14.127  0.00  0.00    +0.000 A 
ENDBRANCH   6  10
BRANCH   1  22
ATOM     18  C   UNL     1       1.163   2.549  22.135  0.00  0.00    +0.000 C 
ATOM     19  C   UNL     1       2.192   3.004  21.143  0.00  0.00    +0.000 A 
ATOM     20  C   UNL     1       2.053   4.214  20.449  0.00  0.00    +0.000 A 
ATOM     21  C   UNL     1       3.038   4.642  19.549  0.00  0.00    +0.000 A 
ATOM     22  C   UNL     1       4.147   3.837  19.298  0.00  0.00    +0.000 A 
ATOM     23  C   UNL     1       4.284   2.623  19.988  0.00  0.00    +0.000 A 
ATOM     24  C   UNL     1       3.326   2.221  20.919  0.00  0.00    +0.000 A 
ENDBRANCH   1  22
TORSDOF 2
ENDMDL
MODEL 4
REMARK VINA RESULT:      -7.0      6.764      8.709
REMARK  Name = 
REMARK  3 active torsions:
REMARK  status: ('A' for Active; 'I' for Inactive)
REMARK    1  A    between atoms: C_1  and  C_2
REMARK    2  A    between atoms: C_5  and  N_6
REMARK    3  A    between atoms: N_11  and  C_12
REMARK                            x       y       z     vdW  Elec       q    Type
REMARK                         _______ _______ _______ _____ _____    ______ ____
ROOT
ATOM      1  N   UNL     1       5.124   4.191  18.412  0.00  0.00    +0.000 N 
ATOM      2  C   UNL     1       6.127   5.068  18.651  0.00  0.00    +0.000 C 
ATOM      3  N   UNL     1       6.604   5.422  19.795  0.00  0.00    +0.000 NA
ATOM      4  C   UNL     1       6.659   5.470  17.315  0.00  0.00    +0.000 C 
ATOM      5  S   UNL     1       7.522   6.882  17.180  0.00  0.00    +0.000 S 
ATOM      6  N   UNL     1       6.128   4.578  16.413  0.00  0.00    +0.000 N 
ATOM      7  C   UNL     1       5.147   3.818  17.070  0.00  0.00    +0.000 C 
ATOM      8  O   UNL     1       4.420   2.974  16.561  0.00  0.00    +0.000 OA
ATOM      9  H   UNL     1       6.122   4.927  20.555  0.00  0.00    +0.000 HD
ENDROOT
BRANCH   6  10
ATOM     10  C   UNL     1       6.427   4.507  15.016  0.00  0.00    +0.000 A 
ATOM     11  C   UNL     1       5.714   3.669  14.146  0.00  0.00    +0.000 A 
ATOM     12  C   UNL     1       6.004   3.646  12.773  0.00  0.00    +0.000 A 
ATOM     13 CL   UNL     1       5.091   2.633  11.723  0.00  0.00    +0.000 Cl
ATOM     14  C   UNL     1       7.013   4.441  12.241  0.00  0.00    +0.000 A 
ATOM     15  C   UNL     1       7.746   5.247  13.097  0.00  0.00    +0.000 A 
ATOM     16 CL   UNL     1       9.017   6.226  12.473  0.00  0.00    +0.000 Cl
ATOM     17  C   UNL     1       7.468   5.272  14.465  0.00  0.00    +0.000 A 
ENDBRANCH   6  10
BRANCH   1  22
ATOM     18  C   UNL     1       1.146   2.587  22.204  0.00  0.00    +0.000 C 
ATOM     19  C   UNL     1       2.174   3.028  21.204  0.00  0.00    +0.000 A 
ATOM     20  C   UNL     1       2.041   4.233  20.503  0.00  0.00    +0.000 A 
ATOM     21  C   UNL     1       3.024   4.647  19.595  0.00  0.00    +0.000 A 
ATOM     22  C   UNL     1       4.126   3.832  19.345  0.00  0.00    +0.000 A 
ATOM     23  C   UNL     1       4.257   2.622  20.043  0.00  0.00    +0.000 A 
ATOM     24  C   UNL     1       3.301   2.234  20.981  0.00  0.00    +0.000 A 
ENDBRANCH   1  22
TORSDOF 2
ENDMDL
MODEL 5
REMARK VINA RESULT:      -6.9      0.134      1.014
REMARK  Name = 
REMARK  3 active torsions:
REMARK  status: ('A' for Active; 'I' for Inactive)
REMARK    1  A    between atoms: C_1  and  C_2
REMARK    2  A    between atoms: C_5  and  N_6
REMARK    3  A    between atoms: N_11  and  C_12
REMARK                            x       y       z     vdW  Elec       q    Type
REMARK                         _______ _______ _______ _____ _____    ______ ____
ROOT
ATOM      1  N   UNL     1       2.337   7.707  18.898  0.00  0.00    +0.000 N 
ATOM      2  C   UNL     1       1.893   7.605  20.173  0.00  0.00    +0.000 C 
ATOM      3  N   UNL     1       2.332   6.821  21.098  0.00  0.00    +0.000 NA
ATOM      4  C   UNL     1       0.858   8.668  20.342  0.00  0.00    +0.000 C 
ATOM      5  S   UNL     1      -0.251   8.530  21.570  0.00  0.00    +0.000 S 
ATOM      6  N   UNL     1       0.986   9.497  19.252  0.00  0.00    +0.000 N 
ATOM      7  C   UNL     1       1.860   8.888  18.336  0.00  0.00    +0.000 C 
ATOM      8  O   UNL     1       2.154   9.309  17.223  0.00  0.00    +0.000 OA
ATOM      9  H   UNL     1       3.113   6.253  20.746  0.00  0.00    +0.000 HD
ENDROOT
BRANCH   6  10
ATOM     10  C   UNL     1       0.268  10.713  19.022  0.00  0.00    +0.000 A 
ATOM     11  C   UNL     1       0.867  11.971  19.183  0.00  0.00    +0.000 A 
ATOM     12  C   UNL     1       0.149  13.147  18.915  0.00  0.00    +0.000 A 
ATOM     13 CL   UNL     1       0.919  14.676  19.089  0.00  0.00    +0.000 Cl
ATOM     14  C   UNL     1      -1.176  13.098  18.498  0.00  0.00    +0.000 A 
ATOM     15  C   UNL     1      -1.787  11.862  18.369  0.00  0.00    +0.000 A 
ATOM     16 CL   UNL     1      -3.435  11.768  17.876  0.00  0.00    +0.000 Cl
ATOM     17  C   UNL     1      -1.083  10.686  18.638  0.00  0.00    +0.000 A 
ENDBRANCH   6  10
BRANCH   1  22
ATOM     18  C   UNL     1       5.102   3.512  16.153  0.00  0.00    +0.000 C 
ATOM     19  C   UNL     1       4.398   4.626  16.870  0.00  0.00    +0.000 A 
ATOM     20  C   UNL     1       4.980   5.894  16.999  0.00  0.00    +0.000 A 
ATOM     21  C   UNL     1       4.298   6.934  17.644  0.00  0.00    +0.000 A 
ATOM     22  C   UNL     1       3.046   6.699  18.208  0.00  0.00    +0.000 A 
ATOM     23  C   UNL     1       2.465   5.428  18.084  0.00  0.00    +0.000 A 
ATOM     24  C   UNL     1       3.125   4.407  17.401  0.00  0.00    +0.000 A 
ENDBRANCH   1  22
TORSDOF 2
ENDMDL
MODEL 6
REMARK VINA RESULT:      -6.9      6.830      8.522
REMARK  Name = 
REMARK  3 active torsions:
REMARK  status: ('A' for Active; 'I' for Inactive)
REMARK    1  A    between atoms: C_1  and  C_2
REMARK    2  A    between atoms: C_5  and  N_6
REMARK    3  A    between atoms: N_11  and  C_12
REMARK                            x       y       z     vdW  Elec       q    Type
REMARK                         _______ _______ _______ _____ _____    ______ ____
ROOT
ATOM      1  N   UNL     1       5.171   4.130  18.349  0.00  0.00    +0.000 N 
ATOM      2  C   UNL     1       6.147   5.032  18.603  0.00  0.00    +0.000 C 
ATOM      3  N   UNL     1       6.617   5.378  19.753  0.00  0.00    +0.000 NA
ATOM      4  C   UNL     1       6.664   5.476  17.274  0.00  0.00    +0.000 C 
ATOM      5  S   UNL     1       7.484   6.915  17.165  0.00  0.00    +0.000 S 
ATOM      6  N   UNL     1       6.158   4.585  16.355  0.00  0.00    +0.000 N 
ATOM      7  C   UNL     1       5.202   3.783  17.000  0.00  0.00    +0.000 C 
ATOM      8  O   UNL     1       4.499   2.928  16.475  0.00  0.00    +0.000 OA
ATOM      9  H   UNL     1       6.152   4.853  20.504  0.00  0.00    +0.000 HD
ENDROOT
BRANCH   6  10
ATOM     10  C   UNL     1       6.455   4.550  14.957  0.00  0.00    +0.000 A 
ATOM     11  C   UNL     1       7.446   5.365  14.387  0.00  0.00    +0.000 A 
ATOM     12  C   UNL     1       7.742   5.283  13.018  0.00  0.00    +0.000 A 
ATOM     13 CL   UNL     1       8.984   6.271  12.352  0.00  0.00    +0.000 Cl
ATOM     14  C   UNL     1       7.054   4.406  12.187  0.00  0.00    +0.000 A 
ATOM     15  C   UNL     1       6.052   3.622  12.733  0.00  0.00    +0.000 A 
ATOM     16 CL   UNL     1       5.166   2.541  11.727  0.00  0.00    +0.000 Cl
ATOM     17  C   UNL     1       5.746   3.700  14.094  0.00  0.00    +0.000 A 
ENDBRANCH   6  10
BRANCH   1  22
ATOM     18  C   UNL     1       1.105   2.623  22.087  0.00  0.00    +0.000 C 
ATOM     19  C   UNL     1       2.185   2.998  21.117  0.00  0.00    +0.000 A 
ATOM     20  C   UNL     1       3.349   2.229  20.984  0.00  0.00    +0.000 A 
ATOM     21  C   UNL     1       4.335   2.574  20.051  0.00  0.00    +0.000 A 
ATOM     22  C   UNL     1       4.187   3.723  19.277  0.00  0.00    +0.000 A 
ATOM     23  C   UNL     1       3.025   4.497  19.413  0.00  0.00    +0.000 A 
ATOM     24  C   UNL     1       2.023   4.125  20.308  0.00  0.00    +0.000 A 
ENDBRANCH   1  22
TORSDOF 2
ENDMDL
MODEL 7
REMARK VINA RESULT:      -6.9      0.191      2.133
REMARK  Name = 
REMARK  3 active torsions:
REMARK  status: ('A' for Active; 'I' for Inactive)
REMARK    1  A    between atoms: C_1  and  C_2
REMARK    2  A    between atoms: C_5  and  N_6
REMARK    3  A    between atoms: N_11  and  C_12
REMARK                            x       y       z     vdW  Elec       q    Type
REMARK                         _______ _______ _______ _____ _____    ______ ____
ROOT
ATOM      1  N   UNL     1       2.313   7.721  18.908  0.00  0.00    +0.000 N 
ATOM      2  C   UNL     1       1.880   7.620  20.187  0.00  0.00    +0.000 C 
ATOM      3  N   UNL     1       2.335   6.845  21.111  0.00  0.00    +0.000 NA
ATOM      4  C   UNL     1       0.834   8.672  20.359  0.00  0.00    +0.000 C 
ATOM      5  S   UNL     1      -0.264   8.526  21.596  0.00  0.00    +0.000 S 
ATOM      6  N   UNL     1       0.944   9.497  19.264  0.00  0.00    +0.000 N 
ATOM      7  C   UNL     1       1.818   8.895  18.345  0.00  0.00    +0.000 C 
ATOM      8  O   UNL     1       2.099   9.314  17.228  0.00  0.00    +0.000 OA
ATOM      9  H   UNL     1       3.120   6.285  20.756  0.00  0.00    +0.000 HD
ENDROOT
BRANCH   6  10
ATOM     10  C   UNL     1       0.210  10.703  19.035  0.00  0.00    +0.000 A 
ATOM     11  C   UNL     1      -1.153  10.691  18.703  0.00  0.00    +0.000 A 
ATOM     12  C   UNL     1      -1.857  11.891  18.519  0.00  0.00    +0.000 A 
ATOM     13 CL   UNL     1      -3.537  11.848  18.144  0.00  0.00    +0.000 Cl
ATOM     14  C   UNL     1      -1.223  13.122  18.648  0.00  0.00    +0.000 A 
ATOM     15  C   UNL     1       0.131  13.144  18.942  0.00  0.00    +0.000 A 
ATOM     16 CL   UNL     1       0.951  14.651  19.086  0.00  0.00    +0.000 Cl
ATOM     17  C   UNL     1       0.841  11.955  19.121  0.00  0.00    +0.000 A 
ENDBRANCH   6  10
BRANCH   1  22
ATOM     18  C   UNL     1       5.104   3.548  16.156  0.00  0.00    +0.000 C 
ATOM     19  C   UNL     1       4.394   4.657  16.875  0.00  0.00    +0.000 A 
ATOM     20  C   UNL     1       4.976   5.923  17.023  0.00  0.00    +0.000 A 
ATOM     21  C   UNL     1       4.288   6.958  17.669  0.00  0.00    +0.000 A 
ATOM     22  C   UNL     1       3.029   6.719  18.217  0.00  0.00    +0.000 A 
ATOM     23  C   UNL     1       2.448   5.450  18.074  0.00  0.00    +0.000 A 
ATOM     24  C   UNL     1       3.115   4.435  17.389  0.00  0.00    +0.000 A 
ENDBRANCH   1  22
TORSDOF 2
ENDMDL
MODEL 8
REMARK VINA RESULT:      -6.9      6.825      8.727
REMARK  Name = 
REMARK  3 active torsions:
REMARK  status: ('A' for Active; 'I' for Inactive)
REMARK    1  A    between atoms: C_1  and  C_2
REMARK    2  A    between atoms: C_5  and  N_6
REMARK    3  A    between atoms: N_11  and  C_12
REMARK                            x       y       z     vdW  Elec       q    Type
REMARK                         _______ _______ _______ _____ _____    ______ ____
ROOT
ATOM      1  N   UNL     1       5.163   4.114  18.367  0.00  0.00    +0.000 N 
ATOM      2  C   UNL     1       6.131   5.031  18.601  0.00  0.00    +0.000 C 
ATOM      3  N   UNL     1       6.599   5.404  19.743  0.00  0.00    +0.000 NA
ATOM      4  C   UNL     1       6.641   5.454  17.263  0.00  0.00    +0.000 C 
ATOM      5  S   UNL     1       7.446   6.899  17.124  0.00  0.00    +0.000 S 
ATOM      6  N   UNL     1       6.143   4.540  16.363  0.00  0.00    +0.000 N 
ATOM      7  C   UNL     1       5.196   3.742  17.025  0.00  0.00    +0.000 C 
ATOM      8  O   UNL     1       4.501   2.869  16.518  0.00  0.00    +0.000 OA
ATOM      9  H   UNL     1       6.139   4.890  20.505  0.00  0.00    +0.000 HD
ENDROOT
BRANCH   6  10
ATOM     10  C   UNL     1       6.439   4.481  14.965  0.00  0.00    +0.000 A 
ATOM     11  C   UNL     1       5.738   3.634  14.093  0.00  0.00    +0.000 A 
ATOM     12  C   UNL     1       6.025   3.622  12.719  0.00  0.00    +0.000 A 
ATOM     13 CL   UNL     1       5.127   2.597  11.668  0.00  0.00    +0.000 Cl
ATOM     14  C   UNL     1       7.017   4.437  12.188  0.00  0.00    +0.000 A 
ATOM     15  C   UNL     1       7.738   5.252  13.045  0.00  0.00    +0.000 A 
ATOM     16 CL   UNL     1       8.990   6.257  12.421  0.00  0.00    +0.000 Cl
ATOM     17  C   UNL     1       7.464   5.266  14.414  0.00  0.00    +0.000 A 
ENDBRANCH   6  10
BRANCH   1  22
ATOM     18  C   UNL     1       1.123   2.645  22.146  0.00  0.00    +0.000 C 
ATOM     19  C   UNL     1       2.196   3.010  21.164  0.00  0.00    +0.000 A 
ATOM     20  C   UNL     1       3.339   2.216  21.003  0.00  0.00    +0.000 A 
ATOM     21  C   UNL     1       4.319   2.553  20.059  0.00  0.00    +0.000 A 
ATOM     22  C   UNL     1       4.184   3.716  19.304  0.00  0.00    +0.000 A 
ATOM     23  C   UNL     1       3.043   4.514  19.469  0.00  0.00    +0.000 A 
ATOM     24  C   UNL     1       2.046   4.152  20.375  0.00  0.00    +0.000 A 
ENDBRANCH   1  22
TORSDOF 2
ENDMDL
MODEL 9
REMARK VINA RESULT:      -6.8      2.442      3.462
REMARK  Name = 
REMARK  3 active torsions:
REMARK  status: ('A' for Active; 'I' for Inactive)
REMARK    1  A    between atoms: C_1  and  C_2
REMARK    2  A    between atoms: C_5  and  N_6
REMARK    3  A    between atoms: N_11  and  C_12
REMARK                            x       y       z     vdW  Elec       q    Type
REMARK                         _______ _______ _______ _____ _____    ______ ____
ROOT
ATOM      1  N   UNL     1       4.074   5.944  18.190  0.00  0.00    +0.000 N 
ATOM      2  C   UNL     1       3.705   5.101  19.184  0.00  0.00    +0.000 C 
ATOM      3  N   UNL     1       4.286   4.008  19.542  0.00  0.00    +0.000 NA
ATOM      4  C   UNL     1       2.546   5.745  19.870  0.00  0.00    +0.000 C 
ATOM      5  S   UNL     1       1.521   4.808  20.779  0.00  0.00    +0.000 S 
ATOM      6  N   UNL     1       2.513   7.044  19.417  0.00  0.00    +0.000 N 
ATOM      7  C   UNL     1       3.419   7.162  18.351  0.00  0.00    +0.000 C 
ATOM      8  O   UNL     1       3.604   8.159  17.662  0.00  0.00    +0.000 OA
ATOM      9  H   UNL     1       5.120   3.838  18.966  0.00  0.00    +0.000 HD
ENDROOT
BRANCH   6  10
ATOM     10  C   UNL     1       1.628   8.075  19.865  0.00  0.00    +0.000 A 
ATOM     11  C   UNL     1       1.006   8.960  18.972  0.00  0.00    +0.000 A 
ATOM     12  C   UNL     1       0.114   9.939  19.436  0.00  0.00    +0.000 A 
ATOM     13 CL   UNL     1      -0.661  10.990  18.315  0.00  0.00    +0.000 Cl
ATOM     14  C   UNL     1      -0.166  10.068  20.792  0.00  0.00    +0.000 A 
ATOM     15  C   UNL     1       0.469   9.222  21.685  0.00  0.00    +0.000 A 
ATOM     16 CL   UNL     1       0.161   9.371  23.373  0.00  0.00    +0.000 Cl
ATOM     17  C   UNL     1       1.362   8.248  21.233  0.00  0.00    +0.000 A 
ENDBRANCH   6  10
BRANCH   1  22
ATOM     18  C   UNL     1       7.447   4.616  13.759  0.00  0.00    +0.000 C 
ATOM     19  C   UNL     1       6.544   4.950  14.909  0.00  0.00    +0.000 A 
ATOM     20  C   UNL     1       5.273   4.374  15.031  0.00  0.00    +0.000 A 
ATOM     21  C   UNL     1       4.453   4.671  16.128  0.00  0.00    +0.000 A 
ATOM     22  C   UNL     1       4.881   5.587  17.087  0.00  0.00    +0.000 A 
ATOM     23  C   UNL     1       6.152   6.168  16.963  0.00  0.00    +0.000 A 
ATOM     24  C   UNL     1       6.985   5.835  15.896  0.00  0.00    +0.000 A 
ENDBRANCH   1  22
TORSDOF 2
ENDMDL
