MODEL 1
REMARK VINA RESULT:      -9.8      0.000      0.000
REMARK  Name = 
REMARK  6 active torsions:
REMARK  status: ('A' for Active; 'I' for Inactive)
REMARK    1  A    between atoms: C_2  and  C_21
REMARK    2  A    between atoms: N_3  and  C_4
REMARK    3  A    between atoms: C_4  and  C_5
REMARK    4  A    between atoms: C_5  and  C_6
REMARK    5  A    between atoms: C_6  and  N_7
REMARK    6  A    between atoms: N_29  and  C_30
REMARK                            x       y       z     vdW  Elec       q    Type
REMARK                         _______ _______ _______ _____ _____    ______ ____
ROOT
ATOM      1  O   UNL     1       6.024   6.062  19.093  0.00  0.00    +0.000 OA
ATOM      2  C   UNL     1       5.860   6.352  17.908  0.00  0.00    +0.000 C 
ATOM      3  N   UNL     1       6.676   7.230  17.227  0.00  0.00    +0.000 N 
ATOM      4  H   UNL     1       6.477   7.359  16.240  0.00  0.00    +0.000 HD
ENDROOT
BRANCH   2   5
ATOM      5  C   UNL     1       4.649   5.842  17.105  0.00  0.00    +0.000 C 
ATOM      6  C   UNL     1       4.886   4.349  16.755  0.00  0.00    +0.000 C 
ATOM      7  C   UNL     1       3.709   3.671  17.371  0.00  0.00    +0.000 A 
ATOM      8  C   UNL     1       3.392   2.318  17.357  0.00  0.00    +0.000 A 
ATOM      9  C   UNL     1       2.203   1.903  17.958  0.00  0.00    +0.000 A 
ATOM     10  C   UNL     1       1.337   2.840  18.532  0.00  0.00    +0.000 A 
ATOM     11  C   UNL     1       1.664   4.197  18.521  0.00  0.00    +0.000 A 
ATOM     12  C   UNL     1       2.873   4.605  17.972  0.00  0.00    +0.000 A 
ATOM     13  N   UNL     1       3.384   5.922  17.901  0.00  0.00    +0.000 N 
BRANCH  13  14
ATOM     14  C   UNL     1       2.822   7.115  18.350  0.00  0.00    +0.000 A 
ATOM     15  C   UNL     1       2.358   7.220  19.674  0.00  0.00    +0.000 A 
ATOM     16  C   UNL     1       1.660   8.337  20.128  0.00  0.00    +0.000 A 
ATOM     17  C   UNL     1       1.447   9.406  19.270  0.00  0.00    +0.000 A 
ATOM     18  C   UNL     1       1.966   9.365  17.979  0.00  0.00    +0.000 A 
ATOM     19  C   UNL     1       2.659   8.233  17.525  0.00  0.00    +0.000 A 
ENDBRANCH  13  14
ENDBRANCH   2   5
BRANCH   3  20
ATOM     20  C   UNL     1       7.876   7.812  17.788  0.00  0.00    +0.000 C 
BRANCH  20  21
ATOM     21  C   UNL     1       7.804   9.333  17.764  0.00  0.00    +0.000 C 
BRANCH  21  22
ATOM     22  C   UNL     1       8.835   9.987  18.689  0.00  0.00    +0.000 C 
BRANCH  22  23
ATOM     23  N   UNL     1       9.721  10.969  18.037  0.00  0.00    +0.000 NA
ATOM     24  C   UNL     1       9.090  12.273  17.786  0.00  0.00    +0.000 C 
ATOM     25  C   UNL     1       8.767  13.054  19.062  0.00  0.00    +0.000 C 
ATOM     26  C   UNL     1      10.007  13.230  19.965  0.00  0.00    +0.000 C 
ATOM     27  C   UNL     1      10.962  14.322  19.387  0.00  0.00    +0.000 C 
ATOM     28  C   UNL     1      11.197  15.405  20.449  0.00  0.00    +0.000 C 
ATOM     29  C   UNL     1      10.299  15.007  21.567  0.00  0.00    +0.000 A 
ATOM     30  C   UNL     1      10.118  15.686  22.765  0.00  0.00    +0.000 A 
ATOM     31  C   UNL     1       9.252  15.148  23.718  0.00  0.00    +0.000 A 
ATOM     32  C   UNL     1       8.580  13.948  23.465  0.00  0.00    +0.000 A 
ATOM     33  C   UNL     1       8.768  13.271  22.257  0.00  0.00    +0.000 A 
ATOM     34  C   UNL     1       9.633  13.810  21.309  0.00  0.00    +0.000 A 
ATOM     35  C   UNL     1      10.749  11.887  20.140  0.00  0.00    +0.000 C 
ATOM     36  C   UNL     1      10.962  11.164  18.806  0.00  0.00    +0.000 C 
ENDBRANCH  22  23
ENDBRANCH  21  22
ENDBRANCH  20  21
ENDBRANCH   3  20
TORSDOF 6
ENDMDL
MODEL 2
REMARK VINA RESULT:      -9.6      5.221      7.270
REMARK  Name = 
REMARK  6 active torsions:
REMARK  status: ('A' for Active; 'I' for Inactive)
REMARK    1  A    between atoms: C_2  and  C_21
REMARK    2  A    between atoms: N_3  and  C_4
REMARK    3  A    between atoms: C_4  and  C_5
REMARK    4  A    between atoms: C_5  and  C_6
REMARK    5  A    between atoms: C_6  and  N_7
REMARK    6  A    between atoms: N_29  and  C_30
REMARK                            x       y       z     vdW  Elec       q    Type
REMARK                         _______ _______ _______ _____ _____    ______ ____
ROOT
ATOM      1  O   UNL     1       4.017   7.590  17.194  0.00  0.00    +0.000 OA
ATOM      2  C   UNL     1       3.282   7.295  18.136  0.00  0.00    +0.000 C 
ATOM      3  N   UNL     1       2.209   8.067  18.527  0.00  0.00    +0.000 N 
ATOM      4  H   UNL     1       1.643   7.702  19.287  0.00  0.00    +0.000 HD
ENDROOT
BRANCH   2   5
ATOM      5  C   UNL     1       3.570   6.082  19.043  0.00  0.00    +0.000 C 
ATOM      6  C   UNL     1       2.336   5.849  19.954  0.00  0.00    +0.000 C 
ATOM      7  C   UNL     1       1.936   4.451  19.621  0.00  0.00    +0.000 A 
ATOM      8  C   UNL     1       0.891   3.705  20.154  0.00  0.00    +0.000 A 
ATOM      9  C   UNL     1       0.727   2.386  19.731  0.00  0.00    +0.000 A 
ATOM     10  C   UNL     1       1.619   1.821  18.815  0.00  0.00    +0.000 A 
ATOM     11  C   UNL     1       2.674   2.580  18.304  0.00  0.00    +0.000 A 
ATOM     12  C   UNL     1       2.806   3.909  18.682  0.00  0.00    +0.000 A 
ATOM     13  N   UNL     1       3.784   4.834  18.246  0.00  0.00    +0.000 N 
BRANCH  13  14
ATOM     14  C   UNL     1       4.837   4.653  17.351  0.00  0.00    +0.000 A 
ATOM     15  C   UNL     1       6.165   4.685  17.812  0.00  0.00    +0.000 A 
ATOM     16  C   UNL     1       7.253   4.654  16.942  0.00  0.00    +0.000 A 
ATOM     17  C   UNL     1       7.033   4.545  15.576  0.00  0.00    +0.000 A 
ATOM     18  C   UNL     1       5.731   4.428  15.097  0.00  0.00    +0.000 A 
ATOM     19  C   UNL     1       4.641   4.470  15.978  0.00  0.00    +0.000 A 
ENDBRANCH  13  14
ENDBRANCH   2   5
BRANCH   3  20
ATOM     20  C   UNL     1       1.756   9.237  17.807  0.00  0.00    +0.000 C 
BRANCH  20  21
ATOM     21  C   UNL     1       0.466   9.778  18.409  0.00  0.00    +0.000 C 
BRANCH  21  22
ATOM     22  C   UNL     1       0.686  10.442  19.772  0.00  0.00    +0.000 C 
BRANCH  22  23
ATOM     23  N   UNL     1      -0.396  11.346  20.205  0.00  0.00    +0.000 NA
ATOM     24  C   UNL     1       0.024  12.361  21.182  0.00  0.00    +0.000 C 
ATOM     25  C   UNL     1       0.987  13.402  20.609  0.00  0.00    +0.000 C 
ATOM     26  C   UNL     1       0.420  14.085  19.345  0.00  0.00    +0.000 C 
ATOM     27  C   UNL     1      -0.679  15.126  19.725  0.00  0.00    +0.000 C 
ATOM     28  C   UNL     1      -0.297  16.499  19.155  0.00  0.00    +0.000 C 
ATOM     29  C   UNL     1       1.052  16.276  18.568  0.00  0.00    +0.000 A 
ATOM     30  C   UNL     1       1.852  17.229  17.950  0.00  0.00    +0.000 A 
ATOM     31  C   UNL     1       3.084  16.834  17.427  0.00  0.00    +0.000 A 
ATOM     32  C   UNL     1       3.501  15.502  17.528  0.00  0.00    +0.000 A 
ATOM     33  C   UNL     1       2.690  14.551  18.151  0.00  0.00    +0.000 A 
ATOM     34  C   UNL     1       1.461  14.948  18.670  0.00  0.00    +0.000 A 
ATOM     35  C   UNL     1      -0.135  13.034  18.360  0.00  0.00    +0.000 C 
ATOM     36  C   UNL     1      -1.035  12.006  19.054  0.00  0.00    +0.000 C 
ENDBRANCH  22  23
ENDBRANCH  21  22
ENDBRANCH  20  21
ENDBRANCH   3  20
TORSDOF 6
ENDMDL
MODEL 3
REMARK VINA RESULT:      -9.6      2.218     10.886
REMARK  Name = 
REMARK  6 active torsions:
REMARK  status: ('A' for Active; 'I' for Inactive)
REMARK    1  A    between atoms: C_2  and  C_21
REMARK    2  A    between atoms: N_3  and  C_4
REMARK    3  A    between atoms: C_4  and  C_5
REMARK    4  A    between atoms: C_5  and  C_6
REMARK    5  A    between atoms: C_6  and  N_7
REMARK    6  A    between atoms: N_29  and  C_30
REMARK                            x       y       z     vdW  Elec       q    Type
REMARK                         _______ _______ _______ _____ _____    ______ ____
ROOT
ATOM      1  O   UNL     1       8.387  12.313  17.183  0.00  0.00    +0.000 OA
ATOM      2  C   UNL     1       9.100  11.670  17.953  0.00  0.00    +0.000 C 
ATOM      3  N   UNL     1       8.804  10.387  18.362  0.00  0.00    +0.000 N 
ATOM      4  H   UNL     1       9.487   9.935  18.961  0.00  0.00    +0.000 HD
ENDROOT
BRANCH   2   5
ATOM      5  C   UNL     1      10.340  12.291  18.624  0.00  0.00    +0.000 C 
ATOM      6  C   UNL     1      11.333  12.724  17.513  0.00  0.00    +0.000 C 
ATOM      7  C   UNL     1      11.496  14.186  17.763  0.00  0.00    +0.000 A 
ATOM      8  C   UNL     1      12.292  15.093  17.072  0.00  0.00    +0.000 A 
ATOM      9  C   UNL     1      12.333  16.416  17.513  0.00  0.00    +0.000 A 
ATOM     10  C   UNL     1      11.613  16.807  18.645  0.00  0.00    +0.000 A 
ATOM     11  C   UNL     1      10.833  15.878  19.337  0.00  0.00    +0.000 A 
ATOM     12  C   UNL     1      10.748  14.574  18.868  0.00  0.00    +0.000 A 
ATOM     13  N   UNL     1       9.988  13.512  19.414  0.00  0.00    +0.000 N 
BRANCH  13  14
ATOM     14  C   UNL     1       9.155  13.503  20.531  0.00  0.00    +0.000 A 
ATOM     15  C   UNL     1       7.917  14.168  20.492  0.00  0.00    +0.000 A 
ATOM     16  C   UNL     1       7.116  14.310  21.623  0.00  0.00    +0.000 A 
ATOM     17  C   UNL     1       7.521  13.745  22.823  0.00  0.00    +0.000 A 
ATOM     18  C   UNL     1       8.702  13.010  22.873  0.00  0.00    +0.000 A 
ATOM     19  C   UNL     1       9.508  12.879  21.733  0.00  0.00    +0.000 A 
ENDBRANCH  13  14
ENDBRANCH   2   5
BRANCH   3  20
ATOM     20  C   UNL     1       7.696   9.614  17.844  0.00  0.00    +0.000 C 
BRANCH  20  21
ATOM     21  C   UNL     1       8.121   8.179  17.563  0.00  0.00    +0.000 C 
BRANCH  21  22
ATOM     22  C   UNL     1       7.039   7.161  17.934  0.00  0.00    +0.000 C 
BRANCH  22  23
ATOM     23  N   UNL     1       6.752   6.152  16.898  0.00  0.00    +0.000 NA
ATOM     24  C   UNL     1       6.805   4.764  17.379  0.00  0.00    +0.000 C 
ATOM     25  C   UNL     1       5.689   4.414  18.365  0.00  0.00    +0.000 C 
ATOM     26  C   UNL     1       4.289   4.723  17.792  0.00  0.00    +0.000 C 
ATOM     27  C   UNL     1       3.871   3.647  16.741  0.00  0.00    +0.000 C 
ATOM     28  C   UNL     1       2.532   3.023  17.159  0.00  0.00    +0.000 C 
ATOM     29  C   UNL     1       2.251   3.640  18.484  0.00  0.00    +0.000 A 
ATOM     30  C   UNL     1       1.160   3.378  19.302  0.00  0.00    +0.000 A 
ATOM     31  C   UNL     1       1.041   4.075  20.506  0.00  0.00    +0.000 A 
ATOM     32  C   UNL     1       2.008   5.017  20.876  0.00  0.00    +0.000 A 
ATOM     33  C   UNL     1       3.101   5.273  20.046  0.00  0.00    +0.000 A 
ATOM     34  C   UNL     1       3.216   4.577  18.846  0.00  0.00    +0.000 A 
ATOM     35  C   UNL     1       4.253   6.138  17.174  0.00  0.00    +0.000 C 
ATOM     36  C   UNL     1       5.451   6.400  16.254  0.00  0.00    +0.000 C 
ENDBRANCH  22  23
ENDBRANCH  21  22
ENDBRANCH  20  21
ENDBRANCH   3  20
TORSDOF 6
ENDMDL
MODEL 4
REMARK VINA RESULT:      -9.3      5.919      8.712
REMARK  Name = 
REMARK  6 active torsions:
REMARK  status: ('A' for Active; 'I' for Inactive)
REMARK    1  A    between atoms: C_2  and  C_21
REMARK    2  A    between atoms: N_3  and  C_4
REMARK    3  A    between atoms: C_4  and  C_5
REMARK    4  A    between atoms: C_5  and  C_6
REMARK    5  A    between atoms: C_6  and  N_7
REMARK    6  A    between atoms: N_29  and  C_30
REMARK                            x       y       z     vdW  Elec       q    Type
REMARK                         _______ _______ _______ _____ _____    ______ ____
ROOT
ATOM      1  O   UNL     1       4.039   7.462  17.106  0.00  0.00    +0.000 OA
ATOM      2  C   UNL     1       3.364   7.277  18.118  0.00  0.00    +0.000 C 
ATOM      3  N   UNL     1       2.425   8.177  18.573  0.00  0.00    +0.000 N 
ATOM      4  H   UNL     1       1.892   7.900  19.391  0.00  0.00    +0.000 HD
ENDROOT
BRANCH   2   5
ATOM      5  C   UNL     1       3.593   6.063  19.039  0.00  0.00    +0.000 C 
ATOM      6  C   UNL     1       2.319   5.853  19.899  0.00  0.00    +0.000 C 
ATOM      7  C   UNL     1       1.910   4.461  19.554  0.00  0.00    +0.000 A 
ATOM      8  C   UNL     1       0.830   3.735  20.045  0.00  0.00    +0.000 A 
ATOM      9  C   UNL     1       0.661   2.417  19.619  0.00  0.00    +0.000 A 
ATOM     10  C   UNL     1       1.580   1.835  18.742  0.00  0.00    +0.000 A 
ATOM     11  C   UNL     1       2.668   2.573  18.273  0.00  0.00    +0.000 A 
ATOM     12  C   UNL     1       2.807   3.902  18.652  0.00  0.00    +0.000 A 
ATOM     13  N   UNL     1       3.818   4.808  18.255  0.00  0.00    +0.000 N 
BRANCH  13  14
ATOM     14  C   UNL     1       4.904   4.606  17.404  0.00  0.00    +0.000 A 
ATOM     15  C   UNL     1       6.215   4.701  17.903  0.00  0.00    +0.000 A 
ATOM     16  C   UNL     1       7.331   4.651  17.070  0.00  0.00    +0.000 A 
ATOM     17  C   UNL     1       7.158   4.459  15.707  0.00  0.00    +0.000 A 
ATOM     18  C   UNL     1       5.875   4.279  15.195  0.00  0.00    +0.000 A 
ATOM     19  C   UNL     1       4.757   4.340  16.038  0.00  0.00    +0.000 A 
ENDBRANCH  13  14
ENDBRANCH   2   5
BRANCH   3  20
ATOM     20  C   UNL     1       2.044   9.373  17.854  0.00  0.00    +0.000 C 
BRANCH  20  21
ATOM     21  C   UNL     1       0.688   9.882  18.327  0.00  0.00    +0.000 C 
BRANCH  21  22
ATOM     22  C   UNL     1       0.696  11.383  18.630  0.00  0.00    +0.000 C 
BRANCH  22  23
ATOM     23  N   UNL     1       1.089  11.738  20.007  0.00  0.00    +0.000 NA
ATOM     24  C   UNL     1       0.823  13.138  20.365  0.00  0.00    +0.000 C 
ATOM     25  C   UNL     1      -0.667  13.477  20.450  0.00  0.00    +0.000 C 
ATOM     26  C   UNL     1      -1.425  12.531  21.407  0.00  0.00    +0.000 C 
ATOM     27  C   UNL     1      -1.128  12.896  22.895  0.00  0.00    +0.000 C 
ATOM     28  C   UNL     1      -2.451  13.169  23.625  0.00  0.00    +0.000 C 
ATOM     29  C   UNL     1      -3.474  13.084  22.548  0.00  0.00    +0.000 A 
ATOM     30  C   UNL     1      -4.841  13.288  22.688  0.00  0.00    +0.000 A 
ATOM     31  C   UNL     1      -5.660  13.137  21.568  0.00  0.00    +0.000 A 
ATOM     32  C   UNL     1      -5.109  12.790  20.330  0.00  0.00    +0.000 A 
ATOM     33  C   UNL     1      -3.734  12.587  20.199  0.00  0.00    +0.000 A 
ATOM     34  C   UNL     1      -2.919  12.737  21.318  0.00  0.00    +0.000 A 
ATOM     35  C   UNL     1      -1.062  11.058  21.118  0.00  0.00    +0.000 C 
ATOM     36  C   UNL     1       0.451  10.848  20.992  0.00  0.00    +0.000 C 
ENDBRANCH  22  23
ENDBRANCH  21  22
ENDBRANCH  20  21
ENDBRANCH   3  20
TORSDOF 6
ENDMDL
MODEL 5
REMARK VINA RESULT:      -9.2      6.103      8.467
REMARK  Name = 
REMARK  6 active torsions:
REMARK  status: ('A' for Active; 'I' for Inactive)
REMARK    1  A    between atoms: C_2  and  C_21
REMARK    2  A    between atoms: N_3  and  C_4
REMARK    3  A    between atoms: C_4  and  C_5
REMARK    4  A    between atoms: C_5  and  C_6
REMARK    5  A    between atoms: C_6  and  N_7
REMARK    6  A    between atoms: N_29  and  C_30
REMARK                            x       y       z     vdW  Elec       q    Type
REMARK                         _______ _______ _______ _____ _____    ______ ____
ROOT
ATOM      1  O   UNL     1       3.970   7.783  17.408  0.00  0.00    +0.000 OA
ATOM      2  C   UNL     1       3.197   7.487  18.319  0.00  0.00    +0.000 C 
ATOM      3  N   UNL     1       2.097   8.248  18.653  0.00  0.00    +0.000 N 
ATOM      4  H   UNL     1       1.502   7.883  19.390  0.00  0.00    +0.000 HD
ENDROOT
BRANCH   2   5
ATOM      5  C   UNL     1       3.459   6.287  19.250  0.00  0.00    +0.000 C 
ATOM      6  C   UNL     1       2.169   6.012  20.068  0.00  0.00    +0.000 C 
ATOM      7  C   UNL     1       1.845   4.600  19.714  0.00  0.00    +0.000 A 
ATOM      8  C   UNL     1       0.790   3.819  20.171  0.00  0.00    +0.000 A 
ATOM      9  C   UNL     1       0.704   2.493  19.743  0.00  0.00    +0.000 A 
ATOM     10  C   UNL     1       1.682   1.959  18.899  0.00  0.00    +0.000 A 
ATOM     11  C   UNL     1       2.744   2.754  18.464  0.00  0.00    +0.000 A 
ATOM     12  C   UNL     1       2.801   4.088  18.844  0.00  0.00    +0.000 A 
ATOM     13  N   UNL     1       3.775   5.046  18.478  0.00  0.00    +0.000 N 
BRANCH  13  14
ATOM     14  C   UNL     1       4.898   4.900  17.665  0.00  0.00    +0.000 A 
ATOM     15  C   UNL     1       4.744   4.611  16.298  0.00  0.00    +0.000 A 
ATOM     16  C   UNL     1       5.830   4.314  15.476  0.00  0.00    +0.000 A 
ATOM     17  C   UNL     1       7.114   4.345  16.002  0.00  0.00    +0.000 A 
ATOM     18  C   UNL     1       7.303   4.709  17.332  0.00  0.00    +0.000 A 
ATOM     19  C   UNL     1       6.205   4.996  18.156  0.00  0.00    +0.000 A 
ENDBRANCH  13  14
ENDBRANCH   2   5
BRANCH   3  20
ATOM     20  C   UNL     1       1.662   9.404  17.901  0.00  0.00    +0.000 C 
BRANCH  20  21
ATOM     21  C   UNL     1       0.143   9.519  17.912  0.00  0.00    +0.000 C 
BRANCH  21  22
ATOM     22  C   UNL     1      -0.389  10.164  19.195  0.00  0.00    +0.000 C 
BRANCH  22  23
ATOM     23  N   UNL     1       0.545  11.095  19.857  0.00  0.00    +0.000 NA
ATOM     24  C   UNL     1       0.300  12.512  19.550  0.00  0.00    +0.000 C 
ATOM     25  C   UNL     1      -1.014  13.045  20.126  0.00  0.00    +0.000 C 
ATOM     26  C   UNL     1      -1.122  12.806  21.647  0.00  0.00    +0.000 C 
ATOM     27  C   UNL     1      -0.222  13.813  22.431  0.00  0.00    +0.000 C 
ATOM     28  C   UNL     1      -1.085  14.586  23.439  0.00  0.00    +0.000 C 
ATOM     29  C   UNL     1      -2.469  14.120  23.152  0.00  0.00    +0.000 A 
ATOM     30  C   UNL     1      -3.632  14.548  23.779  0.00  0.00    +0.000 A 
ATOM     31  C   UNL     1      -4.848  13.977  23.401  0.00  0.00    +0.000 A 
ATOM     32  C   UNL     1      -4.888  12.994  22.406  0.00  0.00    +0.000 A 
ATOM     33  C   UNL     1      -3.714  12.570  21.781  0.00  0.00    +0.000 A 
ATOM     34  C   UNL     1      -2.502  13.140  22.162  0.00  0.00    +0.000 A 
ATOM     35  C   UNL     1      -0.750  11.348  21.997  0.00  0.00    +0.000 C 
ATOM     36  C   UNL     1       0.548  10.901  21.317  0.00  0.00    +0.000 C 
ENDBRANCH  22  23
ENDBRANCH  21  22
ENDBRANCH  20  21
ENDBRANCH   3  20
TORSDOF 6
ENDMDL
MODEL 6
REMARK VINA RESULT:      -9.2      5.849      8.958
REMARK  Name = 
REMARK  6 active torsions:
REMARK  status: ('A' for Active; 'I' for Inactive)
REMARK    1  A    between atoms: C_2  and  C_21
REMARK    2  A    between atoms: N_3  and  C_4
REMARK    3  A    between atoms: C_4  and  C_5
REMARK    4  A    between atoms: C_5  and  C_6
REMARK    5  A    between atoms: C_6  and  N_7
REMARK    6  A    between atoms: N_29  and  C_30
REMARK                            x       y       z     vdW  Elec       q    Type
REMARK                         _______ _______ _______ _____ _____    ______ ____
ROOT
ATOM      1  O   UNL     1       4.123   7.559  17.389  0.00  0.00    +0.000 OA
ATOM      2  C   UNL     1       3.302   7.191  18.229  0.00  0.00    +0.000 C 
ATOM      3  N   UNL     1       2.151   7.892  18.517  0.00  0.00    +0.000 N 
ATOM      4  H   UNL     1       1.522   7.470  19.193  0.00  0.00    +0.000 HD
ENDROOT
BRANCH   2   5
ATOM      5  C   UNL     1       3.550   5.961  19.124  0.00  0.00    +0.000 C 
ATOM      6  C   UNL     1       2.290   5.730  19.999  0.00  0.00    +0.000 C 
ATOM      7  C   UNL     1       1.880   4.343  19.634  0.00  0.00    +0.000 A 
ATOM      8  C   UNL     1       0.811   3.605  20.128  0.00  0.00    +0.000 A 
ATOM      9  C   UNL     1       0.640   2.294  19.681  0.00  0.00    +0.000 A 
ATOM     10  C   UNL     1       1.549   1.731  18.779  0.00  0.00    +0.000 A 
ATOM     11  C   UNL     1       2.626   2.483  18.307  0.00  0.00    +0.000 A 
ATOM     12  C   UNL     1       2.766   3.804  18.709  0.00  0.00    +0.000 A 
ATOM     13  N   UNL     1       3.767   4.722  18.313  0.00  0.00    +0.000 N 
BRANCH  13  14
ATOM     14  C   UNL     1       4.841   4.540  17.443  0.00  0.00    +0.000 A 
ATOM     15  C   UNL     1       6.159   4.635  17.923  0.00  0.00    +0.000 A 
ATOM     16  C   UNL     1       7.262   4.605  17.071  0.00  0.00    +0.000 A 
ATOM     17  C   UNL     1       7.069   4.433  15.708  0.00  0.00    +0.000 A 
ATOM     18  C   UNL     1       5.780   4.254  15.214  0.00  0.00    +0.000 A 
ATOM     19  C   UNL     1       4.674   4.295  16.076  0.00  0.00    +0.000 A 
ENDBRANCH  13  14
ENDBRANCH   2   5
BRANCH   3  20
ATOM     20  C   UNL     1       1.720   9.064  17.787  0.00  0.00    +0.000 C 
BRANCH  20  21
ATOM     21  C   UNL     1       2.481  10.300  18.247  0.00  0.00    +0.000 C 
BRANCH  21  22
ATOM     22  C   UNL     1       1.640  11.577  18.158  0.00  0.00    +0.000 C 
BRANCH  22  23
ATOM     23  N   UNL     1       1.270  12.169  19.457  0.00  0.00    +0.000 NA
ATOM     24  C   UNL     1       0.534  13.438  19.351  0.00  0.00    +0.000 C 
ATOM     25  C   UNL     1      -0.866  13.285  18.751  0.00  0.00    +0.000 C 
ATOM     26  C   UNL     1      -1.714  12.242  19.511  0.00  0.00    +0.000 C 
ATOM     27  C   UNL     1      -2.220  12.824  20.869  0.00  0.00    +0.000 C 
ATOM     28  C   UNL     1      -3.751  12.726  20.923  0.00  0.00    +0.000 C 
ATOM     29  C   UNL     1      -4.122  12.214  19.576  0.00  0.00    +0.000 A 
ATOM     30  C   UNL     1      -5.408  11.979  19.106  0.00  0.00    +0.000 A 
ATOM     31  C   UNL     1      -5.569  11.467  17.818  0.00  0.00    +0.000 A 
ATOM     32  C   UNL     1      -4.452  11.198  17.019  0.00  0.00    +0.000 A 
ATOM     33  C   UNL     1      -3.163  11.437  17.500  0.00  0.00    +0.000 A 
ATOM     34  C   UNL     1      -3.006  11.947  18.786  0.00  0.00    +0.000 A 
ATOM     35  C   UNL     1      -0.908  10.944  19.735  0.00  0.00    +0.000 C 
ATOM     36  C   UNL     1       0.498  11.220  20.277  0.00  0.00    +0.000 C 
ENDBRANCH  22  23
ENDBRANCH  21  22
ENDBRANCH  20  21
ENDBRANCH   3  20
TORSDOF 6
ENDMDL
MODEL 7
REMARK VINA RESULT:      -9.2      2.094     10.518
REMARK  Name = 
REMARK  6 active torsions:
REMARK  status: ('A' for Active; 'I' for Inactive)
REMARK    1  A    between atoms: C_2  and  C_21
REMARK    2  A    between atoms: N_3  and  C_4
REMARK    3  A    between atoms: C_4  and  C_5
REMARK    4  A    between atoms: C_5  and  C_6
REMARK    5  A    between atoms: C_6  and  N_7
REMARK    6  A    between atoms: N_29  and  C_30
REMARK                            x       y       z     vdW  Elec       q    Type
REMARK                         _______ _______ _______ _____ _____    ______ ____
ROOT
ATOM      1  O   UNL     1       8.909   9.914  20.276  0.00  0.00    +0.000 OA
ATOM      2  C   UNL     1       9.294  10.629  19.351  0.00  0.00    +0.000 C 
ATOM      3  N   UNL     1       8.872  10.468  18.048  0.00  0.00    +0.000 N 
ATOM      4  H   UNL     1       9.217  11.145  17.374  0.00  0.00    +0.000 HD
ENDROOT
BRANCH   2   5
ATOM      5  C   UNL     1      10.378  11.705  19.550  0.00  0.00    +0.000 C 
ATOM      6  C   UNL     1      11.186  11.836  18.232  0.00  0.00    +0.000 C 
ATOM      7  C   UNL     1      11.007  13.272  17.873  0.00  0.00    +0.000 A 
ATOM      8  C   UNL     1      11.529  13.957  16.781  0.00  0.00    +0.000 A 
ATOM      9  C   UNL     1      11.273  15.324  16.665  0.00  0.00    +0.000 A 
ATOM     10  C   UNL     1      10.533  15.991  17.647  0.00  0.00    +0.000 A 
ATOM     11  C   UNL     1      10.031  15.289  18.745  0.00  0.00    +0.000 A 
ATOM     12  C   UNL     1      10.239  13.919  18.834  0.00  0.00    +0.000 A 
ATOM     13  N   UNL     1       9.781  13.044  19.847  0.00  0.00    +0.000 N 
BRANCH  13  14
ATOM     14  C   UNL     1       9.028  13.325  20.985  0.00  0.00    +0.000 A 
ATOM     15  C   UNL     1       9.418  12.808  22.233  0.00  0.00    +0.000 A 
ATOM     16  C   UNL     1       8.624  12.938  23.371  0.00  0.00    +0.000 A 
ATOM     17  C   UNL     1       7.427  13.636  23.293  0.00  0.00    +0.000 A 
ATOM     18  C   UNL     1       7.055  14.230  22.090  0.00  0.00    +0.000 A 
ATOM     19  C   UNL     1       7.854  14.086  20.947  0.00  0.00    +0.000 A 
ENDBRANCH  13  14
ENDBRANCH   2   5
BRANCH   3  20
ATOM     20  C   UNL     1       7.849   9.529  17.644  0.00  0.00    +0.000 C 
BRANCH  20  21
ATOM     21  C   UNL     1       8.287   8.097  17.925  0.00  0.00    +0.000 C 
BRANCH  21  22
ATOM     22  C   UNL     1       7.103   7.155  18.163  0.00  0.00    +0.000 C 
BRANCH  22  23
ATOM     23  N   UNL     1       6.871   6.164  17.096  0.00  0.00    +0.000 NA
ATOM     24  C   UNL     1       6.894   4.768  17.556  0.00  0.00    +0.000 C 
ATOM     25  C   UNL     1       5.724   4.406  18.474  0.00  0.00    +0.000 C 
ATOM     26  C   UNL     1       4.359   4.729  17.829  0.00  0.00    +0.000 C 
ATOM     27  C   UNL     1       3.997   3.672  16.740  0.00  0.00    +0.000 C 
ATOM     28  C   UNL     1       2.636   3.045  17.072  0.00  0.00    +0.000 C 
ATOM     29  C   UNL     1       2.283   3.641  18.390  0.00  0.00    +0.000 A 
ATOM     30  C   UNL     1       1.148   3.370  19.143  0.00  0.00    +0.000 A 
ATOM     31  C   UNL     1       0.965   4.047  20.349  0.00  0.00    +0.000 A 
ATOM     32  C   UNL     1       1.912   4.980  20.787  0.00  0.00    +0.000 A 
ATOM     33  C   UNL     1       3.050   5.246  20.023  0.00  0.00    +0.000 A 
ATOM     34  C   UNL     1       3.229   4.569  18.820  0.00  0.00    +0.000 A 
ATOM     35  C   UNL     1       4.361   6.154  17.234  0.00  0.00    +0.000 C 
ATOM     36  C   UNL     1       5.608   6.427  16.386  0.00  0.00    +0.000 C 
ENDBRANCH  22  23
ENDBRANCH  21  22
ENDBRANCH  20  21
ENDBRANCH   3  20
TORSDOF 6
ENDMDL
MODEL 8
REMARK VINA RESULT:      -9.1      5.811      8.370
REMARK  Name = 
REMARK  6 active torsions:
REMARK  status: ('A' for Active; 'I' for Inactive)
REMARK    1  A    between atoms: C_2  and  C_21
REMARK    2  A    between atoms: N_3  and  C_4
REMARK    3  A    between atoms: C_4  and  C_5
REMARK    4  A    between atoms: C_5  and  C_6
REMARK    5  A    between atoms: C_6  and  N_7
REMARK    6  A    between atoms: N_29  and  C_30
REMARK                            x       y       z     vdW  Elec       q    Type
REMARK                         _______ _______ _______ _____ _____    ______ ____
ROOT
ATOM      1  O   UNL     1       3.910   7.731  17.309  0.00  0.00    +0.000 OA
ATOM      2  C   UNL     1       3.148   7.434  18.229  0.00  0.00    +0.000 C 
ATOM      3  N   UNL     1       2.021   8.165  18.541  0.00  0.00    +0.000 N 
ATOM      4  H   UNL     1       1.439   7.801  19.288  0.00  0.00    +0.000 HD
ENDROOT
BRANCH   2   5
ATOM      5  C   UNL     1       3.451   6.272  19.194  0.00  0.00    +0.000 C 
ATOM      6  C   UNL     1       2.179   5.991  20.037  0.00  0.00    +0.000 C 
ATOM      7  C   UNL     1       1.886   4.561  19.732  0.00  0.00    +0.000 A 
ATOM      8  C   UNL     1       0.856   3.770  20.228  0.00  0.00    +0.000 A 
ATOM      9  C   UNL     1       0.798   2.429  19.844  0.00  0.00    +0.000 A 
ATOM     10  C   UNL     1       1.778   1.892  19.003  0.00  0.00    +0.000 A 
ATOM     11  C   UNL     1       2.815   2.698  18.529  0.00  0.00    +0.000 A 
ATOM     12  C   UNL     1       2.843   4.045  18.866  0.00  0.00    +0.000 A 
ATOM     13  N   UNL     1       3.788   5.014  18.457  0.00  0.00    +0.000 N 
BRANCH  13  14
ATOM     14  C   UNL     1       4.904   4.871  17.634  0.00  0.00    +0.000 A 
ATOM     15  C   UNL     1       4.739   4.567  16.272  0.00  0.00    +0.000 A 
ATOM     16  C   UNL     1       5.819   4.271  15.442  0.00  0.00    +0.000 A 
ATOM     17  C   UNL     1       7.108   4.317  15.954  0.00  0.00    +0.000 A 
ATOM     18  C   UNL     1       7.307   4.696  17.279  0.00  0.00    +0.000 A 
ATOM     19  C   UNL     1       6.215   4.982  18.111  0.00  0.00    +0.000 A 
ENDBRANCH  13  14
ENDBRANCH   2   5
BRANCH   3  20
ATOM     20  C   UNL     1       1.546   9.284  17.756  0.00  0.00    +0.000 C 
BRANCH  20  21
ATOM     21  C   UNL     1       0.341   9.938  18.418  0.00  0.00    +0.000 C 
BRANCH  21  22
ATOM     22  C   UNL     1       0.736  10.911  19.532  0.00  0.00    +0.000 C 
BRANCH  22  23
ATOM     23  N   UNL     1       0.682  12.337  19.160  0.00  0.00    +0.000 NA
ATOM     24  C   UNL     1      -0.636  12.786  18.690  0.00  0.00    +0.000 C 
ATOM     25  C   UNL     1      -1.709  12.785  19.781  0.00  0.00    +0.000 C 
ATOM     26  C   UNL     1      -1.281  13.603  21.018  0.00  0.00    +0.000 C 
ATOM     27  C   UNL     1      -1.391  15.134  20.734  0.00  0.00    +0.000 C 
ATOM     28  C   UNL     1      -2.303  15.782  21.787  0.00  0.00    +0.000 C 
ATOM     29  C   UNL     1      -2.802  14.627  22.582  0.00  0.00    +0.000 A 
ATOM     30  C   UNL     1      -3.694  14.679  23.645  0.00  0.00    +0.000 A 
ATOM     31  C   UNL     1      -4.031  13.493  24.298  0.00  0.00    +0.000 A 
ATOM     32  C   UNL     1      -3.480  12.276  23.882  0.00  0.00    +0.000 A 
ATOM     33  C   UNL     1      -2.584  12.233  22.812  0.00  0.00    +0.000 A 
ATOM     34  C   UNL     1      -2.248  13.418  22.164  0.00  0.00    +0.000 A 
ATOM     35  C   UNL     1       0.152  13.226  21.452  0.00  0.00    +0.000 C 
ATOM     36  C   UNL     1       1.127  13.197  20.270  0.00  0.00    +0.000 C 
ENDBRANCH  22  23
ENDBRANCH  21  22
ENDBRANCH  20  21
ENDBRANCH   3  20
TORSDOF 6
ENDMDL
MODEL 9
REMARK VINA RESULT:      -9.1      4.933      7.358
REMARK  Name = 
REMARK  6 active torsions:
REMARK  status: ('A' for Active; 'I' for Inactive)
REMARK    1  A    between atoms: C_2  and  C_21
REMARK    2  A    between atoms: N_3  and  C_4
REMARK    3  A    between atoms: C_4  and  C_5
REMARK    4  A    between atoms: C_5  and  C_6
REMARK    5  A    between atoms: C_6  and  N_7
REMARK    6  A    between atoms: N_29  and  C_30
REMARK                            x       y       z     vdW  Elec       q    Type
REMARK                         _______ _______ _______ _____ _____    ______ ____
ROOT
ATOM      1  O   UNL     1       2.435   7.724  18.934  0.00  0.00    +0.000 OA
ATOM      2  C   UNL     1       2.325   7.236  20.058  0.00  0.00    +0.000 C 
ATOM      3  N   UNL     1       1.880   7.949  21.150  0.00  0.00    +0.000 N 
ATOM      4  H   UNL     1       1.784   7.433  22.019  0.00  0.00    +0.000 HD
ENDROOT
BRANCH   2   5
ATOM      5  C   UNL     1       2.790   5.800  20.371  0.00  0.00    +0.000 C 
ATOM      6  C   UNL     1       1.540   4.941  20.698  0.00  0.00    +0.000 C 
ATOM      7  C   UNL     1       1.610   3.852  19.681  0.00  0.00    +0.000 A 
ATOM      8  C   UNL     1       0.743   2.778  19.512  0.00  0.00    +0.000 A 
ATOM      9  C   UNL     1       1.028   1.839  18.519  0.00  0.00    +0.000 A 
ATOM     10  C   UNL     1       2.180   1.965  17.737  0.00  0.00    +0.000 A 
ATOM     11  C   UNL     1       3.048   3.041  17.934  0.00  0.00    +0.000 A 
ATOM     12  C   UNL     1       2.737   4.005  18.884  0.00  0.00    +0.000 A 
ATOM     13  N   UNL     1       3.473   5.172  19.197  0.00  0.00    +0.000 N 
BRANCH  13  14
ATOM     14  C   UNL     1       4.666   5.640  18.649  0.00  0.00    +0.000 A 
ATOM     15  C   UNL     1       5.887   5.378  19.295  0.00  0.00    +0.000 A 
ATOM     16  C   UNL     1       7.088   5.944  18.868  0.00  0.00    +0.000 A 
ATOM     17  C   UNL     1       7.099   6.759  17.746  0.00  0.00    +0.000 A 
ATOM     18  C   UNL     1       5.918   6.969  17.038  0.00  0.00    +0.000 A 
ATOM     19  C   UNL     1       4.713   6.405  17.478  0.00  0.00    +0.000 A 
ENDBRANCH  13  14
ENDBRANCH   2   5
BRANCH   3  20
ATOM     20  C   UNL     1       1.382   9.305  21.076  0.00  0.00    +0.000 C 
BRANCH  20  21
ATOM     21  C   UNL     1      -0.072   9.324  20.622  0.00  0.00    +0.000 C 
BRANCH  21  22
ATOM     22  C   UNL     1      -0.342  10.389  19.555  0.00  0.00    +0.000 C 
BRANCH  22  23
ATOM     23  N   UNL     1      -1.266  11.463  19.968  0.00  0.00    +0.000 NA
ATOM     24  C   UNL     1      -0.735  12.339  21.023  0.00  0.00    +0.000 C 
ATOM     25  C   UNL     1       0.443  13.203  20.566  0.00  0.00    +0.000 C 
ATOM     26  C   UNL     1       0.104  14.031  19.309  0.00  0.00    +0.000 C 
ATOM     27  C   UNL     1      -0.807  15.245  19.675  0.00  0.00    +0.000 C 
ATOM     28  C   UNL     1      -0.137  16.544  19.204  0.00  0.00    +0.000 C 
ATOM     29  C   UNL     1       1.185  16.094  18.690  0.00  0.00    +0.000 A 
ATOM     30  C   UNL     1       2.190  16.903  18.175  0.00  0.00    +0.000 A 
ATOM     31  C   UNL     1       3.362  16.304  17.709  0.00  0.00    +0.000 A 
ATOM     32  C   UNL     1       3.516  14.915  17.765  0.00  0.00    +0.000 A 
ATOM     33  C   UNL     1       2.500  14.109  18.285  0.00  0.00    +0.000 A 
ATOM     34  C   UNL     1       1.332  14.710  18.747  0.00  0.00    +0.000 A 
ATOM     35  C   UNL     1      -0.565  13.145  18.236  0.00  0.00    +0.000 C 
ATOM     36  C   UNL     1      -1.687  12.279  18.817  0.00  0.00    +0.000 C 
ENDBRANCH  22  23
ENDBRANCH  21  22
ENDBRANCH  20  21
ENDBRANCH   3  20
TORSDOF 6
ENDMDL
