MODEL 1
REMARK VINA RESULT:      -8.7      0.000      0.000
REMARK  Name = 
REMARK  6 active torsions:
REMARK  status: ('A' for Active; 'I' for Inactive)
REMARK    1  A    between atoms: C_1  and  C_2
REMARK    2  A    between atoms: C_7  and  S_8
REMARK    3  A    between atoms: S_8  and  C_9
REMARK    4  A    between atoms: C_9  and  C_10
REMARK    5  A    between atoms: C_20  and  C_21
REMARK    6  A    between atoms: C_22  and  C_23
REMARK                            x       y       z     vdW  Elec       q    Type
REMARK                         _______ _______ _______ _____ _____    ______ ____
ROOT
ATOM      1  S   UNL     1       1.834   5.820  20.435  0.00  0.00    +0.000 S 
ENDROOT
BRANCH   1   8
ATOM      2  C   UNL     1       6.497   4.144  13.891  0.00  0.00    +0.000 C 
ATOM      3  C   UNL     1       5.695   4.632  15.061  0.00  0.00    +0.000 A 
ATOM      4  C   UNL     1       5.686   5.978  15.429  0.00  0.00    +0.000 A 
ATOM      5  C   UNL     1       4.903   6.408  16.511  0.00  0.00    +0.000 A 
ATOM      6  C   UNL     1       4.135   5.527  17.259  0.00  0.00    +0.000 A 
ATOM      7  N   UNL     1       3.397   5.980  18.292  0.00  0.00    +0.000 NA
ATOM      8  C   UNL     1       2.694   5.090  19.043  0.00  0.00    +0.000 A 
ATOM      9  C   UNL     1       2.712   3.715  18.792  0.00  0.00    +0.000 A 
ATOM     10  C   UNL     1       2.018   2.668  19.612  0.00  0.00    +0.000 C 
ATOM     11  C   UNL     1       3.440   3.269  17.682  0.00  0.00    +0.000 A 
ATOM     12  C   UNL     1       4.168   4.172  16.899  0.00  0.00    +0.000 A 
ATOM     13  C   UNL     1       4.926   3.732  15.801  0.00  0.00    +0.000 A 
ENDBRANCH   1   8
BRANCH   1  14
ATOM     14  C   UNL     1       2.011   7.598  20.012  0.00  0.00    +0.000 C 
BRANCH  14  15
ATOM     15  C   UNL     1       1.104   8.486  20.849  0.00  0.00    +0.000 C 
ATOM     16  O   UNL     1       0.645   8.067  21.922  0.00  0.00    +0.000 OA
ATOM     17  N   UNL     1       0.793   9.756  20.376  0.00  0.00    +0.000 N 
ATOM     18  C   UNL     1      -0.117  10.586  21.086  0.00  0.00    +0.000 A 
ATOM     19  C   UNL     1      -0.346  10.650  22.450  0.00  0.00    +0.000 A 
ATOM     20  C   UNL     1      -1.352  11.498  22.912  0.00  0.00    +0.000 A 
ATOM     21  C   UNL     1      -2.126  12.242  22.004  0.00  0.00    +0.000 A 
ATOM     22  C   UNL     1      -1.870  12.188  20.632  0.00  0.00    +0.000 A 
ATOM     23  C   UNL     1      -0.832  11.384  20.191  0.00  0.00    +0.000 A 
ATOM     24  C   UNL     1      -0.370  11.125  18.788  0.00  0.00    +0.000 C 
ATOM     25  C   UNL     1       1.009  10.481  19.081  0.00  0.00    +0.000 C 
ATOM     26  C   UNL     1       1.600   9.780  17.875  0.00  0.00    +0.000 C 
ENDBRANCH  14  15
ENDBRANCH   1  14
TORSDOF 3
ENDMDL
MODEL 2
REMARK VINA RESULT:      -8.4      1.864      3.275
REMARK  Name = 
REMARK  6 active torsions:
REMARK  status: ('A' for Active; 'I' for Inactive)
REMARK    1  A    between atoms: C_1  and  C_2
REMARK    2  A    between atoms: C_7  and  S_8
REMARK    3  A    between atoms: S_8  and  C_9
REMARK    4  A    between atoms: C_9  and  C_10
REMARK    5  A    between atoms: C_20  and  C_21
REMARK    6  A    between atoms: C_22  and  C_23
REMARK                            x       y       z     vdW  Elec       q    Type
REMARK                         _______ _______ _______ _____ _____    ______ ____
ROOT
ATOM      1  S   UNL     1       4.650   4.595  19.665  0.00  0.00    +0.000 S 
ENDROOT
BRANCH   1   8
ATOM      2  C   UNL     1       7.383   4.406  11.928  0.00  0.00    +0.000 C 
ATOM      3  C   UNL     1       6.723   4.364  13.274  0.00  0.00    +0.000 A 
ATOM      4  C   UNL     1       5.419   3.893  13.433  0.00  0.00    +0.000 A 
ATOM      5  C   UNL     1       4.840   3.840  14.710  0.00  0.00    +0.000 A 
ATOM      6  C   UNL     1       5.519   4.262  15.845  0.00  0.00    +0.000 A 
ATOM      7  N   UNL     1       4.926   4.194  17.054  0.00  0.00    +0.000 NA
ATOM      8  C   UNL     1       5.591   4.663  18.142  0.00  0.00    +0.000 A 
ATOM      9  C   UNL     1       6.869   5.224  18.060  0.00  0.00    +0.000 A 
ATOM     10  C   UNL     1       7.638   5.820  19.202  0.00  0.00    +0.000 C 
ATOM     11  C   UNL     1       7.491   5.235  16.805  0.00  0.00    +0.000 A 
ATOM     12  C   UNL     1       6.820   4.757  15.675  0.00  0.00    +0.000 A 
ATOM     13  C   UNL     1       7.422   4.791  14.405  0.00  0.00    +0.000 A 
ENDBRANCH   1   8
BRANCH   1  14
ATOM     14  C   UNL     1       2.966   4.917  19.005  0.00  0.00    +0.000 C 
BRANCH  14  15
ATOM     15  C   UNL     1       2.209   5.948  19.826  0.00  0.00    +0.000 C 
ATOM     16  O   UNL     1       1.516   5.585  20.789  0.00  0.00    +0.000 OA
ATOM     17  N   UNL     1       2.295   7.286  19.461  0.00  0.00    +0.000 N 
ATOM     18  C   UNL     1       1.537   8.271  20.150  0.00  0.00    +0.000 A 
ATOM     19  C   UNL     1       1.147   8.291  21.478  0.00  0.00    +0.000 A 
ATOM     20  C   UNL     1       0.335   9.338  21.913  0.00  0.00    +0.000 A 
ATOM     21  C   UNL     1      -0.095  10.326  21.010  0.00  0.00    +0.000 A 
ATOM     22  C   UNL     1       0.324  10.309  19.678  0.00  0.00    +0.000 A 
ATOM     23  C   UNL     1       1.175   9.295  19.271  0.00  0.00    +0.000 A 
ATOM     24  C   UNL     1       1.744   9.030  17.910  0.00  0.00    +0.000 C 
ATOM     25  C   UNL     1       2.862   8.024  18.284  0.00  0.00    +0.000 C 
ATOM     26  C   UNL     1       3.415   7.285  17.084  0.00  0.00    +0.000 C 
ENDBRANCH  14  15
ENDBRANCH   1  14
TORSDOF 3
ENDMDL
MODEL 3
REMARK VINA RESULT:      -8.2      1.918      2.845
REMARK  Name = 
REMARK  6 active torsions:
REMARK  status: ('A' for Active; 'I' for Inactive)
REMARK    1  A    between atoms: C_1  and  C_2
REMARK    2  A    between atoms: C_7  and  S_8
REMARK    3  A    between atoms: S_8  and  C_9
REMARK    4  A    between atoms: C_9  and  C_10
REMARK    5  A    between atoms: C_20  and  C_21
REMARK    6  A    between atoms: C_22  and  C_23
REMARK                            x       y       z     vdW  Elec       q    Type
REMARK                         _______ _______ _______ _____ _____    ______ ____
ROOT
ATOM      1  S   UNL     1       1.639   7.736  20.597  0.00  0.00    +0.000 S 
ENDROOT
BRANCH   1   8
ATOM      2  C   UNL     1       5.981   3.816  14.839  0.00  0.00    +0.000 C 
ATOM      3  C   UNL     1       5.266   4.692  15.824  0.00  0.00    +0.000 A 
ATOM      4  C   UNL     1       5.469   6.072  15.854  0.00  0.00    +0.000 A 
ATOM      5  C   UNL     1       4.763   6.869  16.769  0.00  0.00    +0.000 A 
ATOM      6  C   UNL     1       3.865   6.326  17.678  0.00  0.00    +0.000 A 
ATOM      7  N   UNL     1       3.208   7.126  18.541  0.00  0.00    +0.000 NA
ATOM      8  C   UNL     1       2.374   6.565  19.457  0.00  0.00    +0.000 A 
ATOM      9  C   UNL     1       2.175   5.185  19.548  0.00  0.00    +0.000 A 
ATOM     10  C   UNL     1       1.325   4.489  20.569  0.00  0.00    +0.000 C 
ATOM     11  C   UNL     1       2.824   4.374  18.608  0.00  0.00    +0.000 A 
ATOM     12  C   UNL     1       3.685   4.935  17.659  0.00  0.00    +0.000 A 
ATOM     13  C   UNL     1       4.365   4.129  16.730  0.00  0.00    +0.000 A 
ENDBRANCH   1   8
BRANCH   1  14
ATOM     14  C   UNL     1       1.783   9.272  19.600  0.00  0.00    +0.000 C 
BRANCH  14  15
ATOM     15  C   UNL     1       0.579   9.494  18.699  0.00  0.00    +0.000 C 
ATOM     16  O   UNL     1       0.641   9.195  17.497  0.00  0.00    +0.000 OA
ATOM     17  N   UNL     1      -0.570  10.051  19.247  0.00  0.00    +0.000 N 
ATOM     18  C   UNL     1      -1.688  10.352  18.423  0.00  0.00    +0.000 A 
ATOM     19  C   UNL     1      -2.120   9.702  17.280  0.00  0.00    +0.000 A 
ATOM     20  C   UNL     1      -3.212  10.232  16.592  0.00  0.00    +0.000 A 
ATOM     21  C   UNL     1      -3.830  11.412  17.040  0.00  0.00    +0.000 A 
ATOM     22  C   UNL     1      -3.401  12.046  18.208  0.00  0.00    +0.000 A 
ATOM     23  C   UNL     1      -2.352  11.480  18.913  0.00  0.00    +0.000 A 
ATOM     24  C   UNL     1      -1.685  11.965  20.165  0.00  0.00    +0.000 C 
ATOM     25  C   UNL     1      -0.911  10.683  20.564  0.00  0.00    +0.000 C 
ATOM     26  C   UNL     1       0.152  10.940  21.613  0.00  0.00    +0.000 C 
ENDBRANCH  14  15
ENDBRANCH   1  14
TORSDOF 3
ENDMDL
MODEL 4
REMARK VINA RESULT:      -8.2      1.309      1.550
REMARK  Name = 
REMARK  6 active torsions:
REMARK  status: ('A' for Active; 'I' for Inactive)
REMARK    1  A    between atoms: C_1  and  C_2
REMARK    2  A    between atoms: C_7  and  S_8
REMARK    3  A    between atoms: S_8  and  C_9
REMARK    4  A    between atoms: C_9  and  C_10
REMARK    5  A    between atoms: C_20  and  C_21
REMARK    6  A    between atoms: C_22  and  C_23
REMARK                            x       y       z     vdW  Elec       q    Type
REMARK                         _______ _______ _______ _____ _____    ______ ____
ROOT
ATOM      1  S   UNL     1       1.373   7.306  20.948  0.00  0.00    +0.000 S 
ENDROOT
BRANCH   1   8
ATOM      2  C   UNL     1       5.890   4.091  14.895  0.00  0.00    +0.000 C 
ATOM      3  C   UNL     1       5.139   4.847  15.951  0.00  0.00    +0.000 A 
ATOM      4  C   UNL     1       5.300   6.222  16.118  0.00  0.00    +0.000 A 
ATOM      5  C   UNL     1       4.561   6.905  17.097  0.00  0.00    +0.000 A 
ATOM      6  C   UNL     1       3.671   6.251  17.936  0.00  0.00    +0.000 A 
ATOM      7  N   UNL     1       2.981   6.944  18.864  0.00  0.00    +0.000 NA
ATOM      8  C   UNL     1       2.155   6.273  19.710  0.00  0.00    +0.000 A 
ATOM      9  C   UNL     1       1.996   4.885  19.664  0.00  0.00    +0.000 A 
ATOM     10  C   UNL     1       1.156   4.069  20.602  0.00  0.00    +0.000 C 
ATOM     11  C   UNL     1       2.678   4.189  18.658  0.00  0.00    +0.000 A 
ATOM     12  C   UNL     1       3.532   4.864  17.780  0.00  0.00    +0.000 A 
ATOM     13  C   UNL     1       4.245   4.172  16.786  0.00  0.00    +0.000 A 
ENDBRANCH   1   8
BRANCH   1  14
ATOM     14  C   UNL     1       1.352   8.907  20.049  0.00  0.00    +0.000 C 
BRANCH  14  15
ATOM     15  C   UNL     1       0.714  10.021  20.862  0.00  0.00    +0.000 C 
ATOM     16  O   UNL     1       0.914  10.089  22.084  0.00  0.00    +0.000 OA
ATOM     17  N   UNL     1      -0.105  10.937  20.212  0.00  0.00    +0.000 N 
ATOM     18  C   UNL     1      -0.787  11.943  20.948  0.00  0.00    +0.000 A 
ATOM     19  C   UNL     1      -0.391  12.585  22.109  0.00  0.00    +0.000 A 
ATOM     20  C   UNL     1      -1.271  13.494  22.695  0.00  0.00    +0.000 A 
ATOM     21  C   UNL     1      -2.537  13.723  22.128  0.00  0.00    +0.000 A 
ATOM     22  C   UNL     1      -2.917  13.089  20.943  0.00  0.00    +0.000 A 
ATOM     23  C   UNL     1      -2.012  12.230  20.341  0.00  0.00    +0.000 A 
ATOM     24  C   UNL     1      -2.175  11.410  19.097  0.00  0.00    +0.000 C 
ATOM     25  C   UNL     1      -0.693  11.034  18.835  0.00  0.00    +0.000 C 
ATOM     26  C   UNL     1      -0.540   9.910  17.832  0.00  0.00    +0.000 C 
ENDBRANCH  14  15
ENDBRANCH   1  14
TORSDOF 3
ENDMDL
MODEL 5
REMARK VINA RESULT:      -8.1      1.228      2.218
REMARK  Name = 
REMARK  6 active torsions:
REMARK  status: ('A' for Active; 'I' for Inactive)
REMARK    1  A    between atoms: C_1  and  C_2
REMARK    2  A    between atoms: C_7  and  S_8
REMARK    3  A    between atoms: S_8  and  C_9
REMARK    4  A    between atoms: C_9  and  C_10
REMARK    5  A    between atoms: C_20  and  C_21
REMARK    6  A    between atoms: C_22  and  C_23
REMARK                            x       y       z     vdW  Elec       q    Type
REMARK                         _______ _______ _______ _____ _____    ______ ____
ROOT
ATOM      1  S   UNL     1       1.435   6.325  20.756  0.00  0.00    +0.000 S 
ENDROOT
BRANCH   1   8
ATOM      2  C   UNL     1       6.347   4.125  14.559  0.00  0.00    +0.000 C 
ATOM      3  C   UNL     1       5.538   4.696  15.686  0.00  0.00    +0.000 A 
ATOM      4  C   UNL     1       5.761   5.988  16.164  0.00  0.00    +0.000 A 
ATOM      5  C   UNL     1       4.968   6.503  17.200  0.00  0.00    +0.000 A 
ATOM      6  C   UNL     1       3.960   5.757  17.796  0.00  0.00    +0.000 A 
ATOM      7  N   UNL     1       3.221   6.289  18.790  0.00  0.00    +0.000 NA
ATOM      8  C   UNL     1       2.276   5.521  19.394  0.00  0.00    +0.000 A 
ATOM      9  C   UNL     1       2.042   4.191  19.032  0.00  0.00    +0.000 A 
ATOM     10  C   UNL     1       1.067   3.263  19.692  0.00  0.00    +0.000 C 
ATOM     11  C   UNL     1       2.782   3.673  17.961  0.00  0.00    +0.000 A 
ATOM     12  C   UNL     1       3.758   4.451  17.329  0.00  0.00    +0.000 A 
ATOM     13  C   UNL     1       4.527   3.932  16.273  0.00  0.00    +0.000 A 
ENDBRANCH   1   8
BRANCH   1  14
ATOM     14  C   UNL     1       2.053   8.040  20.534  0.00  0.00    +0.000 C 
BRANCH  14  15
ATOM     15  C   UNL     1       1.106   8.897  19.710  0.00  0.00    +0.000 C 
ATOM     16  O   UNL     1       1.283   9.017  18.489  0.00  0.00    +0.000 OA
ATOM     17  N   UNL     1       0.062   9.548  20.357  0.00  0.00    +0.000 N 
ATOM     18  C   UNL     1      -0.796  10.424  19.638  0.00  0.00    +0.000 A 
ATOM     19  C   UNL     1      -1.188  10.355  18.313  0.00  0.00    +0.000 A 
ATOM     20  C   UNL     1      -1.985  11.382  17.805  0.00  0.00    +0.000 A 
ATOM     21  C   UNL     1      -2.349  12.468  18.621  0.00  0.00    +0.000 A 
ATOM     22  C   UNL     1      -1.967  12.514  19.964  0.00  0.00    +0.000 A 
ATOM     23  C   UNL     1      -1.223  11.462  20.470  0.00  0.00    +0.000 A 
ATOM     24  C   UNL     1      -0.665  11.278  21.850  0.00  0.00    +0.000 C 
ATOM     25  C   UNL     1      -0.315   9.769  21.792  0.00  0.00    +0.000 C 
ATOM     26  C   UNL     1       0.594   9.333  22.921  0.00  0.00    +0.000 C 
ENDBRANCH  14  15
ENDBRANCH   1  14
TORSDOF 3
ENDMDL
MODEL 6
REMARK VINA RESULT:      -8.1      2.687      9.033
REMARK  Name = 
REMARK  6 active torsions:
REMARK  status: ('A' for Active; 'I' for Inactive)
REMARK    1  A    between atoms: C_1  and  C_2
REMARK    2  A    between atoms: C_7  and  S_8
REMARK    3  A    between atoms: S_8  and  C_9
REMARK    4  A    between atoms: C_9  and  C_10
REMARK    5  A    between atoms: C_20  and  C_21
REMARK    6  A    between atoms: C_22  and  C_23
REMARK                            x       y       z     vdW  Elec       q    Type
REMARK                         _______ _______ _______ _____ _____    ______ ____
ROOT
ATOM      1  S   UNL     1       1.383  10.962  18.932  0.00  0.00    +0.000 S 
ENDROOT
BRANCH   1   8
ATOM      2  C   UNL     1      -6.687  12.013  17.862  0.00  0.00    +0.000 C 
ATOM      3  C   UNL     1      -5.211  11.751  17.880  0.00  0.00    +0.000 A 
ATOM      4  C   UNL     1      -4.559  11.168  16.793  0.00  0.00    +0.000 A 
ATOM      5  C   UNL     1      -3.172  10.962  16.830  0.00  0.00    +0.000 A 
ATOM      6  C   UNL     1      -2.406  11.304  17.936  0.00  0.00    +0.000 A 
ATOM      7  N   UNL     1      -1.075  11.089  17.931  0.00  0.00    +0.000 NA
ATOM      8  C   UNL     1      -0.355  11.383  19.046  0.00  0.00    +0.000 A 
ATOM      9  C   UNL     1      -0.941  11.895  20.207  0.00  0.00    +0.000 A 
ATOM     10  C   UNL     1      -0.226  12.183  21.494  0.00  0.00    +0.000 C 
ATOM     11  C   UNL     1      -2.315  12.164  20.174  0.00  0.00    +0.000 A 
ATOM     12  C   UNL     1      -3.071  11.867  19.035  0.00  0.00    +0.000 A 
ATOM     13  C   UNL     1      -4.455  12.104  19.001  0.00  0.00    +0.000 A 
ENDBRANCH   1   8
BRANCH   1  14
ATOM     14  C   UNL     1       1.273   9.138  19.125  0.00  0.00    +0.000 C 
BRANCH  14  15
ATOM     15  C   UNL     1       2.241   8.400  18.215  0.00  0.00    +0.000 C 
ATOM     16  O   UNL     1       2.538   8.877  17.109  0.00  0.00    +0.000 OA
ATOM     17  N   UNL     1       2.761   7.183  18.641  0.00  0.00    +0.000 N 
ATOM     18  C   UNL     1       3.603   6.421  17.786  0.00  0.00    +0.000 A 
ATOM     19  C   UNL     1       4.492   6.868  16.824  0.00  0.00    +0.000 A 
ATOM     20  C   UNL     1       5.161   5.920  16.050  0.00  0.00    +0.000 A 
ATOM     21  C   UNL     1       4.909   4.549  16.233  0.00  0.00    +0.000 A 
ATOM     22  C   UNL     1       4.028   4.108  17.223  0.00  0.00    +0.000 A 
ATOM     23  C   UNL     1       3.412   5.057  18.021  0.00  0.00    +0.000 A 
ATOM     24  C   UNL     1       2.414   4.860  19.123  0.00  0.00    +0.000 C 
ATOM     25  C   UNL     1       2.478   6.259  19.788  0.00  0.00    +0.000 C 
ATOM     26  C   UNL     1       1.325   6.512  20.737  0.00  0.00    +0.000 C 
ENDBRANCH  14  15
ENDBRANCH   1  14
TORSDOF 3
ENDMDL
MODEL 7
REMARK VINA RESULT:      -8.0      2.803      7.213
REMARK  Name = 
REMARK  6 active torsions:
REMARK  status: ('A' for Active; 'I' for Inactive)
REMARK    1  A    between atoms: C_1  and  C_2
REMARK    2  A    between atoms: C_7  and  S_8
REMARK    3  A    between atoms: S_8  and  C_9
REMARK    4  A    between atoms: C_9  and  C_10
REMARK    5  A    between atoms: C_20  and  C_21
REMARK    6  A    between atoms: C_22  and  C_23
REMARK                            x       y       z     vdW  Elec       q    Type
REMARK                         _______ _______ _______ _____ _____    ______ ____
ROOT
ATOM      1  S   UNL     1       2.844   2.308  18.642  0.00  0.00    +0.000 S 
ENDROOT
BRANCH   1   8
ATOM      2  C   UNL     1       1.310  10.320  19.560  0.00  0.00    +0.000 C 
ATOM      3  C   UNL     1       1.634   8.897  19.211  0.00  0.00    +0.000 A 
ATOM      4  C   UNL     1       2.013   8.530  17.920  0.00  0.00    +0.000 A 
ATOM      5  C   UNL     1       2.337   7.196  17.632  0.00  0.00    +0.000 A 
ATOM      6  C   UNL     1       2.276   6.199  18.597  0.00  0.00    +0.000 A 
ATOM      7  N   UNL     1       2.595   4.929  18.279  0.00  0.00    +0.000 NA
ATOM      8  C   UNL     1       2.476   3.962  19.227  0.00  0.00    +0.000 A 
ATOM      9  C   UNL     1       2.026   4.229  20.523  0.00  0.00    +0.000 A 
ATOM     10  C   UNL     1       1.807   3.209  21.602  0.00  0.00    +0.000 C 
ATOM     11  C   UNL     1       1.752   5.563  20.851  0.00  0.00    +0.000 A 
ATOM     12  C   UNL     1       1.870   6.570  19.887  0.00  0.00    +0.000 A 
ATOM     13  C   UNL     1       1.569   7.908  20.195  0.00  0.00    +0.000 A 
ENDBRANCH   1   8
BRANCH   1  14
ATOM     14  C   UNL     1       4.246   2.683  17.516  0.00  0.00    +0.000 C 
BRANCH  14  15
ATOM     15  C   UNL     1       5.254   3.634  18.140  0.00  0.00    +0.000 C 
ATOM     16  O   UNL     1       5.425   3.636  19.369  0.00  0.00    +0.000 OA
ATOM     17  N   UNL     1       5.953   4.503  17.312  0.00  0.00    +0.000 N 
ATOM     18  C   UNL     1       6.843   5.464  17.863  0.00  0.00    +0.000 A 
ATOM     19  C   UNL     1       7.612   5.374  19.011  0.00  0.00    +0.000 A 
ATOM     20  C   UNL     1       8.359   6.487  19.395  0.00  0.00    +0.000 A 
ATOM     21  C   UNL     1       8.303   7.675  18.644  0.00  0.00    +0.000 A 
ATOM     22  C   UNL     1       7.543   7.746  17.474  0.00  0.00    +0.000 A 
ATOM     23  C   UNL     1       6.849   6.617  17.073  0.00  0.00    +0.000 A 
ATOM     24  C   UNL     1       5.947   6.434  15.890  0.00  0.00    +0.000 C 
ATOM     25  C   UNL     1       5.858   4.886  15.865  0.00  0.00    +0.000 C 
ATOM     26  C   UNL     1       4.734   4.376  14.987  0.00  0.00    +0.000 C 
ENDBRANCH  14  15
ENDBRANCH   1  14
TORSDOF 3
ENDMDL
MODEL 8
REMARK VINA RESULT:      -7.9      4.465      6.268
REMARK  Name = 
REMARK  6 active torsions:
REMARK  status: ('A' for Active; 'I' for Inactive)
REMARK    1  A    between atoms: C_1  and  C_2
REMARK    2  A    between atoms: C_7  and  S_8
REMARK    3  A    between atoms: S_8  and  C_9
REMARK    4  A    between atoms: C_9  and  C_10
REMARK    5  A    between atoms: C_20  and  C_21
REMARK    6  A    between atoms: C_22  and  C_23
REMARK                            x       y       z     vdW  Elec       q    Type
REMARK                         _______ _______ _______ _____ _____    ______ ____
ROOT
ATOM      1  S   UNL     1      -0.258  12.012  20.922  0.00  0.00    +0.000 S 
ENDROOT
BRANCH   1   8
ATOM      2  C   UNL     1       3.622   5.319  18.179  0.00  0.00    +0.000 C 
ATOM      3  C   UNL     1       2.948   6.618  18.509  0.00  0.00    +0.000 A 
ATOM      4  C   UNL     1       2.895   7.667  17.590  0.00  0.00    +0.000 A 
ATOM      5  C   UNL     1       2.232   8.859  17.918  0.00  0.00    +0.000 A 
ATOM      6  C   UNL     1       1.627   9.048  19.154  0.00  0.00    +0.000 A 
ATOM      7  N   UNL     1       1.000  10.209  19.430  0.00  0.00    +0.000 NA
ATOM      8  C   UNL     1       0.463  10.392  20.665  0.00  0.00    +0.000 A 
ATOM      9  C   UNL     1       0.540   9.424  21.670  0.00  0.00    +0.000 A 
ATOM     10  C   UNL     1       0.031   9.576  23.073  0.00  0.00    +0.000 C 
ATOM     11  C   UNL     1       1.147   8.204  21.348  0.00  0.00    +0.000 A 
ATOM     12  C   UNL     1       1.705   8.000  20.081  0.00  0.00    +0.000 A 
ATOM     13  C   UNL     1       2.343   6.791  19.756  0.00  0.00    +0.000 A 
ENDBRANCH   1   8
BRANCH   1  14
ATOM     14  C   UNL     1       1.018  13.052  20.106  0.00  0.00    +0.000 C 
BRANCH  14  15
ATOM     15  C   UNL     1       0.421  14.264  19.410  0.00  0.00    +0.000 C 
ATOM     16  O   UNL     1      -0.759  14.239  19.026  0.00  0.00    +0.000 OA
ATOM     17  N   UNL     1       1.226  15.377  19.200  0.00  0.00    +0.000 N 
ATOM     18  C   UNL     1       0.732  16.498  18.480  0.00  0.00    +0.000 A 
ATOM     19  C   UNL     1      -0.564  16.981  18.413  0.00  0.00    +0.000 A 
ATOM     20  C   UNL     1      -0.824  18.063  17.572  0.00  0.00    +0.000 A 
ATOM     21  C   UNL     1       0.206  18.622  16.796  0.00  0.00    +0.000 A 
ATOM     22  C   UNL     1       1.515  18.143  16.889  0.00  0.00    +0.000 A 
ATOM     23  C   UNL     1       1.770  17.104  17.769  0.00  0.00    +0.000 A 
ATOM     24  C   UNL     1       3.062  16.392  18.039  0.00  0.00    +0.000 C 
ATOM     25  C   UNL     1       2.690  15.664  19.356  0.00  0.00    +0.000 C 
ATOM     26  C   UNL     1       3.672  14.571  19.721  0.00  0.00    +0.000 C 
ENDBRANCH  14  15
ENDBRANCH   1  14
TORSDOF 3
ENDMDL
MODEL 9
REMARK VINA RESULT:      -7.9      3.354      5.513
REMARK  Name = 
REMARK  6 active torsions:
REMARK  status: ('A' for Active; 'I' for Inactive)
REMARK    1  A    between atoms: C_1  and  C_2
REMARK    2  A    between atoms: C_7  and  S_8
REMARK    3  A    between atoms: S_8  and  C_9
REMARK    4  A    between atoms: C_9  and  C_10
REMARK    5  A    between atoms: C_20  and  C_21
REMARK    6  A    between atoms: C_22  and  C_23
REMARK                            x       y       z     vdW  Elec       q    Type
REMARK                         _______ _______ _______ _____ _____    ______ ____
ROOT
ATOM      1  S   UNL     1       0.378  12.155  19.877  0.00  0.00    +0.000 S 
ENDROOT
BRANCH   1   8
ATOM      2  C   UNL     1       3.282   4.518  19.091  0.00  0.00    +0.000 C 
ATOM      3  C   UNL     1       2.821   5.945  19.060  0.00  0.00    +0.000 A 
ATOM      4  C   UNL     1       3.085   6.774  17.969  0.00  0.00    +0.000 A 
ATOM      5  C   UNL     1       2.615   8.096  17.958  0.00  0.00    +0.000 A 
ATOM      6  C   UNL     1       1.899   8.632  19.020  0.00  0.00    +0.000 A 
ATOM      7  N   UNL     1       1.467   9.907  18.971  0.00  0.00    +0.000 NA
ATOM      8  C   UNL     1       0.814  10.425  20.045  0.00  0.00    +0.000 A 
ATOM      9  C   UNL     1       0.579   9.689  21.209  0.00  0.00    +0.000 A 
ATOM     10  C   UNL     1      -0.074  10.209  22.456  0.00  0.00    +0.000 C 
ATOM     11  C   UNL     1       0.987   8.349  21.222  0.00  0.00    +0.000 A 
ATOM     12  C   UNL     1       1.659   7.801  20.124  0.00  0.00    +0.000 A 
ATOM     13  C   UNL     1       2.100   6.467  20.137  0.00  0.00    +0.000 A 
ENDBRANCH   1   8
BRANCH   1  14
ATOM     14  C   UNL     1      -1.004  12.011  18.675  0.00  0.00    +0.000 C 
BRANCH  14  15
ATOM     15  C   UNL     1      -2.366  12.090  19.344  0.00  0.00    +0.000 C 
ATOM     16  O   UNL     1      -2.445  12.291  20.566  0.00  0.00    +0.000 OA
ATOM     17  N   UNL     1      -3.503  11.912  18.565  0.00  0.00    +0.000 N 
ATOM     18  C   UNL     1      -4.792  11.894  19.165  0.00  0.00    +0.000 A 
ATOM     19  C   UNL     1      -5.233  12.575  20.287  0.00  0.00    +0.000 A 
ATOM     20  C   UNL     1      -6.533  12.339  20.734  0.00  0.00    +0.000 A 
ATOM     21  C   UNL     1      -7.354  11.410  20.071  0.00  0.00    +0.000 A 
ATOM     22  C   UNL     1      -6.906  10.746  18.927  0.00  0.00    +0.000 A 
ATOM     23  C   UNL     1      -5.634  11.030  18.461  0.00  0.00    +0.000 A 
ATOM     24  C   UNL     1      -4.906  10.446  17.287  0.00  0.00    +0.000 C 
ATOM     25  C   UNL     1      -3.756  11.477  17.152  0.00  0.00    +0.000 C 
ATOM     26  C   UNL     1      -2.630  10.989  16.265  0.00  0.00    +0.000 C 
ENDBRANCH  14  15
ENDBRANCH   1  14
TORSDOF 3
ENDMDL
