MODEL 1
REMARK VINA RESULT:      -7.0      0.000      0.000
REMARK  Name = 
REMARK  11 active torsions:
REMARK  status: ('A' for Active; 'I' for Inactive)
REMARK    1  A    between atoms: C_1  and  C_2
REMARK    2  A    between atoms: C_2  and  O_3
REMARK    3  A    between atoms: O_3  and  C_4
REMARK    4  A    between atoms: C_7  and  N_8
REMARK    5  A    between atoms: N_8  and  C_9
REMARK    6  A    between atoms: N_8  and  S_11
REMARK    7  A    between atoms: C_9  and  C_10
REMARK    8  A    between atoms: S_11  and  C_14
REMARK    9  A    between atoms: C_15  and  C_16
REMARK   10  A    between atoms: C_18  and  O_19
REMARK   11  A    between atoms: C_21  and  O_22
REMARK                            x       y       z     vdW  Elec       q    Type
REMARK                         _______ _______ _______ _____ _____    ______ ____
ROOT
ATOM      1  S   UNL     1       4.990   4.582  18.880  0.00  0.00    +0.000 S 
ATOM      2  O   UNL     1       5.503   5.666  19.700  0.00  0.00    +0.000 OA
ATOM      3  O   UNL     1       5.271   3.205  19.242  0.00  0.00    +0.000 OA
ENDROOT
BRANCH   1   4
ATOM      4  C   UNL     1       5.749   4.779  17.301  0.00  0.00    +0.000 A 
ATOM      5  C   UNL     1       6.426   5.954  16.989  0.00  0.00    +0.000 A 
ATOM      6  C   UNL     1       6.447   7.202  17.822  0.00  0.00    +0.000 C 
ATOM      7  N   UNL     1       7.151   6.088  15.841  0.00  0.00    +0.000 NA
ATOM      8  C   UNL     1       7.140   5.052  15.011  0.00  0.00    +0.000 A 
ATOM      9  N   UNL     1       6.474   3.918  15.170  0.00  0.00    +0.000 NA
ATOM     10  C   UNL     1       5.796   3.815  16.330  0.00  0.00    +0.000 A 
BRANCH   8  11
ATOM     11  O   UNL     1       7.902   5.199  13.899  0.00  0.00    +0.000 OA
ATOM     12  H   UNL     1       7.351   4.708  13.267  0.00  0.00    +0.000 HD
ENDBRANCH   8  11
BRANCH  10  13
ATOM     13  O   UNL     1       5.138   2.639  16.372  0.00  0.00    +0.000 OA
ATOM     14  H   UNL     1       5.892   2.016  16.356  0.00  0.00    +0.000 HD
ENDBRANCH  10  13
ENDBRANCH   1   4
BRANCH   1  15
ATOM     15  N   UNL     1       3.294   4.798  18.773  0.00  0.00    +0.000 N 
BRANCH  15  19
ATOM     16  C   UNL     1       1.801   8.780  19.057  0.00  0.00    +0.000 A 
ATOM     17  C   UNL     1       2.404   8.333  17.879  0.00  0.00    +0.000 A 
ATOM     18  C   UNL     1       2.908   7.032  17.778  0.00  0.00    +0.000 A 
ATOM     19  C   UNL     1       2.812   6.154  18.859  0.00  0.00    +0.000 A 
ATOM     20  C   UNL     1       2.245   6.608  20.054  0.00  0.00    +0.000 A 
ATOM     21  C   UNL     1       1.742   7.917  20.155  0.00  0.00    +0.000 A 
BRANCH  16  22
ATOM     22  O   UNL     1       1.359  10.076  19.037  0.00  0.00    +0.000 OA
BRANCH  22  24
ATOM     23  C   UNL     1      -0.945  10.310  18.437  0.00  0.00    +0.000 C 
ATOM     24  C   UNL     1       0.061  10.322  19.580  0.00  0.00    +0.000 C 
ENDBRANCH  22  24
ENDBRANCH  16  22
ENDBRANCH  15  19
BRANCH  15  25
ATOM     25  C   UNL     1       2.527   3.757  18.019  0.00  0.00    +0.000 C 
ATOM     26  C   UNL     1       1.349   3.125  18.749  0.00  0.00    +0.000 C 
ENDBRANCH  15  25
ENDBRANCH   1  15
TORSDOF 8
ENDMDL
MODEL 2
REMARK VINA RESULT:      -6.9      0.217      1.006
REMARK  Name = 
REMARK  11 active torsions:
REMARK  status: ('A' for Active; 'I' for Inactive)
REMARK    1  A    between atoms: C_1  and  C_2
REMARK    2  A    between atoms: C_2  and  O_3
REMARK    3  A    between atoms: O_3  and  C_4
REMARK    4  A    between atoms: C_7  and  N_8
REMARK    5  A    between atoms: N_8  and  C_9
REMARK    6  A    between atoms: N_8  and  S_11
REMARK    7  A    between atoms: C_9  and  C_10
REMARK    8  A    between atoms: S_11  and  C_14
REMARK    9  A    between atoms: C_15  and  C_16
REMARK   10  A    between atoms: C_18  and  O_19
REMARK   11  A    between atoms: C_21  and  O_22
REMARK                            x       y       z     vdW  Elec       q    Type
REMARK                         _______ _______ _______ _____ _____    ______ ____
ROOT
ATOM      1  S   UNL     1       4.859   4.536  18.851  0.00  0.00    +0.000 S 
ATOM      2  O   UNL     1       5.348   5.614  19.693  0.00  0.00    +0.000 OA
ATOM      3  O   UNL     1       5.143   3.157  19.203  0.00  0.00    +0.000 OA
ENDROOT
BRANCH   1   4
ATOM      4  C   UNL     1       5.648   4.757  17.289  0.00  0.00    +0.000 A 
ATOM      5  C   UNL     1       6.287   5.955  16.989  0.00  0.00    +0.000 A 
ATOM      6  C   UNL     1       6.241   7.206  17.817  0.00  0.00    +0.000 C 
ATOM      7  N   UNL     1       7.033   6.113  15.858  0.00  0.00    +0.000 NA
ATOM      8  C   UNL     1       7.081   5.074  15.032  0.00  0.00    +0.000 A 
ATOM      9  N   UNL     1       6.455   3.916  15.179  0.00  0.00    +0.000 NA
ATOM     10  C   UNL     1       5.754   3.792  16.323  0.00  0.00    +0.000 A 
BRANCH   8  11
ATOM     11  O   UNL     1       7.862   5.246  13.937  0.00  0.00    +0.000 OA
ATOM     12  H   UNL     1       7.280   5.827  13.420  0.00  0.00    +0.000 HD
ENDBRANCH   8  11
BRANCH  10  13
ATOM     13  O   UNL     1       5.139   2.592  16.355  0.00  0.00    +0.000 OA
ATOM     14  H   UNL     1       5.297   2.290  15.438  0.00  0.00    +0.000 HD
ENDBRANCH  10  13
ENDBRANCH   1   4
BRANCH   1  15
ATOM     15  N   UNL     1       3.164   4.741  18.713  0.00  0.00    +0.000 N 
BRANCH  15  19
ATOM     16  C   UNL     1       1.747   8.728  19.223  0.00  0.00    +0.000 A 
ATOM     17  C   UNL     1       1.690   7.816  20.280  0.00  0.00    +0.000 A 
ATOM     18  C   UNL     1       2.141   6.501  20.121  0.00  0.00    +0.000 A 
ATOM     19  C   UNL     1       2.662   6.080  18.896  0.00  0.00    +0.000 A 
ATOM     20  C   UNL     1       2.686   6.977  17.824  0.00  0.00    +0.000 A 
ATOM     21  C   UNL     1       2.229   8.296  17.984  0.00  0.00    +0.000 A 
BRANCH  16  22
ATOM     22  O   UNL     1       1.264   9.979  19.499  0.00  0.00    +0.000 OA
BRANCH  22  24
ATOM     23  C   UNL     1      -0.991  10.323  18.778  0.00  0.00    +0.000 C 
ATOM     24  C   UNL     1      -0.082  10.060  19.971  0.00  0.00    +0.000 C 
ENDBRANCH  22  24
ENDBRANCH  16  22
ENDBRANCH  15  19
BRANCH  15  25
ATOM     25  C   UNL     1       2.432   3.756  17.855  0.00  0.00    +0.000 C 
ATOM     26  C   UNL     1       1.382   2.902  18.553  0.00  0.00    +0.000 C 
ENDBRANCH  15  25
ENDBRANCH   1  15
TORSDOF 8
ENDMDL
MODEL 3
REMARK VINA RESULT:      -6.5      2.565      4.548
REMARK  Name = 
REMARK  11 active torsions:
REMARK  status: ('A' for Active; 'I' for Inactive)
REMARK    1  A    between atoms: C_1  and  C_2
REMARK    2  A    between atoms: C_2  and  O_3
REMARK    3  A    between atoms: O_3  and  C_4
REMARK    4  A    between atoms: C_7  and  N_8
REMARK    5  A    between atoms: N_8  and  C_9
REMARK    6  A    between atoms: N_8  and  S_11
REMARK    7  A    between atoms: C_9  and  C_10
REMARK    8  A    between atoms: S_11  and  C_14
REMARK    9  A    between atoms: C_15  and  C_16
REMARK   10  A    between atoms: C_18  and  O_19
REMARK   11  A    between atoms: C_21  and  O_22
REMARK                            x       y       z     vdW  Elec       q    Type
REMARK                         _______ _______ _______ _____ _____    ______ ____
ROOT
ATOM      1  S   UNL     1       4.885   6.122  16.577  0.00  0.00    +0.000 S 
ATOM      2  O   UNL     1       4.541   4.860  15.945  0.00  0.00    +0.000 OA
ATOM      3  O   UNL     1       5.513   7.173  15.798  0.00  0.00    +0.000 OA
ENDROOT
BRANCH   1   4
ATOM      4  C   UNL     1       6.079   5.725  17.813  0.00  0.00    +0.000 A 
ATOM      5  C   UNL     1       7.112   6.611  18.102  0.00  0.00    +0.000 A 
ATOM      6  C   UNL     1       7.441   7.857  17.331  0.00  0.00    +0.000 C 
ATOM      7  N   UNL     1       7.964   6.411  19.148  0.00  0.00    +0.000 NA
ATOM      8  C   UNL     1       7.786   5.299  19.851  0.00  0.00    +0.000 A 
ATOM      9  N   UNL     1       6.887   4.353  19.622  0.00  0.00    +0.000 NA
ATOM     10  C   UNL     1       6.047   4.605  18.599  0.00  0.00    +0.000 A 
BRANCH   8  11
ATOM     11  O   UNL     1       8.621   5.148  20.908  0.00  0.00    +0.000 OA
ATOM     12  H   UNL     1       8.191   5.754  21.535  0.00  0.00    +0.000 HD
ENDBRANCH   8  11
BRANCH  10  13
ATOM     13  O   UNL     1       5.198   3.569  18.440  0.00  0.00    +0.000 OA
ATOM     14  H   UNL     1       4.910   3.435  19.365  0.00  0.00    +0.000 HD
ENDBRANCH  10  13
ENDBRANCH   1   4
BRANCH   1  15
ATOM     15  N   UNL     1       3.450   6.731  17.288  0.00  0.00    +0.000 N 
BRANCH  15  19
ATOM     16  C   UNL     1       1.437   4.097  19.964  0.00  0.00    +0.000 A 
ATOM     17  C   UNL     1       1.367   3.893  18.585  0.00  0.00    +0.000 A 
ATOM     18  C   UNL     1       2.014   4.758  17.696  0.00  0.00    +0.000 A 
ATOM     19  C   UNL     1       2.747   5.843  18.178  0.00  0.00    +0.000 A 
ATOM     20  C   UNL     1       2.789   6.075  19.557  0.00  0.00    +0.000 A 
ATOM     21  C   UNL     1       2.135   5.207  20.448  0.00  0.00    +0.000 A 
BRANCH  16  22
ATOM     22  O   UNL     1       0.751   3.190  20.729  0.00  0.00    +0.000 OA
BRANCH  22  24
ATOM     23  C   UNL     1       2.813   2.236  21.478  0.00  0.00    +0.000 C 
ATOM     24  C   UNL     1       1.419   2.692  21.889  0.00  0.00    +0.000 C 
ENDBRANCH  22  24
ENDBRANCH  16  22
ENDBRANCH  15  19
BRANCH  15  25
ATOM     25  C   UNL     1       3.356   8.217  17.450  0.00  0.00    +0.000 C 
ATOM     26  C   UNL     1       1.968   8.780  17.721  0.00  0.00    +0.000 C 
ENDBRANCH  15  25
ENDBRANCH   1  15
TORSDOF 8
ENDMDL
MODEL 4
REMARK VINA RESULT:      -6.5      3.197      6.997
REMARK  Name = 
REMARK  11 active torsions:
REMARK  status: ('A' for Active; 'I' for Inactive)
REMARK    1  A    between atoms: C_1  and  C_2
REMARK    2  A    between atoms: C_2  and  O_3
REMARK    3  A    between atoms: O_3  and  C_4
REMARK    4  A    between atoms: C_7  and  N_8
REMARK    5  A    between atoms: N_8  and  C_9
REMARK    6  A    between atoms: N_8  and  S_11
REMARK    7  A    between atoms: C_9  and  C_10
REMARK    8  A    between atoms: S_11  and  C_14
REMARK    9  A    between atoms: C_15  and  C_16
REMARK   10  A    between atoms: C_18  and  O_19
REMARK   11  A    between atoms: C_21  and  O_22
REMARK                            x       y       z     vdW  Elec       q    Type
REMARK                         _______ _______ _______ _____ _____    ______ ____
ROOT
ATOM      1  S   UNL     1       3.469   5.428  18.398  0.00  0.00    +0.000 S 
ATOM      2  O   UNL     1       3.490   6.755  18.988  0.00  0.00    +0.000 OA
ATOM      3  O   UNL     1       2.692   5.181  17.198  0.00  0.00    +0.000 OA
ENDROOT
BRANCH   1   4
ATOM      4  C   UNL     1       2.737   4.379  19.613  0.00  0.00    +0.000 A 
ATOM      5  C   UNL     1       2.672   3.005  19.407  0.00  0.00    +0.000 A 
ATOM      6  C   UNL     1       3.023   2.291  18.134  0.00  0.00    +0.000 C 
ATOM      7  N   UNL     1       2.252   2.147  20.381  0.00  0.00    +0.000 NA
ATOM      8  C   UNL     1       1.863   2.697  21.525  0.00  0.00    +0.000 A 
ATOM      9  N   UNL     1       1.813   3.991  21.804  0.00  0.00    +0.000 NA
ATOM     10  C   UNL     1       2.264   4.800  20.826  0.00  0.00    +0.000 A 
BRANCH   8  11
ATOM     11  O   UNL     1       1.490   1.818  22.487  0.00  0.00    +0.000 OA
ATOM     12  H   UNL     1       1.788   0.993  22.069  0.00  0.00    +0.000 HD
ENDBRANCH   8  11
BRANCH  10  13
ATOM     13  O   UNL     1       2.142   6.089  21.207  0.00  0.00    +0.000 OA
ATOM     14  H   UNL     1       3.078   6.309  21.383  0.00  0.00    +0.000 HD
ENDBRANCH  10  13
ENDBRANCH   1   4
BRANCH   1  15
ATOM     15  N   UNL     1       5.099   4.984  18.111  0.00  0.00    +0.000 N 
BRANCH  15  19
ATOM     16  C   UNL     1       6.158   4.446  14.019  0.00  0.00    +0.000 A 
ATOM     17  C   UNL     1       6.141   3.358  14.894  0.00  0.00    +0.000 A 
ATOM     18  C   UNL     1       5.806   3.524  16.242  0.00  0.00    +0.000 A 
ATOM     19  C   UNL     1       5.479   4.788  16.735  0.00  0.00    +0.000 A 
ATOM     20  C   UNL     1       5.531   5.888  15.872  0.00  0.00    +0.000 A 
ATOM     21  C   UNL     1       5.872   5.719  14.519  0.00  0.00    +0.000 A 
BRANCH  16  22
ATOM     22  O   UNL     1       6.513   4.157  12.728  0.00  0.00    +0.000 OA
BRANCH  22  24
ATOM     23  C   UNL     1       4.569   3.321  11.612  0.00  0.00    +0.000 C 
ATOM     24  C   UNL     1       5.950   2.976  12.154  0.00  0.00    +0.000 C 
ENDBRANCH  22  24
ENDBRANCH  16  22
ENDBRANCH  15  19
BRANCH  15  25
ATOM     25  C   UNL     1       6.105   5.414  19.133  0.00  0.00    +0.000 C 
ATOM     26  C   UNL     1       7.461   5.858  18.601  0.00  0.00    +0.000 C 
ENDBRANCH  15  25
ENDBRANCH   1  15
TORSDOF 8
ENDMDL
MODEL 5
REMARK VINA RESULT:      -6.4      1.428      2.231
REMARK  Name = 
REMARK  11 active torsions:
REMARK  status: ('A' for Active; 'I' for Inactive)
REMARK    1  A    between atoms: C_1  and  C_2
REMARK    2  A    between atoms: C_2  and  O_3
REMARK    3  A    between atoms: O_3  and  C_4
REMARK    4  A    between atoms: C_7  and  N_8
REMARK    5  A    between atoms: N_8  and  C_9
REMARK    6  A    between atoms: N_8  and  S_11
REMARK    7  A    between atoms: C_9  and  C_10
REMARK    8  A    between atoms: S_11  and  C_14
REMARK    9  A    between atoms: C_15  and  C_16
REMARK   10  A    between atoms: C_18  and  O_19
REMARK   11  A    between atoms: C_21  and  O_22
REMARK                            x       y       z     vdW  Elec       q    Type
REMARK                         _______ _______ _______ _____ _____    ______ ____
ROOT
ATOM      1  S   UNL     1       4.443   3.259  18.540  0.00  0.00    +0.000 S 
ATOM      2  O   UNL     1       4.857   2.929  19.893  0.00  0.00    +0.000 OA
ATOM      3  O   UNL     1       4.575   2.274  17.483  0.00  0.00    +0.000 OA
ENDROOT
BRANCH   1   4
ATOM      4  C   UNL     1       5.489   4.585  18.033  0.00  0.00    +0.000 A 
ATOM      5  C   UNL     1       5.497   5.004  16.706  0.00  0.00    +0.000 A 
ATOM      6  C   UNL     1       4.806   4.317  15.564  0.00  0.00    +0.000 C 
ATOM      7  N   UNL     1       6.176   6.117  16.304  0.00  0.00    +0.000 NA
ATOM      8  C   UNL     1       6.869   6.756  17.239  0.00  0.00    +0.000 A 
ATOM      9  N   UNL     1       6.991   6.407  18.511  0.00  0.00    +0.000 NA
ATOM     10  C   UNL     1       6.282   5.320  18.872  0.00  0.00    +0.000 A 
BRANCH   8  11
ATOM     11  O   UNL     1       7.499   7.881  16.819  0.00  0.00    +0.000 OA
ATOM     12  H   UNL     1       6.817   8.535  17.043  0.00  0.00    +0.000 HD
ENDBRANCH   8  11
BRANCH  10  13
ATOM     13  O   UNL     1       6.502   5.042  20.173  0.00  0.00    +0.000 OA
ATOM     14  H   UNL     1       7.313   4.501  20.102  0.00  0.00    +0.000 HD
ENDBRANCH  10  13
ENDBRANCH   1   4
BRANCH   1  15
ATOM     15  N   UNL     1       2.810   3.769  18.629  0.00  0.00    +0.000 N 
BRANCH  15  19
ATOM     16  C   UNL     1       2.088   7.921  19.263  0.00  0.00    +0.000 A 
ATOM     17  C   UNL     1       2.338   7.435  17.978  0.00  0.00    +0.000 A 
ATOM     18  C   UNL     1       2.588   6.076  17.759  0.00  0.00    +0.000 A 
ATOM     19  C   UNL     1       2.587   5.179  18.829  0.00  0.00    +0.000 A 
ATOM     20  C   UNL     1       2.375   5.666  20.123  0.00  0.00    +0.000 A 
ATOM     21  C   UNL     1       2.129   7.032  20.341  0.00  0.00    +0.000 A 
BRANCH  16  22
ATOM     22  O   UNL     1       1.870   9.270  19.350  0.00  0.00    +0.000 OA
BRANCH  22  24
ATOM     23  C   UNL     1      -0.263  10.351  19.282  0.00  0.00    +0.000 C 
ATOM     24  C   UNL     1       0.783   9.695  20.173  0.00  0.00    +0.000 C 
ENDBRANCH  22  24
ENDBRANCH  16  22
ENDBRANCH  15  19
BRANCH  15  25
ATOM     25  C   UNL     1       1.799   2.924  17.918  0.00  0.00    +0.000 C 
ATOM     26  C   UNL     1       0.717   2.293  18.784  0.00  0.00    +0.000 C 
ENDBRANCH  15  25
ENDBRANCH   1  15
TORSDOF 8
ENDMDL
MODEL 6
REMARK VINA RESULT:      -6.4      2.602      6.801
REMARK  Name = 
REMARK  11 active torsions:
REMARK  status: ('A' for Active; 'I' for Inactive)
REMARK    1  A    between atoms: C_1  and  C_2
REMARK    2  A    between atoms: C_2  and  O_3
REMARK    3  A    between atoms: O_3  and  C_4
REMARK    4  A    between atoms: C_7  and  N_8
REMARK    5  A    between atoms: N_8  and  C_9
REMARK    6  A    between atoms: N_8  and  S_11
REMARK    7  A    between atoms: C_9  and  C_10
REMARK    8  A    between atoms: S_11  and  C_14
REMARK    9  A    between atoms: C_15  and  C_16
REMARK   10  A    between atoms: C_18  and  O_19
REMARK   11  A    between atoms: C_21  and  O_22
REMARK                            x       y       z     vdW  Elec       q    Type
REMARK                         _______ _______ _______ _____ _____    ______ ____
ROOT
ATOM      1  S   UNL     1       5.054   5.387  18.527  0.00  0.00    +0.000 S 
ATOM      2  O   UNL     1       5.403   5.647  19.913  0.00  0.00    +0.000 OA
ATOM      3  O   UNL     1       4.533   6.459  17.699  0.00  0.00    +0.000 OA
ENDROOT
BRANCH   1   4
ATOM      4  C   UNL     1       3.747   4.204  18.580  0.00  0.00    +0.000 A 
ATOM      5  C   UNL     1       2.467   4.553  18.160  0.00  0.00    +0.000 A 
ATOM      6  C   UNL     1       2.008   5.936  17.802  0.00  0.00    +0.000 C 
ATOM      7  N   UNL     1       1.469   3.631  18.044  0.00  0.00    +0.000 NA
ATOM      8  C   UNL     1       1.769   2.387  18.398  0.00  0.00    +0.000 A 
ATOM      9  N   UNL     1       2.926   1.958  18.880  0.00  0.00    +0.000 NA
ATOM     10  C   UNL     1       3.893   2.894  18.950  0.00  0.00    +0.000 A 
BRANCH   8  11
ATOM     11  O   UNL     1       0.769   1.486  18.234  0.00  0.00    +0.000 OA
ATOM     12  H   UNL     1       1.082   1.052  17.423  0.00  0.00    +0.000 HD
ENDBRANCH   8  11
BRANCH  10  13
ATOM     13  O   UNL     1       5.012   2.356  19.476  0.00  0.00    +0.000 OA
ATOM     14  H   UNL     1       5.298   3.085  20.062  0.00  0.00    +0.000 HD
ENDBRANCH  10  13
ENDBRANCH   1   4
BRANCH   1  15
ATOM     15  N   UNL     1       6.446   4.726  17.779  0.00  0.00    +0.000 N 
BRANCH  15  19
ATOM     16  C   UNL     1       6.177   4.057  13.579  0.00  0.00    +0.000 A 
ATOM     17  C   UNL     1       5.316   3.395  14.457  0.00  0.00    +0.000 A 
ATOM     18  C   UNL     1       5.403   3.598  15.838  0.00  0.00    +0.000 A 
ATOM     19  C   UNL     1       6.356   4.473  16.363  0.00  0.00    +0.000 A 
ATOM     20  C   UNL     1       7.245   5.109  15.492  0.00  0.00    +0.000 A 
ATOM     21  C   UNL     1       7.159   4.902  14.104  0.00  0.00    +0.000 A 
BRANCH  16  22
ATOM     22  O   UNL     1       6.002   3.766  12.252  0.00  0.00    +0.000 OA
BRANCH  22  24
ATOM     23  C   UNL     1       5.788   1.600  11.260  0.00  0.00    +0.000 C 
ATOM     24  C   UNL     1       6.760   2.675  11.727  0.00  0.00    +0.000 C 
ENDBRANCH  22  24
ENDBRANCH  16  22
ENDBRANCH  15  19
BRANCH  15  25
ATOM     25  C   UNL     1       7.764   5.021  18.425  0.00  0.00    +0.000 C 
ATOM     26  C   UNL     1       8.055   6.485  18.729  0.00  0.00    +0.000 C 
ENDBRANCH  15  25
ENDBRANCH   1  15
TORSDOF 8
ENDMDL
MODEL 7
REMARK VINA RESULT:      -6.3      0.741      1.722
REMARK  Name = 
REMARK  11 active torsions:
REMARK  status: ('A' for Active; 'I' for Inactive)
REMARK    1  A    between atoms: C_1  and  C_2
REMARK    2  A    between atoms: C_2  and  O_3
REMARK    3  A    between atoms: O_3  and  C_4
REMARK    4  A    between atoms: C_7  and  N_8
REMARK    5  A    between atoms: N_8  and  C_9
REMARK    6  A    between atoms: N_8  and  S_11
REMARK    7  A    between atoms: C_9  and  C_10
REMARK    8  A    between atoms: S_11  and  C_14
REMARK    9  A    between atoms: C_15  and  C_16
REMARK   10  A    between atoms: C_18  and  O_19
REMARK   11  A    between atoms: C_21  and  O_22
REMARK                            x       y       z     vdW  Elec       q    Type
REMARK                         _______ _______ _______ _____ _____    ______ ____
ROOT
ATOM      1  S   UNL     1       4.931   4.608  18.986  0.00  0.00    +0.000 S 
ATOM      2  O   UNL     1       5.413   5.686  19.832  0.00  0.00    +0.000 OA
ATOM      3  O   UNL     1       5.152   3.228  19.377  0.00  0.00    +0.000 OA
ENDROOT
BRANCH   1   4
ATOM      4  C   UNL     1       5.803   4.773  17.462  0.00  0.00    +0.000 A 
ATOM      5  C   UNL     1       5.542   3.906  16.406  0.00  0.00    +0.000 A 
ATOM      6  C   UNL     1       4.678   2.680  16.471  0.00  0.00    +0.000 C 
ATOM      7  N   UNL     1       6.083   4.091  15.168  0.00  0.00    +0.000 NA
ATOM      8  C   UNL     1       6.912   5.120  15.034  0.00  0.00    +0.000 A 
ATOM      9  N   UNL     1       7.289   5.962  15.984  0.00  0.00    +0.000 NA
ATOM     10  C   UNL     1       6.709   5.761  17.183  0.00  0.00    +0.000 A 
BRANCH   8  11
ATOM     11  O   UNL     1       7.402   5.303  13.783  0.00  0.00    +0.000 OA
ATOM     12  H   UNL     1       6.952   6.134  13.559  0.00  0.00    +0.000 HD
ENDBRANCH   8  11
BRANCH  10  13
ATOM     13  O   UNL     1       7.184   6.654  18.076  0.00  0.00    +0.000 OA
ATOM     14  H   UNL     1       6.852   7.486  17.685  0.00  0.00    +0.000 HD
ENDBRANCH  10  13
ENDBRANCH   1   4
BRANCH   1  15
ATOM     15  N   UNL     1       3.253   4.865  18.760  0.00  0.00    +0.000 N 
BRANCH  15  19
ATOM     16  C   UNL     1       1.841   8.882  18.937  0.00  0.00    +0.000 A 
ATOM     17  C   UNL     1       2.495   8.411  17.796  0.00  0.00    +0.000 A 
ATOM     18  C   UNL     1       2.973   7.098  17.730  0.00  0.00    +0.000 A 
ATOM     19  C   UNL     1       2.799   6.232  18.811  0.00  0.00    +0.000 A 
ATOM     20  C   UNL     1       2.179   6.708  19.971  0.00  0.00    +0.000 A 
ATOM     21  C   UNL     1       1.703   8.029  20.036  0.00  0.00    +0.000 A 
BRANCH  16  22
ATOM     22  O   UNL     1       1.431  10.188  18.883  0.00  0.00    +0.000 OA
BRANCH  22  24
ATOM     23  C   UNL     1      -0.858  10.260  18.193  0.00  0.00    +0.000 C 
ATOM     24  C   UNL     1       0.110  10.467  19.350  0.00  0.00    +0.000 C 
ENDBRANCH  22  24
ENDBRANCH  16  22
ENDBRANCH  15  19
BRANCH  15  25
ATOM     25  C   UNL     1       2.516   3.840  17.955  0.00  0.00    +0.000 C 
ATOM     26  C   UNL     1       1.300   3.207  18.618  0.00  0.00    +0.000 C 
ENDBRANCH  15  25
ENDBRANCH   1  15
TORSDOF 8
ENDMDL
MODEL 8
REMARK VINA RESULT:      -6.3      1.500      2.317
REMARK  Name = 
REMARK  11 active torsions:
REMARK  status: ('A' for Active; 'I' for Inactive)
REMARK    1  A    between atoms: C_1  and  C_2
REMARK    2  A    between atoms: C_2  and  O_3
REMARK    3  A    between atoms: O_3  and  C_4
REMARK    4  A    between atoms: C_7  and  N_8
REMARK    5  A    between atoms: N_8  and  C_9
REMARK    6  A    between atoms: N_8  and  S_11
REMARK    7  A    between atoms: C_9  and  C_10
REMARK    8  A    between atoms: S_11  and  C_14
REMARK    9  A    between atoms: C_15  and  C_16
REMARK   10  A    between atoms: C_18  and  O_19
REMARK   11  A    between atoms: C_21  and  O_22
REMARK                            x       y       z     vdW  Elec       q    Type
REMARK                         _______ _______ _______ _____ _____    ______ ____
ROOT
ATOM      1  S   UNL     1       4.348   3.482  18.591  0.00  0.00    +0.000 S 
ATOM      2  O   UNL     1       5.040   2.568  19.483  0.00  0.00    +0.000 OA
ATOM      3  O   UNL     1       3.771   2.989  17.354  0.00  0.00    +0.000 OA
ENDROOT
BRANCH   1   4
ATOM      4  C   UNL     1       5.563   4.649  18.069  0.00  0.00    +0.000 A 
ATOM      5  C   UNL     1       5.688   4.977  16.723  0.00  0.00    +0.000 A 
ATOM      6  C   UNL     1       4.984   4.298  15.585  0.00  0.00    +0.000 C 
ATOM      7  N   UNL     1       6.510   5.979  16.297  0.00  0.00    +0.000 NA
ATOM      8  C   UNL     1       7.221   6.598  17.232  0.00  0.00    +0.000 A 
ATOM      9  N   UNL     1       7.237   6.321  18.527  0.00  0.00    +0.000 NA
ATOM     10  C   UNL     1       6.390   5.345  18.909  0.00  0.00    +0.000 A 
BRANCH   8  11
ATOM     11  O   UNL     1       7.997   7.616  16.784  0.00  0.00    +0.000 OA
ATOM     12  H   UNL     1       7.726   7.619  15.851  0.00  0.00    +0.000 HD
ENDBRANCH   8  11
BRANCH  10  13
ATOM     13  O   UNL     1       6.509   5.129  20.235  0.00  0.00    +0.000 OA
ATOM     14  H   UNL     1       5.669   4.663  20.413  0.00  0.00    +0.000 HD
ENDBRANCH  10  13
ENDBRANCH   1   4
BRANCH   1  15
ATOM     15  N   UNL     1       3.124   4.247  19.514  0.00  0.00    +0.000 N 
BRANCH  15  19
ATOM     16  C   UNL     1       2.102   8.255  18.488  0.00  0.00    +0.000 A 
ATOM     17  C   UNL     1       2.463   7.341  17.496  0.00  0.00    +0.000 A 
ATOM     18  C   UNL     1       2.812   6.026  17.821  0.00  0.00    +0.000 A 
ATOM     19  C   UNL     1       2.801   5.604  19.152  0.00  0.00    +0.000 A 
ATOM     20  C   UNL     1       2.478   6.525  20.154  0.00  0.00    +0.000 A 
ATOM     21  C   UNL     1       2.132   7.847  19.825  0.00  0.00    +0.000 A 
BRANCH  16  22
ATOM     22  O   UNL     1       1.795   9.514  18.045  0.00  0.00    +0.000 OA
BRANCH  22  24
ATOM     23  C   UNL     1      -0.520  10.101  18.189  0.00  0.00    +0.000 C 
ATOM     24  C   UNL     1       0.856  10.259  18.822  0.00  0.00    +0.000 C 
ENDBRANCH  22  24
ENDBRANCH  16  22
ENDBRANCH  15  19
BRANCH  15  25
ATOM     25  C   UNL     1       2.103   3.357  20.150  0.00  0.00    +0.000 C 
ATOM     26  C   UNL     1       2.238   3.140  21.652  0.00  0.00    +0.000 C 
ENDBRANCH  15  25
ENDBRANCH   1  15
TORSDOF 8
ENDMDL
MODEL 9
REMARK VINA RESULT:      -6.3      2.122      3.079
REMARK  Name = 
REMARK  11 active torsions:
REMARK  status: ('A' for Active; 'I' for Inactive)
REMARK    1  A    between atoms: C_1  and  C_2
REMARK    2  A    between atoms: C_2  and  O_3
REMARK    3  A    between atoms: O_3  and  C_4
REMARK    4  A    between atoms: C_7  and  N_8
REMARK    5  A    between atoms: N_8  and  C_9
REMARK    6  A    between atoms: N_8  and  S_11
REMARK    7  A    between atoms: C_9  and  C_10
REMARK    8  A    between atoms: S_11  and  C_14
REMARK    9  A    between atoms: C_15  and  C_16
REMARK   10  A    between atoms: C_18  and  O_19
REMARK   11  A    between atoms: C_21  and  O_22
REMARK                            x       y       z     vdW  Elec       q    Type
REMARK                         _______ _______ _______ _____ _____    ______ ____
ROOT
ATOM      1  S   UNL     1       4.285   5.658  16.978  0.00  0.00    +0.000 S 
ATOM      2  O   UNL     1       4.400   4.418  16.229  0.00  0.00    +0.000 OA
ATOM      3  O   UNL     1       4.362   6.931  16.287  0.00  0.00    +0.000 OA
ENDROOT
BRANCH   1   4
ATOM      4  C   UNL     1       5.661   5.677  18.080  0.00  0.00    +0.000 A 
ATOM      5  C   UNL     1       5.699   4.815  19.172  0.00  0.00    +0.000 A 
ATOM      6  C   UNL     1       4.572   3.940  19.638  0.00  0.00    +0.000 C 
ATOM      7  N   UNL     1       6.806   4.694  19.959  0.00  0.00    +0.000 NA
ATOM      8  C   UNL     1       7.835   5.477  19.657  0.00  0.00    +0.000 A 
ATOM      9  N   UNL     1       7.883   6.383  18.691  0.00  0.00    +0.000 NA
ATOM     10  C   UNL     1       6.780   6.449  17.920  0.00  0.00    +0.000 A 
BRANCH   8  11
ATOM     11  O   UNL     1       8.935   5.305  20.431  0.00  0.00    +0.000 OA
ATOM     12  H   UNL     1       8.948   6.168  20.877  0.00  0.00    +0.000 HD
ENDBRANCH   8  11
BRANCH  10  13
ATOM     13  O   UNL     1       6.929   7.417  16.993  0.00  0.00    +0.000 OA
ATOM     14  H   UNL     1       6.607   6.949  16.197  0.00  0.00    +0.000 HD
ENDBRANCH  10  13
ENDBRANCH   1   4
BRANCH   1  15
ATOM     15  N   UNL     1       2.809   5.580  17.846  0.00  0.00    +0.000 N 
BRANCH  15  19
ATOM     16  C   UNL     1       1.408   9.166  19.672  0.00  0.00    +0.000 A 
ATOM     17  C   UNL     1       1.598   9.104  18.290  0.00  0.00    +0.000 A 
ATOM     18  C   UNL     1       2.069   7.936  17.681  0.00  0.00    +0.000 A 
ATOM     19  C   UNL     1       2.354   6.807  18.450  0.00  0.00    +0.000 A 
ATOM     20  C   UNL     1       2.202   6.875  19.838  0.00  0.00    +0.000 A 
ATOM     21  C   UNL     1       1.733   8.051  20.449  0.00  0.00    +0.000 A 
BRANCH  16  22
ATOM     22  O   UNL     1       0.956  10.367  20.150  0.00  0.00    +0.000 OA
BRANCH  22  24
ATOM     23  C   UNL     1      -1.076  11.546  20.605  0.00  0.00    +0.000 C 
ATOM     24  C   UNL     1      -0.209  10.910  19.527  0.00  0.00    +0.000 C 
ENDBRANCH  22  24
ENDBRANCH  16  22
ENDBRANCH  15  19
BRANCH  15  25
ATOM     25  C   UNL     1       1.837   4.520  17.430  0.00  0.00    +0.000 C 
ATOM     26  C   UNL     1       1.279   3.642  18.542  0.00  0.00    +0.000 C 
ENDBRANCH  15  25
ENDBRANCH   1  15
TORSDOF 8
ENDMDL
