MODEL 1
REMARK VINA RESULT:      -8.6      0.000      0.000
REMARK  Name = 
REMARK  7 active torsions:
REMARK  status: ('A' for Active; 'I' for Inactive)
REMARK    1  A    between atoms: C_1  and  C_2
REMARK    2  A    between atoms: C_4  and  C_5
REMARK    3  A    between atoms: C_10  and  N_11
REMARK    4  A    between atoms: N_11  and  C_12
REMARK    5  A    between atoms: N_11  and  C_13
REMARK    6  A    between atoms: C_13  and  C_14
REMARK    7  A    between atoms: C_14  and  C_15
REMARK                            x       y       z     vdW  Elec       q    Type
REMARK                         _______ _______ _______ _____ _____    ______ ____
ROOT
ATOM      1  C   UNL     1       2.243   8.433  18.206  0.00  0.00    +0.000 C 
ATOM      2  O   UNL     1       2.365   8.996  17.127  0.00  0.00    +0.000 OA
ATOM      3  N   UNL     1       1.589   9.089  19.235  0.00  0.00    +0.000 N 
ATOM      4  C   UNL     1       1.610   8.633  20.612  0.00  0.00    +0.000 C 
ATOM      5  C   UNL     1       0.178   8.269  21.019  0.00  0.00    +0.000 C 
ATOM      6  C   UNL     1      -0.679   9.539  21.015  0.00  0.00    +0.000 C 
ATOM      7  C   UNL     1      -0.633  10.057  19.524  0.00  0.00    +0.000 C 
ATOM      8  C   UNL     1       0.816  10.314  19.035  0.00  0.00    +0.000 C 
ENDROOT
BRANCH   1  12
ATOM      9  C   UNL     1       6.206   5.344  18.805  0.00  0.00    +0.000 C 
ATOM     10  C   UNL     1       4.724   5.520  18.613  0.00  0.00    +0.000 A 
ATOM     11  C   UNL     1       4.189   6.825  18.505  0.00  0.00    +0.000 A 
ATOM     12  C   UNL     1       2.809   7.032  18.320  0.00  0.00    +0.000 A 
ATOM     13  C   UNL     1       1.995   5.894  18.183  0.00  0.00    +0.000 A 
ATOM     14  C   UNL     1       2.490   4.606  18.298  0.00  0.00    +0.000 A 
ATOM     15  C   UNL     1       3.863   4.397  18.525  0.00  0.00    +0.000 A 
ATOM     16  N   UNL     1       4.336   3.055  18.700  0.00  0.00    +0.000 N 
ATOM     17  C   UNL     1       3.532   1.990  18.434  0.00  0.00    +0.000 C 
ATOM     18  O   UNL     1       3.884   0.860  18.734  0.00  0.00    +0.000 OA
ATOM     19  C   UNL     1       2.231   2.206  17.711  0.00  0.00    +0.000 C 
ATOM     20  C   UNL     1       1.527   3.441  18.247  0.00  0.00    +0.000 C 
ATOM     21  H   UNL     1       5.270   2.884  19.099  0.00  0.00    +0.000 HD
ENDBRANCH   1  12
BRANCH   6  22
ATOM     22  N   UNL     1      -0.185  10.543  22.023  0.00  0.00    +0.000 NA
ATOM     23  C   UNL     1       0.115  11.824  21.332  0.00  0.00    +0.000 C 
BRANCH  22  24
ATOM     24  C   UNL     1      -1.139  10.892  23.131  0.00  0.00    +0.000 C 
BRANCH  24  25
ATOM     25  C   UNL     1      -1.675  12.352  23.290  0.00  0.00    +0.000 C 
BRANCH  25  26
ATOM     26  C   UNL     1      -3.177  12.535  23.196  0.00  0.00    +0.000 A 
ATOM     27  C   UNL     1      -3.985  12.529  24.344  0.00  0.00    +0.000 A 
ATOM     28  C   UNL     1      -5.374  12.673  24.229  0.00  0.00    +0.000 A 
ATOM     29  C   UNL     1      -5.964  12.851  22.973  0.00  0.00    +0.000 A 
ATOM     30  C   UNL     1      -5.169  12.878  21.828  0.00  0.00    +0.000 A 
ATOM     31  C   UNL     1      -3.781  12.726  21.929  0.00  0.00    +0.000 A 
ENDBRANCH  25  26
ENDBRANCH  24  25
ENDBRANCH  22  24
ENDBRANCH   6  22
TORSDOF 5
ENDMDL
MODEL 2
REMARK VINA RESULT:      -8.6      1.058      1.074
REMARK  Name = 
REMARK  7 active torsions:
REMARK  status: ('A' for Active; 'I' for Inactive)
REMARK    1  A    between atoms: C_1  and  C_2
REMARK    2  A    between atoms: C_4  and  C_5
REMARK    3  A    between atoms: C_10  and  N_11
REMARK    4  A    between atoms: N_11  and  C_12
REMARK    5  A    between atoms: N_11  and  C_13
REMARK    6  A    between atoms: C_13  and  C_14
REMARK    7  A    between atoms: C_14  and  C_15
REMARK                            x       y       z     vdW  Elec       q    Type
REMARK                         _______ _______ _______ _____ _____    ______ ____
ROOT
ATOM      1  C   UNL     1       2.215   8.485  18.205  0.00  0.00    +0.000 C 
ATOM      2  O   UNL     1       2.243   8.935  17.068  0.00  0.00    +0.000 OA
ATOM      3  N   UNL     1       1.530   9.182  19.187  0.00  0.00    +0.000 N 
ATOM      4  C   UNL     1       1.643   8.884  20.602  0.00  0.00    +0.000 C 
ATOM      5  C   UNL     1       0.269   8.426  21.106  0.00  0.00    +0.000 C 
ATOM      6  C   UNL     1      -0.714   9.597  21.005  0.00  0.00    +0.000 C 
ATOM      7  C   UNL     1      -0.769   9.950  19.467  0.00  0.00    +0.000 C 
ATOM      8  C   UNL     1       0.628  10.295  18.891  0.00  0.00    +0.000 C 
ENDROOT
BRANCH   1  12
ATOM      9  C   UNL     1       5.910   5.229  17.042  0.00  0.00    +0.000 C 
ATOM     10  C   UNL     1       4.718   5.579  17.891  0.00  0.00    +0.000 A 
ATOM     11  C   UNL     1       4.048   6.806  17.674  0.00  0.00    +0.000 A 
ATOM     12  C   UNL     1       2.926   7.168  18.442  0.00  0.00    +0.000 A 
ATOM     13  C   UNL     1       2.459   6.237  19.387  0.00  0.00    +0.000 A 
ATOM     14  C   UNL     1       3.103   5.035  19.629  0.00  0.00    +0.000 A 
ATOM     15  C   UNL     1       4.250   4.690  18.891  0.00  0.00    +0.000 A 
ATOM     16  N   UNL     1       4.929   3.467  19.205  0.00  0.00    +0.000 N 
ATOM     17  C   UNL     1       4.367   2.548  20.038  0.00  0.00    +0.000 C 
ATOM     18  O   UNL     1       5.014   1.589  20.425  0.00  0.00    +0.000 OA
ATOM     19  C   UNL     1       2.922   2.690  20.428  0.00  0.00    +0.000 C 
ATOM     20  C   UNL     1       2.598   4.141  20.740  0.00  0.00    +0.000 C 
ATOM     21  H   UNL     1       5.885   3.303  18.860  0.00  0.00    +0.000 HD
ENDBRANCH   1  12
BRANCH   6  22
ATOM     22  N   UNL     1      -0.294  10.750  21.879  0.00  0.00    +0.000 NA
ATOM     23  C   UNL     1      -0.319  12.003  21.081  0.00  0.00    +0.000 C 
BRANCH  22  24
ATOM     24  C   UNL     1      -1.156  11.015  23.082  0.00  0.00    +0.000 C 
BRANCH  24  25
ATOM     25  C   UNL     1      -1.737  12.443  23.345  0.00  0.00    +0.000 C 
BRANCH  25  26
ATOM     26  C   UNL     1      -3.243  12.587  23.248  0.00  0.00    +0.000 A 
ATOM     27  C   UNL     1      -4.051  12.576  24.396  0.00  0.00    +0.000 A 
ATOM     28  C   UNL     1      -5.444  12.685  24.279  0.00  0.00    +0.000 A 
ATOM     29  C   UNL     1      -6.037  12.831  23.021  0.00  0.00    +0.000 A 
ATOM     30  C   UNL     1      -5.243  12.862  21.875  0.00  0.00    +0.000 A 
ATOM     31  C   UNL     1      -3.852  12.745  21.978  0.00  0.00    +0.000 A 
ENDBRANCH  25  26
ENDBRANCH  24  25
ENDBRANCH  22  24
ENDBRANCH   6  22
TORSDOF 5
ENDMDL
MODEL 3
REMARK VINA RESULT:      -8.6      2.464      3.416
REMARK  Name = 
REMARK  7 active torsions:
REMARK  status: ('A' for Active; 'I' for Inactive)
REMARK    1  A    between atoms: C_1  and  C_2
REMARK    2  A    between atoms: C_4  and  C_5
REMARK    3  A    between atoms: C_10  and  N_11
REMARK    4  A    between atoms: N_11  and  C_12
REMARK    5  A    between atoms: N_11  and  C_13
REMARK    6  A    between atoms: C_13  and  C_14
REMARK    7  A    between atoms: C_14  and  C_15
REMARK                            x       y       z     vdW  Elec       q    Type
REMARK                         _______ _______ _______ _____ _____    ______ ____
ROOT
ATOM      1  C   UNL     1       1.126   8.810  21.369  0.00  0.00    +0.000 C 
ATOM      2  O   UNL     1       1.697   9.034  22.428  0.00  0.00    +0.000 OA
ATOM      3  N   UNL     1       0.119   9.667  20.955  0.00  0.00    +0.000 N 
ATOM      4  C   UNL     1      -0.788   9.363  19.865  0.00  0.00    +0.000 C 
ATOM      5  C   UNL     1      -0.563  10.394  18.753  0.00  0.00    +0.000 C 
ATOM      6  C   UNL     1      -0.978  11.777  19.265  0.00  0.00    +0.000 C 
ATOM      7  C   UNL     1      -0.026  12.059  20.493  0.00  0.00    +0.000 C 
ATOM      8  C   UNL     1      -0.132  10.963  21.585  0.00  0.00    +0.000 C 
ENDROOT
BRANCH   1  12
ATOM      9  C   UNL     1       3.630   6.863  17.426  0.00  0.00    +0.000 C 
ATOM     10  C   UNL     1       2.808   6.647  18.667  0.00  0.00    +0.000 A 
ATOM     11  C   UNL     1       2.368   7.766  19.412  0.00  0.00    +0.000 A 
ATOM     12  C   UNL     1       1.592   7.607  20.575  0.00  0.00    +0.000 A 
ATOM     13  C   UNL     1       1.219   6.299  20.931  0.00  0.00    +0.000 A 
ATOM     14  C   UNL     1       1.646   5.185  20.229  0.00  0.00    +0.000 A 
ATOM     15  C   UNL     1       2.456   5.340  19.089  0.00  0.00    +0.000 A 
ATOM     16  N   UNL     1       2.932   4.166  18.417  0.00  0.00    +0.000 N 
ATOM     17  C   UNL     1       2.440   2.935  18.727  0.00  0.00    +0.000 C 
ATOM     18  O   UNL     1       2.959   1.930  18.268  0.00  0.00    +0.000 OA
ATOM     19  C   UNL     1       1.214   2.823  19.590  0.00  0.00    +0.000 C 
ATOM     20  C   UNL     1       1.288   3.809  20.744  0.00  0.00    +0.000 C 
ATOM     21  H   UNL     1       3.705   4.235  17.742  0.00  0.00    +0.000 HD
ENDBRANCH   1  12
BRANCH   6  22
ATOM     22  N   UNL     1      -2.444  11.824  19.609  0.00  0.00    +0.000 NA
ATOM     23  C   UNL     1      -2.762  13.143  20.215  0.00  0.00    +0.000 C 
BRANCH  22  24
ATOM     24  C   UNL     1      -3.398  11.663  18.459  0.00  0.00    +0.000 C 
BRANCH  24  25
ATOM     25  C   UNL     1      -4.819  12.313  18.508  0.00  0.00    +0.000 C 
BRANCH  25  26
ATOM     26  C   UNL     1      -5.880  11.560  19.286  0.00  0.00    +0.000 A 
ATOM     27  C   UNL     1      -6.510  12.133  20.402  0.00  0.00    +0.000 A 
ATOM     28  C   UNL     1      -7.469  11.405  21.121  0.00  0.00    +0.000 A 
ATOM     29  C   UNL     1      -7.825  10.116  20.716  0.00  0.00    +0.000 A 
ATOM     30  C   UNL     1      -7.221   9.544  19.598  0.00  0.00    +0.000 A 
ATOM     31  C   UNL     1      -6.254  10.256  18.877  0.00  0.00    +0.000 A 
ENDBRANCH  25  26
ENDBRANCH  24  25
ENDBRANCH  22  24
ENDBRANCH   6  22
TORSDOF 5
ENDMDL
MODEL 4
REMARK VINA RESULT:      -8.5      2.647      3.562
REMARK  Name = 
REMARK  7 active torsions:
REMARK  status: ('A' for Active; 'I' for Inactive)
REMARK    1  A    between atoms: C_1  and  C_2
REMARK    2  A    between atoms: C_4  and  C_5
REMARK    3  A    between atoms: C_10  and  N_11
REMARK    4  A    between atoms: N_11  and  C_12
REMARK    5  A    between atoms: N_11  and  C_13
REMARK    6  A    between atoms: C_13  and  C_14
REMARK    7  A    between atoms: C_14  and  C_15
REMARK                            x       y       z     vdW  Elec       q    Type
REMARK                         _______ _______ _______ _____ _____    ______ ____
ROOT
ATOM      1  C   UNL     1       1.255   8.586  21.307  0.00  0.00    +0.000 C 
ATOM      2  O   UNL     1       1.733   8.750  22.421  0.00  0.00    +0.000 OA
ATOM      3  N   UNL     1       0.351   9.516  20.822  0.00  0.00    +0.000 N 
ATOM      4  C   UNL     1      -0.464   9.296  19.641  0.00  0.00    +0.000 C 
ATOM      5  C   UNL     1      -0.065  10.332  18.584  0.00  0.00    +0.000 C 
ATOM      6  C   UNL     1      -0.437  11.729  19.090  0.00  0.00    +0.000 C 
ATOM      7  C   UNL     1       0.407  11.921  20.411  0.00  0.00    +0.000 C 
ATOM      8  C   UNL     1       0.123  10.813  21.458  0.00  0.00    +0.000 C 
ENDROOT
BRANCH   1  12
ATOM      9  C   UNL     1       3.902   6.566  17.497  0.00  0.00    +0.000 C 
ATOM     10  C   UNL     1       3.001   6.375  18.686  0.00  0.00    +0.000 A 
ATOM     11  C   UNL     1       2.565   7.505  19.415  0.00  0.00    +0.000 A 
ATOM     12  C   UNL     1       1.717   7.370  20.531  0.00  0.00    +0.000 A 
ATOM     13  C   UNL     1       1.271   6.076  20.852  0.00  0.00    +0.000 A 
ATOM     14  C   UNL     1       1.692   4.950  20.164  0.00  0.00    +0.000 A 
ATOM     15  C   UNL     1       2.573   5.080  19.075  0.00  0.00    +0.000 A 
ATOM     16  N   UNL     1       3.039   3.892  18.421  0.00  0.00    +0.000 N 
ATOM     17  C   UNL     1       2.481   2.680  18.690  0.00  0.00    +0.000 C 
ATOM     18  O   UNL     1       2.984   1.658  18.252  0.00  0.00    +0.000 OA
ATOM     19  C   UNL     1       1.203   2.613  19.479  0.00  0.00    +0.000 C 
ATOM     20  C   UNL     1       1.250   3.586  20.645  0.00  0.00    +0.000 C 
ATOM     21  H   UNL     1       3.852   3.935  17.791  0.00  0.00    +0.000 HD
ENDBRANCH   1  12
BRANCH   6  22
ATOM     22  N   UNL     1      -1.923  11.868  19.293  0.00  0.00    +0.000 NA
ATOM     23  C   UNL     1      -2.213  13.190  19.905  0.00  0.00    +0.000 C 
BRANCH  22  24
ATOM     24  C   UNL     1      -2.768  11.799  18.052  0.00  0.00    +0.000 C 
BRANCH  24  25
ATOM     25  C   UNL     1      -4.089  10.961  18.034  0.00  0.00    +0.000 C 
BRANCH  25  26
ATOM     26  C   UNL     1      -5.382  11.735  18.201  0.00  0.00    +0.000 A 
ATOM     27  C   UNL     1      -6.098  11.706  19.408  0.00  0.00    +0.000 A 
ATOM     28  C   UNL     1      -7.306  12.408  19.528  0.00  0.00    +0.000 A 
ATOM     29  C   UNL     1      -7.792  13.164  18.457  0.00  0.00    +0.000 A 
ATOM     30  C   UNL     1      -7.079  13.215  17.259  0.00  0.00    +0.000 A 
ATOM     31  C   UNL     1      -5.877  12.510  17.123  0.00  0.00    +0.000 A 
ENDBRANCH  25  26
ENDBRANCH  24  25
ENDBRANCH  22  24
ENDBRANCH   6  22
TORSDOF 5
ENDMDL
MODEL 5
REMARK VINA RESULT:      -8.3      3.755     10.844
REMARK  Name = 
REMARK  7 active torsions:
REMARK  status: ('A' for Active; 'I' for Inactive)
REMARK    1  A    between atoms: C_1  and  C_2
REMARK    2  A    between atoms: C_4  and  C_5
REMARK    3  A    between atoms: C_10  and  N_11
REMARK    4  A    between atoms: N_11  and  C_12
REMARK    5  A    between atoms: N_11  and  C_13
REMARK    6  A    between atoms: C_13  and  C_14
REMARK    7  A    between atoms: C_14  and  C_15
REMARK                            x       y       z     vdW  Elec       q    Type
REMARK                         _______ _______ _______ _____ _____    ______ ____
ROOT
ATOM      1  C   UNL     1       1.103   8.599  20.599  0.00  0.00    +0.000 C 
ATOM      2  O   UNL     1       0.697   8.293  21.711  0.00  0.00    +0.000 OA
ATOM      3  N   UNL     1       1.953   7.731  19.933  0.00  0.00    +0.000 N 
ATOM      4  C   UNL     1       2.692   8.098  18.740  0.00  0.00    +0.000 C 
ATOM      5  C   UNL     1       2.202   7.218  17.584  0.00  0.00    +0.000 C 
ATOM      6  C   UNL     1       2.578   5.761  17.873  0.00  0.00    +0.000 C 
ATOM      7  C   UNL     1       1.820   5.404  19.211  0.00  0.00    +0.000 C 
ATOM      8  C   UNL     1       2.195   6.358  20.374  0.00  0.00    +0.000 C 
ENDROOT
BRANCH   1  12
ATOM      9  C   UNL     1      -1.972  11.154  17.497  0.00  0.00    +0.000 C 
ATOM     10  C   UNL     1      -0.873  11.168  18.525  0.00  0.00    +0.000 A 
ATOM     11  C   UNL     1      -0.413   9.944  19.065  0.00  0.00    +0.000 A 
ATOM     12  C   UNL     1       0.616   9.913  20.024  0.00  0.00    +0.000 A 
ATOM     13  C   UNL     1       1.211  11.138  20.376  0.00  0.00    +0.000 A 
ATOM     14  C   UNL     1       0.771  12.351  19.874  0.00  0.00    +0.000 A 
ATOM     15  C   UNL     1      -0.285  12.387  18.946  0.00  0.00    +0.000 A 
ATOM     16  N   UNL     1      -0.758  13.662  18.490  0.00  0.00    +0.000 N 
ATOM     17  C   UNL     1      -0.069  14.803  18.765  0.00  0.00    +0.000 C 
ATOM     18  O   UNL     1      -0.555  15.894  18.513  0.00  0.00    +0.000 OA
ATOM     19  C   UNL     1       1.324  14.710  19.324  0.00  0.00    +0.000 C 
ATOM     20  C   UNL     1       1.395  13.629  20.390  0.00  0.00    +0.000 C 
ATOM     21  H   UNL     1      -1.666  13.734  18.010  0.00  0.00    +0.000 HD
ENDBRANCH   1  12
BRANCH   6  22
ATOM     22  N   UNL     1       4.071   5.579  17.953  0.00  0.00    +0.000 NA
ATOM     23  C   UNL     1       4.372   4.287  18.624  0.00  0.00    +0.000 C 
BRANCH  22  24
ATOM     24  C   UNL     1       4.803   5.537  16.641  0.00  0.00    +0.000 C 
BRANCH  24  25
ATOM     25  C   UNL     1       5.124   4.171  15.952  0.00  0.00    +0.000 C 
BRANCH  25  26
ATOM     26  C   UNL     1       5.866   4.237  14.632  0.00  0.00    +0.000 A 
ATOM     27  C   UNL     1       7.050   4.979  14.498  0.00  0.00    +0.000 A 
ATOM     28  C   UNL     1       7.704   5.047  13.260  0.00  0.00    +0.000 A 
ATOM     29  C   UNL     1       7.196   4.356  12.156  0.00  0.00    +0.000 A 
ATOM     30  C   UNL     1       6.031   3.601  12.281  0.00  0.00    +0.000 A 
ATOM     31  C   UNL     1       5.363   3.533  13.510  0.00  0.00    +0.000 A 
ENDBRANCH  25  26
ENDBRANCH  24  25
ENDBRANCH  22  24
ENDBRANCH   6  22
TORSDOF 5
ENDMDL
MODEL 6
REMARK VINA RESULT:      -8.3      2.549      3.590
REMARK  Name = 
REMARK  7 active torsions:
REMARK  status: ('A' for Active; 'I' for Inactive)
REMARK    1  A    between atoms: C_1  and  C_2
REMARK    2  A    between atoms: C_4  and  C_5
REMARK    3  A    between atoms: C_10  and  N_11
REMARK    4  A    between atoms: N_11  and  C_12
REMARK    5  A    between atoms: N_11  and  C_13
REMARK    6  A    between atoms: C_13  and  C_14
REMARK    7  A    between atoms: C_14  and  C_15
REMARK                            x       y       z     vdW  Elec       q    Type
REMARK                         _______ _______ _______ _____ _____    ______ ____
ROOT
ATOM      1  C   UNL     1       1.321   8.539  21.303  0.00  0.00    +0.000 C 
ATOM      2  O   UNL     1       1.602   8.545  22.494  0.00  0.00    +0.000 OA
ATOM      3  N   UNL     1       0.657   9.629  20.765  0.00  0.00    +0.000 N 
ATOM      4  C   UNL     1       0.053   9.623  19.446  0.00  0.00    +0.000 C 
ATOM      5  C   UNL     1       0.778  10.663  18.583  0.00  0.00    +0.000 C 
ATOM      6  C   UNL     1       0.510  12.058  19.156  0.00  0.00    +0.000 C 
ATOM      7  C   UNL     1       1.112  12.021  20.615  0.00  0.00    +0.000 C 
ATOM      8  C   UNL     1       0.493  10.894  21.480  0.00  0.00    +0.000 C 
ENDROOT
BRANCH   1  12
ATOM      9  C   UNL     1       3.892   6.537  17.431  0.00  0.00    +0.000 C 
ATOM     10  C   UNL     1       2.997   6.342  18.626  0.00  0.00    +0.000 A 
ATOM     11  C   UNL     1       2.592   7.467  19.380  0.00  0.00    +0.000 A 
ATOM     12  C   UNL     1       1.751   7.328  20.500  0.00  0.00    +0.000 A 
ATOM     13  C   UNL     1       1.280   6.038  20.801  0.00  0.00    +0.000 A 
ATOM     14  C   UNL     1       1.672   4.917  20.088  0.00  0.00    +0.000 A 
ATOM     15  C   UNL     1       2.546   5.049  18.993  0.00  0.00    +0.000 A 
ATOM     16  N   UNL     1       2.981   3.865  18.313  0.00  0.00    +0.000 N 
ATOM     17  C   UNL     1       2.400   2.660  18.564  0.00  0.00    +0.000 C 
ATOM     18  O   UNL     1       2.878   1.636  18.103  0.00  0.00    +0.000 OA
ATOM     19  C   UNL     1       1.128   2.604  19.364  0.00  0.00    +0.000 C 
ATOM     20  C   UNL     1       1.205   3.554  20.548  0.00  0.00    +0.000 C 
ATOM     21  H   UNL     1       3.790   3.902  17.677  0.00  0.00    +0.000 HD
ENDBRANCH   1  12
BRANCH   6  22
ATOM     22  N   UNL     1      -0.955  12.404  19.112  0.00  0.00    +0.000 NA
ATOM     23  C   UNL     1      -1.127  13.850  19.409  0.00  0.00    +0.000 C 
BRANCH  22  24
ATOM     24  C   UNL     1      -1.650  12.172  17.799  0.00  0.00    +0.000 C 
BRANCH  24  25
ATOM     25  C   UNL     1      -2.864  11.192  17.703  0.00  0.00    +0.000 C 
BRANCH  25  26
ATOM     26  C   UNL     1      -4.226  11.769  18.036  0.00  0.00    +0.000 A 
ATOM     27  C   UNL     1      -5.227  11.883  17.059  0.00  0.00    +0.000 A 
ATOM     28  C   UNL     1      -6.470  12.444  17.386  0.00  0.00    +0.000 A 
ATOM     29  C   UNL     1      -6.730  12.870  18.692  0.00  0.00    +0.000 A 
ATOM     30  C   UNL     1      -5.750  12.744  19.675  0.00  0.00    +0.000 A 
ATOM     31  C   UNL     1      -4.502  12.194  19.359  0.00  0.00    +0.000 A 
ENDBRANCH  25  26
ENDBRANCH  24  25
ENDBRANCH  22  24
ENDBRANCH   6  22
TORSDOF 5
ENDMDL
MODEL 7
REMARK VINA RESULT:      -8.2      3.781      9.950
REMARK  Name = 
REMARK  7 active torsions:
REMARK  status: ('A' for Active; 'I' for Inactive)
REMARK    1  A    between atoms: C_1  and  C_2
REMARK    2  A    between atoms: C_4  and  C_5
REMARK    3  A    between atoms: C_10  and  N_11
REMARK    4  A    between atoms: N_11  and  C_12
REMARK    5  A    between atoms: N_11  and  C_13
REMARK    6  A    between atoms: C_13  and  C_14
REMARK    7  A    between atoms: C_14  and  C_15
REMARK                            x       y       z     vdW  Elec       q    Type
REMARK                         _______ _______ _______ _____ _____    ______ ____
ROOT
ATOM      1  C   UNL     1       1.285   8.130  20.836  0.00  0.00    +0.000 C 
ATOM      2  O   UNL     1       1.011   7.971  22.019  0.00  0.00    +0.000 OA
ATOM      3  N   UNL     1       1.974   7.132  20.168  0.00  0.00    +0.000 N 
ATOM      4  C   UNL     1       2.569   7.314  18.857  0.00  0.00    +0.000 C 
ATOM      5  C   UNL     1       1.867   6.368  17.876  0.00  0.00    +0.000 C 
ATOM      6  C   UNL     1       2.174   4.921  18.274  0.00  0.00    +0.000 C 
ATOM      7  C   UNL     1       1.579   4.764  19.728  0.00  0.00    +0.000 C 
ATOM      8  C   UNL     1       2.175   5.793  20.722  0.00  0.00    +0.000 C 
ENDROOT
BRANCH   1  12
ATOM      9  C   UNL     1      -1.648  10.539  17.491  0.00  0.00    +0.000 C 
ATOM     10  C   UNL     1      -0.602  10.601  18.570  0.00  0.00    +0.000 A 
ATOM     11  C   UNL     1      -0.162   9.403  19.179  0.00  0.00    +0.000 A 
ATOM     12  C   UNL     1       0.820   9.417  20.188  0.00  0.00    +0.000 A 
ATOM     13  C   UNL     1       1.389  10.659  20.520  0.00  0.00    +0.000 A 
ATOM     14  C   UNL     1       0.968  11.848  19.950  0.00  0.00    +0.000 A 
ATOM     15  C   UNL     1      -0.042  11.840  18.971  0.00  0.00    +0.000 A 
ATOM     16  N   UNL     1      -0.499  13.092  18.443  0.00  0.00    +0.000 N 
ATOM     17  C   UNL     1       0.170  14.249  18.706  0.00  0.00    +0.000 C 
ATOM     18  O   UNL     1      -0.310  15.325  18.387  0.00  0.00    +0.000 OA
ATOM     19  C   UNL     1       1.534  14.188  19.335  0.00  0.00    +0.000 C 
ATOM     20  C   UNL     1       1.558  13.150  20.445  0.00  0.00    +0.000 C 
ATOM     21  H   UNL     1      -1.382  13.140  17.916  0.00  0.00    +0.000 HD
ENDBRANCH   1  12
BRANCH   6  22
ATOM     22  N   UNL     1       3.647   4.622  18.184  0.00  0.00    +0.000 NA
ATOM     23  C   UNL     1       3.928   3.331  18.863  0.00  0.00    +0.000 C 
BRANCH  22  24
ATOM     24  C   UNL     1       4.210   4.483  16.797  0.00  0.00    +0.000 C 
BRANCH  24  25
ATOM     25  C   UNL     1       5.753   4.367  16.572  0.00  0.00    +0.000 C 
BRANCH  25  26
ATOM     26  C   UNL     1       6.619   5.382  17.294  0.00  0.00    +0.000 A 
ATOM     27  C   UNL     1       7.292   5.052  18.481  0.00  0.00    +0.000 A 
ATOM     28  C   UNL     1       8.065   6.015  19.144  0.00  0.00    +0.000 A 
ATOM     29  C   UNL     1       8.193   7.303  18.615  0.00  0.00    +0.000 A 
ATOM     30  C   UNL     1       7.544   7.636  17.427  0.00  0.00    +0.000 A 
ATOM     31  C   UNL     1       6.762   6.686  16.760  0.00  0.00    +0.000 A 
ENDBRANCH  25  26
ENDBRANCH  24  25
ENDBRANCH  22  24
ENDBRANCH   6  22
TORSDOF 5
ENDMDL
MODEL 8
REMARK VINA RESULT:      -8.1      1.524      1.959
REMARK  Name = 
REMARK  7 active torsions:
REMARK  status: ('A' for Active; 'I' for Inactive)
REMARK    1  A    between atoms: C_1  and  C_2
REMARK    2  A    between atoms: C_4  and  C_5
REMARK    3  A    between atoms: C_10  and  N_11
REMARK    4  A    between atoms: N_11  and  C_12
REMARK    5  A    between atoms: N_11  and  C_13
REMARK    6  A    between atoms: C_13  and  C_14
REMARK    7  A    between atoms: C_14  and  C_15
REMARK                            x       y       z     vdW  Elec       q    Type
REMARK                         _______ _______ _______ _____ _____    ______ ____
ROOT
ATOM      1  C   UNL     1       2.154   8.481  18.221  0.00  0.00    +0.000 C 
ATOM      2  O   UNL     1       2.145   8.889  17.068  0.00  0.00    +0.000 OA
ATOM      3  N   UNL     1       1.488   9.208  19.195  0.00  0.00    +0.000 N 
ATOM      4  C   UNL     1       1.643   8.965  20.617  0.00  0.00    +0.000 C 
ATOM      5  C   UNL     1       0.289   8.512  21.175  0.00  0.00    +0.000 C 
ATOM      6  C   UNL     1      -0.709   9.669  21.058  0.00  0.00    +0.000 C 
ATOM      7  C   UNL     1      -0.811   9.963  19.510  0.00  0.00    +0.000 C 
ATOM      8  C   UNL     1       0.566  10.299  18.883  0.00  0.00    +0.000 C 
ENDROOT
BRANCH   1  12
ATOM      9  C   UNL     1       5.986   5.328  17.230  0.00  0.00    +0.000 C 
ATOM     10  C   UNL     1       4.744   5.642  18.019  0.00  0.00    +0.000 A 
ATOM     11  C   UNL     1       4.055   6.853  17.775  0.00  0.00    +0.000 A 
ATOM     12  C   UNL     1       2.886   7.182  18.488  0.00  0.00    +0.000 A 
ATOM     13  C   UNL     1       2.397   6.233  19.403  0.00  0.00    +0.000 A 
ATOM     14  C   UNL     1       3.058   5.047  19.671  0.00  0.00    +0.000 A 
ATOM     15  C   UNL     1       4.249   4.735  18.990  0.00  0.00    +0.000 A 
ATOM     16  N   UNL     1       4.943   3.529  19.333  0.00  0.00    +0.000 N 
ATOM     17  C   UNL     1       4.364   2.591  20.131  0.00  0.00    +0.000 C 
ATOM     18  O   UNL     1       5.015   1.645  20.546  0.00  0.00    +0.000 OA
ATOM     19  C   UNL     1       2.897   2.693  20.448  0.00  0.00    +0.000 C 
ATOM     20  C   UNL     1       2.521   4.133  20.751  0.00  0.00    +0.000 C 
ATOM     21  H   UNL     1       5.919   3.392  19.035  0.00  0.00    +0.000 HD
ENDBRANCH   1  12
BRANCH   6  22
ATOM     22  N   UNL     1      -0.279  10.858  21.876  0.00  0.00    +0.000 NA
ATOM     23  C   UNL     1      -0.316  12.076  21.026  0.00  0.00    +0.000 C 
BRANCH  22  24
ATOM     24  C   UNL     1      -1.124  11.174  23.079  0.00  0.00    +0.000 C 
BRANCH  24  25
ATOM     25  C   UNL     1      -2.415  12.044  22.937  0.00  0.00    +0.000 C 
BRANCH  25  26
ATOM     26  C   UNL     1      -2.425  13.365  23.679  0.00  0.00    +0.000 A 
ATOM     27  C   UNL     1      -3.597  13.859  24.273  0.00  0.00    +0.000 A 
ATOM     28  C   UNL     1      -3.587  15.097  24.931  0.00  0.00    +0.000 A 
ATOM     29  C   UNL     1      -2.404  15.836  25.025  0.00  0.00    +0.000 A 
ATOM     30  C   UNL     1      -1.229  15.347  24.455  0.00  0.00    +0.000 A 
ATOM     31  C   UNL     1      -1.228  14.117  23.787  0.00  0.00    +0.000 A 
ENDBRANCH  25  26
ENDBRANCH  24  25
ENDBRANCH  22  24
ENDBRANCH   6  22
TORSDOF 5
ENDMDL
MODEL 9
REMARK VINA RESULT:      -8.1      1.102      1.723
REMARK  Name = 
REMARK  7 active torsions:
REMARK  status: ('A' for Active; 'I' for Inactive)
REMARK    1  A    between atoms: C_1  and  C_2
REMARK    2  A    between atoms: C_4  and  C_5
REMARK    3  A    between atoms: C_10  and  N_11
REMARK    4  A    between atoms: N_11  and  C_12
REMARK    5  A    between atoms: N_11  and  C_13
REMARK    6  A    between atoms: C_13  and  C_14
REMARK    7  A    between atoms: C_14  and  C_15
REMARK                            x       y       z     vdW  Elec       q    Type
REMARK                         _______ _______ _______ _____ _____    ______ ____
ROOT
ATOM      1  C   UNL     1       2.269   8.414  18.105  0.00  0.00    +0.000 C 
ATOM      2  O   UNL     1       2.357   8.972  17.020  0.00  0.00    +0.000 OA
ATOM      3  N   UNL     1       1.648   9.076  19.151  0.00  0.00    +0.000 N 
ATOM      4  C   UNL     1       1.711   8.627  20.529  0.00  0.00    +0.000 C 
ATOM      5  C   UNL     1       0.292   8.266  20.981  0.00  0.00    +0.000 C 
ATOM      6  C   UNL     1      -0.564   9.537  20.998  0.00  0.00    +0.000 C 
ATOM      7  C   UNL     1      -0.563  10.047  19.504  0.00  0.00    +0.000 C 
ATOM      8  C   UNL     1       0.869  10.301  18.968  0.00  0.00    +0.000 C 
ENDROOT
BRANCH   1  12
ATOM      9  C   UNL     1       6.256   5.318  18.458  0.00  0.00    +0.000 C 
ATOM     10  C   UNL     1       4.764   5.498  18.384  0.00  0.00    +0.000 A 
ATOM     11  C   UNL     1       4.227   6.803  18.286  0.00  0.00    +0.000 A 
ATOM     12  C   UNL     1       2.837   7.013  18.209  0.00  0.00    +0.000 A 
ATOM     13  C   UNL     1       2.011   5.877  18.168  0.00  0.00    +0.000 A 
ATOM     14  C   UNL     1       2.509   4.589  18.276  0.00  0.00    +0.000 A 
ATOM     15  C   UNL     1       3.895   4.379  18.395  0.00  0.00    +0.000 A 
ATOM     16  N   UNL     1       4.375   3.039  18.565  0.00  0.00    +0.000 N 
ATOM     17  C   UNL     1       3.548   1.971  18.394  0.00  0.00    +0.000 C 
ATOM     18  O   UNL     1       3.920   0.848  18.693  0.00  0.00    +0.000 OA
ATOM     19  C   UNL     1       2.194   2.177  17.773  0.00  0.00    +0.000 C 
ATOM     20  C   UNL     1       1.540   3.429  18.334  0.00  0.00    +0.000 C 
ATOM     21  H   UNL     1       5.338   2.873  18.891  0.00  0.00    +0.000 HD
ENDBRANCH   1  12
BRANCH   6  22
ATOM     22  N   UNL     1      -0.038  10.546  21.985  0.00  0.00    +0.000 NA
ATOM     23  C   UNL     1       0.360  11.780  21.260  0.00  0.00    +0.000 C 
BRANCH  22  24
ATOM     24  C   UNL     1      -1.000  10.992  23.051  0.00  0.00    +0.000 C 
BRANCH  24  25
ATOM     25  C   UNL     1      -2.146  12.001  22.715  0.00  0.00    +0.000 C 
BRANCH  25  26
ATOM     26  C   UNL     1      -2.193  13.270  23.544  0.00  0.00    +0.000 A 
ATOM     27  C   UNL     1      -1.154  14.212  23.493  0.00  0.00    +0.000 A 
ATOM     28  C   UNL     1      -1.208  15.365  24.289  0.00  0.00    +0.000 A 
ATOM     29  C   UNL     1      -2.308  15.599  25.118  0.00  0.00    +0.000 A 
ATOM     30  C   UNL     1      -3.355  14.679  25.163  0.00  0.00    +0.000 A 
ATOM     31  C   UNL     1      -3.309  13.519  24.380  0.00  0.00    +0.000 A 
ENDBRANCH  25  26
ENDBRANCH  24  25
ENDBRANCH  22  24
ENDBRANCH   6  22
TORSDOF 5
ENDMDL
