MODEL 1
REMARK VINA RESULT:      -9.5      0.000      0.000
REMARK  Name = 
REMARK  6 active torsions:
REMARK  status: ('A' for Active; 'I' for Inactive)
REMARK    1  A    between atoms: C_2  and  C_5
REMARK    2  A    between atoms: C_10  and  C_11
REMARK    3  A    between atoms: C_11  and  N_12
REMARK    4  A    between atoms: C_14  and  C_15
REMARK    5  A    between atoms: C_15  and  N_16
REMARK    6  A    between atoms: N_16  and  C_17
REMARK                            x       y       z     vdW  Elec       q    Type
REMARK                         _______ _______ _______ _____ _____    ______ ____
ROOT
ATOM      1  N   UNL     1       3.567   6.016  18.919  0.00  0.00    +0.000 N 
ATOM      2  C   UNL     1       3.381   6.128  17.527  0.00  0.00    +0.000 A 
ATOM      3  C   UNL     1       3.892   4.872  17.351  0.00  0.00    +0.000 A 
ATOM      4  C   UNL     1       5.192   5.132  17.642  0.00  0.00    +0.000 A 
ATOM      5  C   UNL     1       6.251   4.523  16.841  0.00  0.00    +0.000 A 
ATOM      6  C   UNL     1       7.555   4.436  17.159  0.00  0.00    +0.000 A 
ATOM      7  C   UNL     1       7.761   5.030  18.354  0.00  0.00    +0.000 A 
ATOM      8  C   UNL     1       6.631   5.634  19.169  0.00  0.00    +0.000 A 
ATOM      9  C   UNL     1       5.123   5.831  19.083  0.00  0.00    +0.000 A 
ENDROOT
BRANCH   1  10
ATOM     10  C   UNL     1       2.367   6.914  19.747  0.00  0.00    +0.000 C 
BRANCH  10  16
ATOM     11  C   UNL     1       0.866   9.258  20.335  0.00  0.00    +0.000 A 
ATOM     12  C   UNL     1       0.242  10.570  20.140  0.00  0.00    +0.000 A 
ATOM     13  C   UNL     1       0.333  11.216  18.948  0.00  0.00    +0.000 A 
ATOM     14  C   UNL     1       1.071  10.537  17.988  0.00  0.00    +0.000 A 
ATOM     15  C   UNL     1       1.725   9.228  18.201  0.00  0.00    +0.000 A 
ATOM     16  C   UNL     1       1.710   8.509  19.405  0.00  0.00    +0.000 A 
BRANCH  11  18
ATOM     17  F   UNL     1      -0.498   9.431  22.273  0.00  0.00    +0.000 F 
ATOM     18  C   UNL     1       0.420   8.667  21.614  0.00  0.00    +0.000 C 
ATOM     19  F   UNL     1       1.479   8.511  22.429  0.00  0.00    +0.000 F 
ATOM     20  F   UNL     1      -0.165   7.464  21.417  0.00  0.00    +0.000 F 
ENDBRANCH  11  18
ENDBRANCH  10  16
ENDBRANCH   1  10
BRANCH   3  21
ATOM     21  C   UNL     1       3.487   3.478  17.125  0.00  0.00    +0.000 C 
BRANCH  21  22
ATOM     22  N   UNL     1       3.792   2.759  18.325  0.00  0.00    +0.000 N 
ATOM     23  H   UNL     1       3.923   1.812  18.018  0.00  0.00    +0.000 HD
BRANCH  22  24
ATOM     24  C   UNL     1       2.996   2.858  19.441  0.00  0.00    +0.000 A 
ATOM     25  C   UNL     1       1.619   3.016  19.287  0.00  0.00    +0.000 A 
ATOM     26  C   UNL     1       0.811   3.004  20.413  0.00  0.00    +0.000 A 
ATOM     27  C   UNL     1       1.411   2.795  21.646  0.00  0.00    +0.000 A 
ATOM     28  N   UNL     1       2.724   2.552  21.828  0.00  0.00    +0.000 NA
ATOM     29  C   UNL     1       3.470   2.563  20.712  0.00  0.00    +0.000 A 
ENDBRANCH  22  24
ENDBRANCH  21  22
ENDBRANCH   3  21
TORSDOF 6
ENDMDL
MODEL 2
REMARK VINA RESULT:      -9.4      2.305      4.609
REMARK  Name = 
REMARK  6 active torsions:
REMARK  status: ('A' for Active; 'I' for Inactive)
REMARK    1  A    between atoms: C_2  and  C_5
REMARK    2  A    between atoms: C_10  and  C_11
REMARK    3  A    between atoms: C_11  and  N_12
REMARK    4  A    between atoms: C_14  and  C_15
REMARK    5  A    between atoms: C_15  and  N_16
REMARK    6  A    between atoms: N_16  and  C_17
REMARK                            x       y       z     vdW  Elec       q    Type
REMARK                         _______ _______ _______ _____ _____    ______ ____
ROOT
ATOM      1  N   UNL     1       2.873   6.256  18.779  0.00  0.00    +0.000 N 
ATOM      2  C   UNL     1       3.324   5.885  20.061  0.00  0.00    +0.000 A 
ATOM      3  C   UNL     1       4.294   5.101  19.499  0.00  0.00    +0.000 A 
ATOM      4  C   UNL     1       3.506   4.112  19.009  0.00  0.00    +0.000 A 
ATOM      5  C   UNL     1       3.936   2.720  19.118  0.00  0.00    +0.000 A 
ATOM      6  C   UNL     1       3.438   1.666  18.446  0.00  0.00    +0.000 A 
ATOM      7  C   UNL     1       2.435   2.084  17.645  0.00  0.00    +0.000 A 
ATOM      8  C   UNL     1       2.029   3.544  17.542  0.00  0.00    +0.000 A 
ATOM      9  C   UNL     1       2.424   4.895  18.124  0.00  0.00    +0.000 A 
ENDROOT
BRANCH   1  10
ATOM     10  C   UNL     1       2.232   7.844  18.816  0.00  0.00    +0.000 C 
BRANCH  10  16
ATOM     11  C   UNL     1       0.433   9.817  19.796  0.00  0.00    +0.000 A 
ATOM     12  C   UNL     1      -0.377  10.579  20.751  0.00  0.00    +0.000 A 
ATOM     13  C   UNL     1      -0.349  10.290  22.078  0.00  0.00    +0.000 A 
ATOM     14  C   UNL     1       0.476   9.224  22.410  0.00  0.00    +0.000 A 
ATOM     15  C   UNL     1       1.267   8.438  21.438  0.00  0.00    +0.000 A 
ATOM     16  C   UNL     1       1.271   8.647  20.051  0.00  0.00    +0.000 A 
BRANCH  11  18
ATOM     17  F   UNL     1      -0.342  11.610  18.442  0.00  0.00    +0.000 F 
ATOM     18  C   UNL     1       0.417  10.477  18.473  0.00  0.00    +0.000 C 
ATOM     19  F   UNL     1      -0.085   9.628  17.556  0.00  0.00    +0.000 F 
ATOM     20  F   UNL     1       1.661  10.847  18.098  0.00  0.00    +0.000 F 
ENDBRANCH  11  18
ENDBRANCH  10  16
ENDBRANCH   1  10
BRANCH   3  21
ATOM     21  C   UNL     1       5.726   5.087  19.173  0.00  0.00    +0.000 C 
BRANCH  21  22
ATOM     22  N   UNL     1       5.922   4.037  18.219  0.00  0.00    +0.000 N 
ATOM     23  H   UNL     1       6.531   3.390  18.685  0.00  0.00    +0.000 HD
BRANCH  22  24
ATOM     24  C   UNL     1       6.311   4.305  16.928  0.00  0.00    +0.000 A 
ATOM     25  C   UNL     1       5.645   3.688  15.870  0.00  0.00    +0.000 A 
ATOM     26  C   UNL     1       5.968   4.046  14.571  0.00  0.00    +0.000 A 
ATOM     27  C   UNL     1       6.921   5.037  14.384  0.00  0.00    +0.000 A 
ATOM     28  N   UNL     1       7.524   5.718  15.378  0.00  0.00    +0.000 NA
ATOM     29  C   UNL     1       7.177   5.347  16.621  0.00  0.00    +0.000 A 
ENDBRANCH  22  24
ENDBRANCH  21  22
ENDBRANCH   3  21
TORSDOF 6
ENDMDL
MODEL 3
REMARK VINA RESULT:      -9.3      0.596      1.179
REMARK  Name = 
REMARK  6 active torsions:
REMARK  status: ('A' for Active; 'I' for Inactive)
REMARK    1  A    between atoms: C_2  and  C_5
REMARK    2  A    between atoms: C_10  and  C_11
REMARK    3  A    between atoms: C_11  and  N_12
REMARK    4  A    between atoms: C_14  and  C_15
REMARK    5  A    between atoms: C_15  and  N_16
REMARK    6  A    between atoms: N_16  and  C_17
REMARK                            x       y       z     vdW  Elec       q    Type
REMARK                         _______ _______ _______ _____ _____    ______ ____
ROOT
ATOM      1  N   UNL     1       3.595   6.041  18.911  0.00  0.00    +0.000 N 
ATOM      2  C   UNL     1       3.476   6.244  17.522  0.00  0.00    +0.000 A 
ATOM      3  C   UNL     1       3.965   4.987  17.290  0.00  0.00    +0.000 A 
ATOM      4  C   UNL     1       5.256   5.195  17.655  0.00  0.00    +0.000 A 
ATOM      5  C   UNL     1       6.336   4.608  16.865  0.00  0.00    +0.000 A 
ATOM      6  C   UNL     1       7.621   4.467  17.235  0.00  0.00    +0.000 A 
ATOM      7  C   UNL     1       7.786   4.981  18.472  0.00  0.00    +0.000 A 
ATOM      8  C   UNL     1       6.634   5.563  19.273  0.00  0.00    +0.000 A 
ATOM      9  C   UNL     1       5.137   5.805  19.132  0.00  0.00    +0.000 A 
ENDROOT
BRANCH   1  10
ATOM     10  C   UNL     1       2.380   6.917  19.740  0.00  0.00    +0.000 C 
BRANCH  10  16
ATOM     11  C   UNL     1       0.809   9.225  20.288  0.00  0.00    +0.000 A 
ATOM     12  C   UNL     1       0.121  10.500  20.062  0.00  0.00    +0.000 A 
ATOM     13  C   UNL     1       0.130  11.090  18.838  0.00  0.00    +0.000 A 
ATOM     14  C   UNL     1       0.851  10.395  17.877  0.00  0.00    +0.000 A 
ATOM     15  C   UNL     1       1.569   9.125  18.119  0.00  0.00    +0.000 A 
ATOM     16  C   UNL     1       1.640   8.466  19.355  0.00  0.00    +0.000 A 
BRANCH  11  18
ATOM     17  F   UNL     1       1.521   8.488  22.432  0.00  0.00    +0.000 F 
ATOM     18  C   UNL     1       0.447   8.679  21.613  0.00  0.00    +0.000 C 
ATOM     19  F   UNL     1      -0.160   7.488  21.456  0.00  0.00    +0.000 F 
ATOM     20  F   UNL     1      -0.385   9.514  22.274  0.00  0.00    +0.000 F 
ENDBRANCH  11  18
ENDBRANCH  10  16
ENDBRANCH   1  10
BRANCH   3  21
ATOM     21  C   UNL     1       3.538   3.622  16.959  0.00  0.00    +0.000 C 
BRANCH  21  22
ATOM     22  N   UNL     1       3.814   2.813  18.108  0.00  0.00    +0.000 N 
ATOM     23  H   UNL     1       4.039   1.912  17.727  0.00  0.00    +0.000 HD
BRANCH  22  24
ATOM     24  C   UNL     1       2.937   2.744  19.164  0.00  0.00    +0.000 A 
ATOM     25  C   UNL     1       3.436   2.705  20.466  0.00  0.00    +0.000 A 
ATOM     26  C   UNL     1       2.547   2.747  21.529  0.00  0.00    +0.000 A 
ATOM     27  C   UNL     1       1.194   2.867  21.244  0.00  0.00    +0.000 A 
ATOM     28  N   UNL     1       0.679   2.996  20.005  0.00  0.00    +0.000 NA
ATOM     29  C   UNL     1       1.574   2.958  19.005  0.00  0.00    +0.000 A 
ENDBRANCH  22  24
ENDBRANCH  21  22
ENDBRANCH   3  21
TORSDOF 6
ENDMDL
MODEL 4
REMARK VINA RESULT:      -9.2      2.354      4.575
REMARK  Name = 
REMARK  6 active torsions:
REMARK  status: ('A' for Active; 'I' for Inactive)
REMARK    1  A    between atoms: C_2  and  C_5
REMARK    2  A    between atoms: C_10  and  C_11
REMARK    3  A    between atoms: C_11  and  N_12
REMARK    4  A    between atoms: C_14  and  C_15
REMARK    5  A    between atoms: C_15  and  N_16
REMARK    6  A    between atoms: N_16  and  C_17
REMARK                            x       y       z     vdW  Elec       q    Type
REMARK                         _______ _______ _______ _____ _____    ______ ____
ROOT
ATOM      1  N   UNL     1       2.784   6.333  18.841  0.00  0.00    +0.000 N 
ATOM      2  C   UNL     1       3.129   5.906  20.138  0.00  0.00    +0.000 A 
ATOM      3  C   UNL     1       4.140   5.142  19.624  0.00  0.00    +0.000 A 
ATOM      4  C   UNL     1       3.393   4.178  19.031  0.00  0.00    +0.000 A 
ATOM      5  C   UNL     1       3.811   2.781  19.115  0.00  0.00    +0.000 A 
ATOM      6  C   UNL     1       3.367   1.759  18.361  0.00  0.00    +0.000 A 
ATOM      7  C   UNL     1       2.433   2.215  17.500  0.00  0.00    +0.000 A 
ATOM      8  C   UNL     1       2.039   3.680  17.426  0.00  0.00    +0.000 A 
ATOM      9  C   UNL     1       2.387   5.003  18.094  0.00  0.00    +0.000 A 
ENDROOT
BRANCH   1  10
ATOM     10  C   UNL     1       2.144   7.921  18.894  0.00  0.00    +0.000 C 
BRANCH  10  16
ATOM     11  C   UNL     1       0.316   9.855  19.901  0.00  0.00    +0.000 A 
ATOM     12  C   UNL     1      -0.480  10.613  20.871  0.00  0.00    +0.000 A 
ATOM     13  C   UNL     1      -0.385  10.359  22.202  0.00  0.00    +0.000 A 
ATOM     14  C   UNL     1       0.491   9.332  22.525  0.00  0.00    +0.000 A 
ATOM     15  C   UNL     1       1.268   8.550  21.539  0.00  0.00    +0.000 A 
ATOM     16  C   UNL     1       1.206   8.721  20.149  0.00  0.00    +0.000 A 
BRANCH  11  18
ATOM     17  F   UNL     1      -0.177   9.611  17.589  0.00  0.00    +0.000 F 
ATOM     18  C   UNL     1       0.221  10.478  18.564  0.00  0.00    +0.000 C 
ATOM     19  F   UNL     1       1.425  10.963  18.209  0.00  0.00    +0.000 F 
ATOM     20  F   UNL     1      -0.679  11.487  18.560  0.00  0.00    +0.000 F 
ENDBRANCH  11  18
ENDBRANCH  10  16
ENDBRANCH   1  10
BRANCH   3  21
ATOM     21  C   UNL     1       5.594   5.135  19.415  0.00  0.00    +0.000 C 
BRANCH  21  22
ATOM     22  N   UNL     1       5.862   6.050  18.346  0.00  0.00    +0.000 N 
ATOM     23  H   UNL     1       5.200   6.791  18.485  0.00  0.00    +0.000 HD
BRANCH  22  24
ATOM     24  C   UNL     1       5.928   5.626  17.041  0.00  0.00    +0.000 A 
ATOM     25  C   UNL     1       6.302   4.310  16.766  0.00  0.00    +0.000 A 
ATOM     26  C   UNL     1       6.260   3.859  15.456  0.00  0.00    +0.000 A 
ATOM     27  C   UNL     1       5.809   4.733  14.478  0.00  0.00    +0.000 A 
ATOM     28  N   UNL     1       5.359   5.981  14.713  0.00  0.00    +0.000 NA
ATOM     29  C   UNL     1       5.407   6.377  15.995  0.00  0.00    +0.000 A 
ENDBRANCH  22  24
ENDBRANCH  21  22
ENDBRANCH   3  21
TORSDOF 6
ENDMDL
MODEL 5
REMARK VINA RESULT:      -9.2      1.095      1.290
REMARK  Name = 
REMARK  6 active torsions:
REMARK  status: ('A' for Active; 'I' for Inactive)
REMARK    1  A    between atoms: C_2  and  C_5
REMARK    2  A    between atoms: C_10  and  C_11
REMARK    3  A    between atoms: C_11  and  N_12
REMARK    4  A    between atoms: C_14  and  C_15
REMARK    5  A    between atoms: C_15  and  N_16
REMARK    6  A    between atoms: N_16  and  C_17
REMARK                            x       y       z     vdW  Elec       q    Type
REMARK                         _______ _______ _______ _____ _____    ______ ____
ROOT
ATOM      1  N   UNL     1       3.938   5.598  18.171  0.00  0.00    +0.000 N 
ATOM      2  C   UNL     1       3.096   4.954  17.244  0.00  0.00    +0.000 A 
ATOM      3  C   UNL     1       3.985   3.919  17.146  0.00  0.00    +0.000 A 
ATOM      4  C   UNL     1       4.974   4.556  16.470  0.00  0.00    +0.000 A 
ATOM      5  C   UNL     1       5.679   3.865  15.393  0.00  0.00    +0.000 A 
ATOM      6  C   UNL     1       6.846   4.225  14.831  0.00  0.00    +0.000 A 
ATOM      7  C   UNL     1       7.281   5.368  15.405  0.00  0.00    +0.000 A 
ATOM      8  C   UNL     1       6.532   6.047  16.538  0.00  0.00    +0.000 A 
ATOM      9  C   UNL     1       5.268   5.852  17.365  0.00  0.00    +0.000 A 
ENDROOT
BRANCH   1  10
ATOM     10  C   UNL     1       3.005   6.516  19.275  0.00  0.00    +0.000 C 
BRANCH  10  16
ATOM     11  C   UNL     1       1.270   8.638  20.039  0.00  0.00    +0.000 A 
ATOM     12  C   UNL     1       0.509   9.887  19.943  0.00  0.00    +0.000 A 
ATOM     13  C   UNL     1       0.520  10.626  18.803  0.00  0.00    +0.000 A 
ATOM     14  C   UNL     1       1.316  10.102  17.794  0.00  0.00    +0.000 A 
ATOM     15  C   UNL     1       2.107   8.857  17.907  0.00  0.00    +0.000 A 
ATOM     16  C   UNL     1       2.180   8.054  19.054  0.00  0.00    +0.000 A 
BRANCH  11  18
ATOM     17  F   UNL     1      -0.420   8.020  21.591  0.00  0.00    +0.000 F 
ATOM     18  C   UNL     1       0.901   7.909  21.271  0.00  0.00    +0.000 C 
ATOM     19  F   UNL     1       1.612   8.392  22.307  0.00  0.00    +0.000 F 
ATOM     20  F   UNL     1       1.147   6.586  21.147  0.00  0.00    +0.000 F 
ENDBRANCH  11  18
ENDBRANCH  10  16
ENDBRANCH   1  10
BRANCH   3  21
ATOM     21  C   UNL     1       4.228   2.552  17.625  0.00  0.00    +0.000 C 
BRANCH  21  22
ATOM     22  N   UNL     1       2.988   2.075  18.160  0.00  0.00    +0.000 N 
ATOM     23  H   UNL     1       2.323   2.240  17.427  0.00  0.00    +0.000 HD
BRANCH  22  24
ATOM     24  C   UNL     1       2.537   2.480  19.394  0.00  0.00    +0.000 A 
ATOM     25  C   UNL     1       1.197   2.832  19.551  0.00  0.00    +0.000 A 
ATOM     26  C   UNL     1       0.725   3.134  20.819  0.00  0.00    +0.000 A 
ATOM     27  C   UNL     1       1.606   3.032  21.886  0.00  0.00    +0.000 A 
ATOM     28  N   UNL     1       2.883   2.612  21.788  0.00  0.00    +0.000 NA
ATOM     29  C   UNL     1       3.299   2.322  20.545  0.00  0.00    +0.000 A 
ENDBRANCH  22  24
ENDBRANCH  21  22
ENDBRANCH   3  21
TORSDOF 6
ENDMDL
MODEL 6
REMARK VINA RESULT:      -9.2      1.876      4.421
REMARK  Name = 
REMARK  6 active torsions:
REMARK  status: ('A' for Active; 'I' for Inactive)
REMARK    1  A    between atoms: C_2  and  C_5
REMARK    2  A    between atoms: C_10  and  C_11
REMARK    3  A    between atoms: C_11  and  N_12
REMARK    4  A    between atoms: C_14  and  C_15
REMARK    5  A    between atoms: C_15  and  N_16
REMARK    6  A    between atoms: N_16  and  C_17
REMARK                            x       y       z     vdW  Elec       q    Type
REMARK                         _______ _______ _______ _____ _____    ______ ____
ROOT
ATOM      1  N   UNL     1       1.911   6.040  20.050  0.00  0.00    +0.000 N 
ATOM      2  C   UNL     1       3.292   5.853  20.251  0.00  0.00    +0.000 A 
ATOM      3  C   UNL     1       3.419   5.375  18.976  0.00  0.00    +0.000 A 
ATOM      4  C   UNL     1       2.788   4.185  19.135  0.00  0.00    +0.000 A 
ATOM      5  C   UNL     1       3.332   2.985  18.504  0.00  0.00    +0.000 A 
ATOM      6  C   UNL     1       2.697   1.814  18.314  0.00  0.00    +0.000 A 
ATOM      7  C   UNL     1       1.451   1.896  18.827  0.00  0.00    +0.000 A 
ATOM      8  C   UNL     1       0.912   3.169  19.457  0.00  0.00    +0.000 A 
ATOM      9  C   UNL     1       1.367   4.591  19.756  0.00  0.00    +0.000 A 
ENDROOT
BRANCH   1  10
ATOM     10  C   UNL     1       1.356   7.369  20.977  0.00  0.00    +0.000 C 
BRANCH  10  16
ATOM     11  C   UNL     1       0.277   9.977  21.340  0.00  0.00    +0.000 A 
ATOM     12  C   UNL     1      -0.138  11.345  21.017  0.00  0.00    +0.000 A 
ATOM     13  C   UNL     1      -0.001  11.837  19.758  0.00  0.00    +0.000 A 
ATOM     14  C   UNL     1       0.573  10.949  18.859  0.00  0.00    +0.000 A 
ATOM     15  C   UNL     1       1.018   9.580  19.199  0.00  0.00    +0.000 A 
ATOM     16  C   UNL     1       0.946   9.005  20.476  0.00  0.00    +0.000 A 
BRANCH  11  18
ATOM     17  F   UNL     1      -0.946  10.577  23.288  0.00  0.00    +0.000 F 
ATOM     18  C   UNL     1      -0.198   9.605  22.690  0.00  0.00    +0.000 C 
ATOM     19  F   UNL     1       0.861   9.362  23.485  0.00  0.00    +0.000 F 
ATOM     20  F   UNL     1      -0.979   8.503  22.646  0.00  0.00    +0.000 F 
ENDBRANCH  11  18
ENDBRANCH  10  16
ENDBRANCH   1  10
BRANCH   3  21
ATOM     21  C   UNL     1       3.838   5.775  17.626  0.00  0.00    +0.000 C 
BRANCH  21  22
ATOM     22  N   UNL     1       5.251   5.555  17.550  0.00  0.00    +0.000 N 
ATOM     23  H   UNL     1       5.652   6.394  17.928  0.00  0.00    +0.000 HD
BRANCH  22  24
ATOM     24  C   UNL     1       5.852   5.152  16.381  0.00  0.00    +0.000 A 
ATOM     25  C   UNL     1       5.121   4.403  15.459  0.00  0.00    +0.000 A 
ATOM     26  C   UNL     1       5.696   4.095  14.236  0.00  0.00    +0.000 A 
ATOM     27  C   UNL     1       6.968   4.582  13.971  0.00  0.00    +0.000 A 
ATOM     28  N   UNL     1       7.671   5.380  14.798  0.00  0.00    +0.000 NA
ATOM     29  C   UNL     1       7.076   5.662  15.968  0.00  0.00    +0.000 A 
ENDBRANCH  22  24
ENDBRANCH  21  22
ENDBRANCH   3  21
TORSDOF 6
ENDMDL
MODEL 7
REMARK VINA RESULT:      -9.1      2.321      4.828
REMARK  Name = 
REMARK  6 active torsions:
REMARK  status: ('A' for Active; 'I' for Inactive)
REMARK    1  A    between atoms: C_2  and  C_5
REMARK    2  A    between atoms: C_10  and  C_11
REMARK    3  A    between atoms: C_11  and  N_12
REMARK    4  A    between atoms: C_14  and  C_15
REMARK    5  A    between atoms: C_15  and  N_16
REMARK    6  A    between atoms: N_16  and  C_17
REMARK                            x       y       z     vdW  Elec       q    Type
REMARK                         _______ _______ _______ _____ _____    ______ ____
ROOT
ATOM      1  N   UNL     1       2.498   6.264  19.410  0.00  0.00    +0.000 N 
ATOM      2  C   UNL     1       3.904   6.176  19.378  0.00  0.00    +0.000 A 
ATOM      3  C   UNL     1       3.819   4.947  18.785  0.00  0.00    +0.000 A 
ATOM      4  C   UNL     1       3.359   4.234  19.844  0.00  0.00    +0.000 A 
ATOM      5  C   UNL     1       3.885   2.896  20.103  0.00  0.00    +0.000 A 
ATOM      6  C   UNL     1       3.349   1.959  20.906  0.00  0.00    +0.000 A 
ATOM      7  C   UNL     1       2.230   2.453  21.479  0.00  0.00    +0.000 A 
ATOM      8  C   UNL     1       1.702   3.842  21.169  0.00  0.00    +0.000 A 
ATOM      9  C   UNL     1       2.059   5.048  20.310  0.00  0.00    +0.000 A 
ENDROOT
BRANCH   1  10
ATOM     10  C   UNL     1       2.008   7.900  19.273  0.00  0.00    +0.000 C 
BRANCH  10  16
ATOM     11  C   UNL     1       0.294  10.071  19.938  0.00  0.00    +0.000 A 
ATOM     12  C   UNL     1      -0.513  10.977  20.760  0.00  0.00    +0.000 A 
ATOM     13  C   UNL     1      -0.576  10.826  22.109  0.00  0.00    +0.000 A 
ATOM     14  C   UNL     1       0.156   9.753  22.596  0.00  0.00    +0.000 A 
ATOM     15  C   UNL     1       0.944   8.823  21.758  0.00  0.00    +0.000 A 
ATOM     16  C   UNL     1       1.037   8.885  20.360  0.00  0.00    +0.000 A 
BRANCH  11  18
ATOM     17  F   UNL     1      -0.024   9.697  17.613  0.00  0.00    +0.000 F 
ATOM     18  C   UNL     1       0.394  10.589  18.557  0.00  0.00    +0.000 C 
ATOM     19  F   UNL     1       1.676  10.896  18.286  0.00  0.00    +0.000 F 
ATOM     20  F   UNL     1      -0.368  11.693  18.394  0.00  0.00    +0.000 F 
ENDBRANCH  11  18
ENDBRANCH  10  16
ENDBRANCH   1  10
BRANCH   3  21
ATOM     21  C   UNL     1       3.913   4.283  17.478  0.00  0.00    +0.000 C 
BRANCH  21  22
ATOM     22  N   UNL     1       5.280   3.887  17.314  0.00  0.00    +0.000 N 
ATOM     23  H   UNL     1       5.740   4.245  18.131  0.00  0.00    +0.000 HD
BRANCH  22  24
ATOM     24  C   UNL     1       5.967   4.149  16.153  0.00  0.00    +0.000 A 
ATOM     25  C   UNL     1       5.490   3.638  14.945  0.00  0.00    +0.000 A 
ATOM     26  C   UNL     1       6.124   3.997  13.766  0.00  0.00    +0.000 A 
ATOM     27  C   UNL     1       7.188   4.885  13.840  0.00  0.00    +0.000 A 
ATOM     28  N   UNL     1       7.622   5.468  14.974  0.00  0.00    +0.000 NA
ATOM     29  C   UNL     1       6.977   5.101  16.093  0.00  0.00    +0.000 A 
ENDBRANCH  22  24
ENDBRANCH  21  22
ENDBRANCH   3  21
TORSDOF 6
ENDMDL
MODEL 8
REMARK VINA RESULT:      -9.0      1.694      4.451
REMARK  Name = 
REMARK  6 active torsions:
REMARK  status: ('A' for Active; 'I' for Inactive)
REMARK    1  A    between atoms: C_2  and  C_5
REMARK    2  A    between atoms: C_10  and  C_11
REMARK    3  A    between atoms: C_11  and  N_12
REMARK    4  A    between atoms: C_14  and  C_15
REMARK    5  A    between atoms: C_15  and  N_16
REMARK    6  A    between atoms: N_16  and  C_17
REMARK                            x       y       z     vdW  Elec       q    Type
REMARK                         _______ _______ _______ _____ _____    ______ ____
ROOT
ATOM      1  N   UNL     1       2.947   5.987  18.737  0.00  0.00    +0.000 N 
ATOM      2  C   UNL     1       3.933   5.489  19.611  0.00  0.00    +0.000 A 
ATOM      3  C   UNL     1       4.152   4.432  18.772  0.00  0.00    +0.000 A 
ATOM      4  C   UNL     1       2.996   3.753  18.984  0.00  0.00    +0.000 A 
ATOM      5  C   UNL     1       3.020   2.297  19.100  0.00  0.00    +0.000 A 
ATOM      6  C   UNL     1       1.968   1.464  19.017  0.00  0.00    +0.000 A 
ATOM      7  C   UNL     1       0.843   2.186  18.827  0.00  0.00    +0.000 A 
ATOM      8  C   UNL     1       0.860   3.698  18.690  0.00  0.00    +0.000 A 
ATOM      9  C   UNL     1       1.859   4.847  18.699  0.00  0.00    +0.000 A 
ENDROOT
BRANCH   1  10
ATOM     10  C   UNL     1       2.896   7.697  18.819  0.00  0.00    +0.000 C 
BRANCH  10  16
ATOM     11  C   UNL     1       0.774   9.096  20.098  0.00  0.00    +0.000 A 
ATOM     12  C   UNL     1      -0.402   9.956  20.253  0.00  0.00    +0.000 A 
ATOM     13  C   UNL     1      -1.003  10.518  19.172  0.00  0.00    +0.000 A 
ATOM     14  C   UNL     1      -0.392  10.220  17.963  0.00  0.00    +0.000 A 
ATOM     15  C   UNL     1       0.814   9.376  17.815  0.00  0.00    +0.000 A 
ATOM     16  C   UNL     1       1.515   8.786  18.876  0.00  0.00    +0.000 A 
BRANCH  11  18
ATOM     17  F   UNL     1       0.083   8.520  22.298  0.00  0.00    +0.000 F 
ATOM     18  C   UNL     1       1.084   8.420  21.376  0.00  0.00    +0.000 C 
ATOM     19  F   UNL     1       2.189   8.967  21.916  0.00  0.00    +0.000 F 
ATOM     20  F   UNL     1       1.292   7.097  21.191  0.00  0.00    +0.000 F 
ENDBRANCH  11  18
ENDBRANCH  10  16
ENDBRANCH   1  10
BRANCH   3  21
ATOM     21  C   UNL     1       5.070   3.952  17.730  0.00  0.00    +0.000 C 
BRANCH  21  22
ATOM     22  N   UNL     1       6.392   4.307  18.148  0.00  0.00    +0.000 N 
ATOM     23  H   UNL     1       6.472   3.918  19.070  0.00  0.00    +0.000 HD
BRANCH  22  24
ATOM     24  C   UNL     1       6.843   5.603  18.072  0.00  0.00    +0.000 A 
ATOM     25  C   UNL     1       7.827   6.039  18.960  0.00  0.00    +0.000 A 
ATOM     26  C   UNL     1       8.356   7.311  18.807  0.00  0.00    +0.000 A 
ATOM     27  C   UNL     1       7.905   8.082  17.745  0.00  0.00    +0.000 A 
ATOM     28  N   UNL     1       7.022   7.667  16.816  0.00  0.00    +0.000 NA
ATOM     29  C   UNL     1       6.540   6.427  16.996  0.00  0.00    +0.000 A 
ENDBRANCH  22  24
ENDBRANCH  21  22
ENDBRANCH   3  21
TORSDOF 6
ENDMDL
MODEL 9
REMARK VINA RESULT:      -9.0      2.213      4.663
REMARK  Name = 
REMARK  6 active torsions:
REMARK  status: ('A' for Active; 'I' for Inactive)
REMARK    1  A    between atoms: C_2  and  C_5
REMARK    2  A    between atoms: C_10  and  C_11
REMARK    3  A    between atoms: C_11  and  N_12
REMARK    4  A    between atoms: C_14  and  C_15
REMARK    5  A    between atoms: C_15  and  N_16
REMARK    6  A    between atoms: N_16  and  C_17
REMARK                            x       y       z     vdW  Elec       q    Type
REMARK                         _______ _______ _______ _____ _____    ______ ____
ROOT
ATOM      1  N   UNL     1       2.621   6.135  18.615  0.00  0.00    +0.000 N 
ATOM      2  C   UNL     1       3.903   5.804  19.095  0.00  0.00    +0.000 A 
ATOM      3  C   UNL     1       4.017   4.831  18.140  0.00  0.00    +0.000 A 
ATOM      4  C   UNL     1       3.120   3.943  18.638  0.00  0.00    +0.000 A 
ATOM      5  C   UNL     1       3.423   2.514  18.614  0.00  0.00    +0.000 A 
ATOM      6  C   UNL     1       2.554   1.502  18.788  0.00  0.00    +0.000 A 
ATOM      7  C   UNL     1       1.324   2.007  19.018  0.00  0.00    +0.000 A 
ATOM      8  C   UNL     1       1.042   3.500  19.015  0.00  0.00    +0.000 A 
ATOM      9  C   UNL     1       1.785   4.814  18.815  0.00  0.00    +0.000 A 
ENDROOT
BRANCH   1  10
ATOM     10  C   UNL     1       2.314   7.802  18.857  0.00  0.00    +0.000 C 
BRANCH  10  16
ATOM     11  C   UNL     1       0.495   9.768  19.816  0.00  0.00    +0.000 A 
ATOM     12  C   UNL     1      -0.324  10.532  20.762  0.00  0.00    +0.000 A 
ATOM     13  C   UNL     1      -0.296  10.253  22.092  0.00  0.00    +0.000 A 
ATOM     14  C   UNL     1       0.536   9.197  22.434  0.00  0.00    +0.000 A 
ATOM     15  C   UNL     1       1.336   8.410  21.471  0.00  0.00    +0.000 A 
ATOM     16  C   UNL     1       1.342   8.607  20.083  0.00  0.00    +0.000 A 
BRANCH  11  18
ATOM     17  F   UNL     1      -0.291  11.544  18.445  0.00  0.00    +0.000 F 
ATOM     18  C   UNL     1       0.477  10.417  18.488  0.00  0.00    +0.000 C 
ATOM     19  F   UNL     1      -0.015   9.556  17.576  0.00  0.00    +0.000 F 
ATOM     20  F   UNL     1       1.719  10.795  18.112  0.00  0.00    +0.000 F 
ENDBRANCH  11  18
ENDBRANCH  10  16
ENDBRANCH   1  10
BRANCH   3  21
ATOM     21  C   UNL     1       4.620   4.561  16.828  0.00  0.00    +0.000 C 
BRANCH  21  22
ATOM     22  N   UNL     1       6.016   4.340  17.053  0.00  0.00    +0.000 N 
ATOM     23  H   UNL     1       6.046   3.523  17.637  0.00  0.00    +0.000 HD
BRANCH  22  24
ATOM     24  C   UNL     1       6.839   5.347  17.498  0.00  0.00    +0.000 A 
ATOM     25  C   UNL     1       6.793   6.594  16.874  0.00  0.00    +0.000 A 
ATOM     26  C   UNL     1       7.543   7.635  17.397  0.00  0.00    +0.000 A 
ATOM     27  C   UNL     1       8.280   7.397  18.548  0.00  0.00    +0.000 A 
ATOM     28  N   UNL     1       8.283   6.234  19.230  0.00  0.00    +0.000 NA
ATOM     29  C   UNL     1       7.537   5.254  18.695  0.00  0.00    +0.000 A 
ENDBRANCH  22  24
ENDBRANCH  21  22
ENDBRANCH   3  21
TORSDOF 6
ENDMDL
