MODEL 1
REMARK VINA RESULT:      -6.6      0.000      0.000
REMARK  Name = 
REMARK  8 active torsions:
REMARK  status: ('A' for Active; 'I' for Inactive)
REMARK    1  A    between atoms: C_1  and  C_2
REMARK    2  A    between atoms: C_2  and  C_3
REMARK    3  A    between atoms: C_3  and  N_4
REMARK    4  A    between atoms: N_4  and  C_5
REMARK    5  A    between atoms: N_4  and  C_8
REMARK    6  A    between atoms: C_5  and  C_6
REMARK    7  A    between atoms: C_6  and  C_7
REMARK    8  A    between atoms: C_16  and  C_17
REMARK                            x       y       z     vdW  Elec       q    Type
REMARK                         _______ _______ _______ _____ _____    ______ ____
ROOT
ATOM      1  C   UNL     1       3.818   3.289  19.367  0.00  0.00    +0.000 C 
ATOM      2  C   UNL     1       3.859   2.140  18.328  0.00  0.00    +0.000 C 
ATOM      3  C   UNL     1       4.138   2.624  16.898  0.00  0.00    +0.000 C 
ATOM      4  C   UNL     1       4.952   3.896  16.802  0.00  0.00    +0.000 A 
ATOM      5  C   UNL     1       5.040   4.545  15.562  0.00  0.00    +0.000 A 
ATOM      6  C   UNL     1       5.744   5.739  15.413  0.00  0.00    +0.000 A 
ATOM      7  C   UNL     1       6.420   6.229  16.533  0.00  0.00    +0.000 A 
ATOM      8  N   UNL     1       7.194   7.358  16.669  0.00  0.00    +0.000 N 
ATOM      9  C   UNL     1       7.665   7.454  17.952  0.00  0.00    +0.000 A 
ATOM     10  C   UNL     1       7.188   6.375  18.658  0.00  0.00    +0.000 A 
ATOM     11  C   UNL     1       6.368   5.608  17.781  0.00  0.00    +0.000 A 
ATOM     12  C   UNL     1       5.562   4.460  17.950  0.00  0.00    +0.000 A 
ATOM     13  C   UNL     1       5.263   3.871  19.314  0.00  0.00    +0.000 C 
ATOM     14  H   UNL     1       7.376   8.023  15.932  0.00  0.00    +0.000 HD
ENDROOT
BRANCH   9  15
ATOM     15  C   UNL     1       8.478   8.516  18.417  0.00  0.00    +0.000 C 
ATOM     16  N   UNL     1       9.126   9.404  18.795  0.00  0.00    +0.000 NA
ENDBRANCH   9  15
BRANCH   1  17
ATOM     17  N   UNL     1       2.779   4.330  19.143  0.00  0.00    +0.000 NA
BRANCH  17  18
ATOM     18  C   UNL     1       3.025   5.620  19.821  0.00  0.00    +0.000 C 
BRANCH  18  20
ATOM     19  C   UNL     1       3.139   7.280  17.898  0.00  0.00    +0.000 C 
ATOM     20  C   UNL     1       2.404   6.868  19.171  0.00  0.00    +0.000 C 
ENDBRANCH  18  20
ENDBRANCH  17  18
BRANCH  17  21
ATOM     21  C   UNL     1       1.381   3.895  19.204  0.00  0.00    +0.000 C 
BRANCH  21  22
ATOM     22  C   UNL     1       0.813   3.864  20.633  0.00  0.00    +0.000 C 
ATOM     23  C   UNL     1       1.335   2.693  21.458  0.00  0.00    +0.000 C 
ENDBRANCH  21  22
ENDBRANCH  17  21
ENDBRANCH   1  17
TORSDOF 6
ENDMDL
MODEL 2
REMARK VINA RESULT:      -6.5      2.243      4.127
REMARK  Name = 
REMARK  8 active torsions:
REMARK  status: ('A' for Active; 'I' for Inactive)
REMARK    1  A    between atoms: C_1  and  C_2
REMARK    2  A    between atoms: C_2  and  C_3
REMARK    3  A    between atoms: C_3  and  N_4
REMARK    4  A    between atoms: N_4  and  C_5
REMARK    5  A    between atoms: N_4  and  C_8
REMARK    6  A    between atoms: C_5  and  C_6
REMARK    7  A    between atoms: C_6  and  C_7
REMARK    8  A    between atoms: C_16  and  C_17
REMARK                            x       y       z     vdW  Elec       q    Type
REMARK                         _______ _______ _______ _____ _____    ______ ____
ROOT
ATOM      1  C   UNL     1       1.794   4.727  18.517  0.00  0.00    +0.000 C 
ATOM      2  C   UNL     1       2.164   5.770  19.601  0.00  0.00    +0.000 C 
ATOM      3  C   UNL     1       3.662   5.785  19.941  0.00  0.00    +0.000 C 
ATOM      4  C   UNL     1       4.577   5.355  18.816  0.00  0.00    +0.000 A 
ATOM      5  C   UNL     1       5.924   5.097  19.107  0.00  0.00    +0.000 A 
ATOM      6  C   UNL     1       6.813   4.664  18.124  0.00  0.00    +0.000 A 
ATOM      7  C   UNL     1       6.326   4.566  16.819  0.00  0.00    +0.000 A 
ATOM      8  N   UNL     1       6.971   4.187  15.665  0.00  0.00    +0.000 N 
ATOM      9  C   UNL     1       6.106   4.232  14.604  0.00  0.00    +0.000 A 
ATOM     10  C   UNL     1       4.882   4.643  15.076  0.00  0.00    +0.000 A 
ATOM     11  C   UNL     1       4.996   4.825  16.485  0.00  0.00    +0.000 A 
ATOM     12  C   UNL     1       4.077   5.155  17.506  0.00  0.00    +0.000 A 
ATOM     13  C   UNL     1       2.582   5.216  17.265  0.00  0.00    +0.000 C 
ATOM     14  H   UNL     1       7.939   3.904  15.614  0.00  0.00    +0.000 HD
ENDROOT
BRANCH   9  15
ATOM     15  C   UNL     1       6.462   3.881  13.279  0.00  0.00    +0.000 C 
ATOM     16  N   UNL     1       6.755   3.569  12.198  0.00  0.00    +0.000 NA
ENDBRANCH   9  15
BRANCH   1  17
ATOM     17  N   UNL     1       2.089   3.307  18.853  0.00  0.00    +0.000 NA
BRANCH  17  18
ATOM     18  C   UNL     1       2.657   2.505  17.750  0.00  0.00    +0.000 C 
BRANCH  18  20
ATOM     19  C   UNL     1       4.504   1.808  19.352  0.00  0.00    +0.000 C 
ATOM     20  C   UNL     1       3.661   1.408  18.144  0.00  0.00    +0.000 C 
ENDBRANCH  18  20
ENDBRANCH  17  18
BRANCH  17  21
ATOM     21  C   UNL     1       1.081   2.590  19.640  0.00  0.00    +0.000 C 
BRANCH  21  22
ATOM     22  C   UNL     1       1.071   2.987  21.126  0.00  0.00    +0.000 C 
ATOM     23  C   UNL     1       2.417   2.776  21.810  0.00  0.00    +0.000 C 
ENDBRANCH  21  22
ENDBRANCH  17  21
ENDBRANCH   1  17
TORSDOF 6
ENDMDL
MODEL 3
REMARK VINA RESULT:      -6.2      3.115      5.757
REMARK  Name = 
REMARK  8 active torsions:
REMARK  status: ('A' for Active; 'I' for Inactive)
REMARK    1  A    between atoms: C_1  and  C_2
REMARK    2  A    between atoms: C_2  and  C_3
REMARK    3  A    between atoms: C_3  and  N_4
REMARK    4  A    between atoms: N_4  and  C_5
REMARK    5  A    between atoms: N_4  and  C_8
REMARK    6  A    between atoms: C_5  and  C_6
REMARK    7  A    between atoms: C_6  and  C_7
REMARK    8  A    between atoms: C_16  and  C_17
REMARK                            x       y       z     vdW  Elec       q    Type
REMARK                         _______ _______ _______ _____ _____    ______ ____
ROOT
ATOM      1  C   UNL     1       3.341   4.956  19.303  0.00  0.00    +0.000 C 
ATOM      2  C   UNL     1       4.373   5.443  18.255  0.00  0.00    +0.000 C 
ATOM      3  C   UNL     1       3.881   6.639  17.428  0.00  0.00    +0.000 C 
ATOM      4  C   UNL     1       2.885   7.535  18.131  0.00  0.00    +0.000 A 
ATOM      5  C   UNL     1       2.196   8.495  17.377  0.00  0.00    +0.000 A 
ATOM      6  C   UNL     1       1.239   9.329  17.955  0.00  0.00    +0.000 A 
ATOM      7  C   UNL     1       1.045   9.220  19.334  0.00  0.00    +0.000 A 
ATOM      8  N   UNL     1       0.193   9.915  20.161  0.00  0.00    +0.000 N 
ATOM      9  C   UNL     1       0.330   9.480  21.452  0.00  0.00    +0.000 A 
ATOM     10  C   UNL     1       1.281   8.487  21.464  0.00  0.00    +0.000 A 
ATOM     11  C   UNL     1       1.719   8.286  20.123  0.00  0.00    +0.000 A 
ATOM     12  C   UNL     1       2.604   7.372  19.510  0.00  0.00    +0.000 A 
ATOM     13  C   UNL     1       3.186   6.184  20.250  0.00  0.00    +0.000 C 
ATOM     14  H   UNL     1      -0.448  10.631  19.853  0.00  0.00    +0.000 HD
ENDROOT
BRANCH   9  15
ATOM     15  C   UNL     1      -0.423   9.986  22.539  0.00  0.00    +0.000 C 
ATOM     16  N   UNL     1      -1.060  10.386  23.426  0.00  0.00    +0.000 NA
ENDBRANCH   9  15
BRANCH   1  17
ATOM     17  N   UNL     1       2.035   4.490  18.760  0.00  0.00    +0.000 NA
BRANCH  17  18
ATOM     18  C   UNL     1       1.053   4.056  19.775  0.00  0.00    +0.000 C 
BRANCH  18  20
ATOM     19  C   UNL     1       1.500   2.420  21.669  0.00  0.00    +0.000 C 
ATOM     20  C   UNL     1       1.580   3.873  21.208  0.00  0.00    +0.000 C 
ENDBRANCH  18  20
ENDBRANCH  17  18
BRANCH  17  21
ATOM     21  C   UNL     1       2.080   3.623  17.581  0.00  0.00    +0.000 C 
BRANCH  21  22
ATOM     22  C   UNL     1       2.101   2.124  17.925  0.00  0.00    +0.000 C 
ATOM     23  C   UNL     1       3.495   1.608  18.263  0.00  0.00    +0.000 C 
ENDBRANCH  21  22
ENDBRANCH  17  21
ENDBRANCH   1  17
TORSDOF 6
ENDMDL
MODEL 4
REMARK VINA RESULT:      -6.2      0.643      1.054
REMARK  Name = 
REMARK  8 active torsions:
REMARK  status: ('A' for Active; 'I' for Inactive)
REMARK    1  A    between atoms: C_1  and  C_2
REMARK    2  A    between atoms: C_2  and  C_3
REMARK    3  A    between atoms: C_3  and  N_4
REMARK    4  A    between atoms: N_4  and  C_5
REMARK    5  A    between atoms: N_4  and  C_8
REMARK    6  A    between atoms: C_5  and  C_6
REMARK    7  A    between atoms: C_6  and  C_7
REMARK    8  A    between atoms: C_16  and  C_17
REMARK                            x       y       z     vdW  Elec       q    Type
REMARK                         _______ _______ _______ _____ _____    ______ ____
ROOT
ATOM      1  C   UNL     1       4.086   3.173  19.898  0.00  0.00    +0.000 C 
ATOM      2  C   UNL     1       4.073   1.956  18.941  0.00  0.00    +0.000 C 
ATOM      3  C   UNL     1       4.128   2.350  17.457  0.00  0.00    +0.000 C 
ATOM      4  C   UNL     1       4.829   3.660  17.171  0.00  0.00    +0.000 A 
ATOM      5  C   UNL     1       4.707   4.220  15.891  0.00  0.00    +0.000 A 
ATOM      6  C   UNL     1       5.297   5.442  15.570  0.00  0.00    +0.000 A 
ATOM      7  C   UNL     1       6.077   6.055  16.554  0.00  0.00    +0.000 A 
ATOM      8  N   UNL     1       6.779   7.236  16.512  0.00  0.00    +0.000 N 
ATOM      9  C   UNL     1       7.405   7.456  17.709  0.00  0.00    +0.000 A 
ATOM     10  C   UNL     1       7.103   6.405  18.542  0.00  0.00    +0.000 A 
ATOM     11  C   UNL     1       6.233   5.525  17.836  0.00  0.00    +0.000 A 
ATOM     12  C   UNL     1       5.541   4.344  18.186  0.00  0.00    +0.000 A 
ATOM     13  C   UNL     1       5.466   3.839  19.613  0.00  0.00    +0.000 C 
ATOM     14  H   UNL     1       6.814   7.855  15.715  0.00  0.00    +0.000 HD
ENDROOT
BRANCH   9  15
ATOM     15  C   UNL     1       8.193   8.598  17.991  0.00  0.00    +0.000 C 
ATOM     16  N   UNL     1       8.819   9.548  18.230  0.00  0.00    +0.000 NA
ENDBRANCH   9  15
BRANCH   1  17
ATOM     17  N   UNL     1       2.954   4.128  19.750  0.00  0.00    +0.000 NA
BRANCH  17  18
ATOM     18  C   UNL     1       3.245   5.517  20.163  0.00  0.00    +0.000 C 
BRANCH  18  20
ATOM     19  C   UNL     1       2.835   7.048  18.175  0.00  0.00    +0.000 C 
ATOM     20  C   UNL     1       2.354   6.615  19.558  0.00  0.00    +0.000 C 
ENDBRANCH  18  20
ENDBRANCH  17  18
BRANCH  17  21
ATOM     21  C   UNL     1       1.632   3.658  20.171  0.00  0.00    +0.000 C 
BRANCH  21  22
ATOM     22  C   UNL     1       0.757   3.170  19.004  0.00  0.00    +0.000 C 
ATOM     23  C   UNL     1       1.042   3.903  17.697  0.00  0.00    +0.000 C 
ENDBRANCH  21  22
ENDBRANCH  17  21
ENDBRANCH   1  17
TORSDOF 6
ENDMDL
MODEL 5
REMARK VINA RESULT:      -6.1      2.015      6.001
REMARK  Name = 
REMARK  8 active torsions:
REMARK  status: ('A' for Active; 'I' for Inactive)
REMARK    1  A    between atoms: C_1  and  C_2
REMARK    2  A    between atoms: C_2  and  C_3
REMARK    3  A    between atoms: C_3  and  N_4
REMARK    4  A    between atoms: N_4  and  C_5
REMARK    5  A    between atoms: N_4  and  C_8
REMARK    6  A    between atoms: C_5  and  C_6
REMARK    7  A    between atoms: C_6  and  C_7
REMARK    8  A    between atoms: C_16  and  C_17
REMARK                            x       y       z     vdW  Elec       q    Type
REMARK                         _______ _______ _______ _____ _____    ______ ____
ROOT
ATOM      1  C   UNL     1       6.965   5.041  17.194  0.00  0.00    +0.000 C 
ATOM      2  C   UNL     1       7.251   6.558  17.074  0.00  0.00    +0.000 C 
ATOM      3  C   UNL     1       5.981   7.420  17.116  0.00  0.00    +0.000 C 
ATOM      4  C   UNL     1       4.830   6.824  17.896  0.00  0.00    +0.000 A 
ATOM      5  C   UNL     1       3.563   7.413  17.779  0.00  0.00    +0.000 A 
ATOM      6  C   UNL     1       2.452   6.892  18.442  0.00  0.00    +0.000 A 
ATOM      7  C   UNL     1       2.665   5.800  19.287  0.00  0.00    +0.000 A 
ATOM      8  N   UNL     1       1.771   5.104  20.066  0.00  0.00    +0.000 N 
ATOM      9  C   UNL     1       2.414   4.098  20.737  0.00  0.00    +0.000 A 
ATOM     10  C   UNL     1       3.743   4.140  20.387  0.00  0.00    +0.000 A 
ATOM     11  C   UNL     1       3.911   5.192  19.441  0.00  0.00    +0.000 A 
ATOM     12  C   UNL     1       5.007   5.658  18.680  0.00  0.00    +0.000 A 
ATOM     13  C   UNL     1       6.322   4.909  18.609  0.00  0.00    +0.000 C 
ATOM     14  H   UNL     1       0.782   5.300  20.123  0.00  0.00    +0.000 HD
ENDROOT
BRANCH   9  15
ATOM     15  C   UNL     1       1.766   3.189  21.608  0.00  0.00    +0.000 C 
ATOM     16  N   UNL     1       1.221   2.461  22.333  0.00  0.00    +0.000 NA
ENDBRANCH   9  15
BRANCH   1  17
ATOM     17  N   UNL     1       6.110   4.454  16.126  0.00  0.00    +0.000 NA
BRANCH  17  18
ATOM     18  C   UNL     1       5.278   3.308  16.546  0.00  0.00    +0.000 C 
BRANCH  18  20
ATOM     19  C   UNL     1       2.999   2.463  17.293  0.00  0.00    +0.000 C 
ATOM     20  C   UNL     1       3.753   3.499  16.465  0.00  0.00    +0.000 C 
ENDBRANCH  18  20
ENDBRANCH  17  18
BRANCH  17  21
ATOM     21  C   UNL     1       6.726   4.278  14.808  0.00  0.00    +0.000 C 
BRANCH  21  22
ATOM     22  C   UNL     1       5.715   3.920  13.706  0.00  0.00    +0.000 C 
ATOM     23  C   UNL     1       6.380   3.547  12.385  0.00  0.00    +0.000 C 
ENDBRANCH  21  22
ENDBRANCH  17  21
ENDBRANCH   1  17
TORSDOF 6
ENDMDL
MODEL 6
REMARK VINA RESULT:      -5.8      1.798      5.377
REMARK  Name = 
REMARK  8 active torsions:
REMARK  status: ('A' for Active; 'I' for Inactive)
REMARK    1  A    between atoms: C_1  and  C_2
REMARK    2  A    between atoms: C_2  and  C_3
REMARK    3  A    between atoms: C_3  and  N_4
REMARK    4  A    between atoms: N_4  and  C_5
REMARK    5  A    between atoms: N_4  and  C_8
REMARK    6  A    between atoms: C_5  and  C_6
REMARK    7  A    between atoms: C_6  and  C_7
REMARK    8  A    between atoms: C_16  and  C_17
REMARK                            x       y       z     vdW  Elec       q    Type
REMARK                         _______ _______ _______ _____ _____    ______ ____
ROOT
ATOM      1  C   UNL     1       5.874   6.272  15.791  0.00  0.00    +0.000 C 
ATOM      2  C   UNL     1       5.572   4.890  15.160  0.00  0.00    +0.000 C 
ATOM      3  C   UNL     1       5.046   3.862  16.172  0.00  0.00    +0.000 C 
ATOM      4  C   UNL     1       4.297   4.450  17.348  0.00  0.00    +0.000 A 
ATOM      5  C   UNL     1       4.004   3.620  18.440  0.00  0.00    +0.000 A 
ATOM      6  C   UNL     1       3.349   4.107  19.571  0.00  0.00    +0.000 A 
ATOM      7  C   UNL     1       2.929   5.439  19.544  0.00  0.00    +0.000 A 
ATOM      8  N   UNL     1       2.257   6.169  20.496  0.00  0.00    +0.000 N 
ATOM      9  C   UNL     1       2.050   7.447  20.051  0.00  0.00    +0.000 A 
ATOM     10  C   UNL     1       2.598   7.550  18.794  0.00  0.00    +0.000 A 
ATOM     11  C   UNL     1       3.191   6.295  18.473  0.00  0.00    +0.000 A 
ATOM     12  C   UNL     1       3.952   5.823  17.380  0.00  0.00    +0.000 A 
ATOM     13  C   UNL     1       4.479   6.746  16.300  0.00  0.00    +0.000 C 
ATOM     14  H   UNL     1       1.971   5.813  21.397  0.00  0.00    +0.000 HD
ENDROOT
BRANCH   9  15
ATOM     15  C   UNL     1       1.400   8.452  20.808  0.00  0.00    +0.000 C 
ATOM     16  N   UNL     1       0.865   9.291  21.409  0.00  0.00    +0.000 NA
ENDBRANCH   9  15
BRANCH   1  17
ATOM     17  N   UNL     1       6.903   6.284  16.866  0.00  0.00    +0.000 NA
BRANCH  17  18
ATOM     18  C   UNL     1       7.797   7.461  16.867  0.00  0.00    +0.000 C 
BRANCH  18  20
ATOM     19  C   UNL     1       8.487   9.495  18.227  0.00  0.00    +0.000 C 
ATOM     20  C   UNL     1       7.321   8.686  17.666  0.00  0.00    +0.000 C 
ENDBRANCH  18  20
ENDBRANCH  17  18
BRANCH  17  21
ATOM     21  C   UNL     1       7.597   5.022  17.132  0.00  0.00    +0.000 C 
BRANCH  21  22
ATOM     22  C   UNL     1       7.695   4.683  18.629  0.00  0.00    +0.000 C 
ATOM     23  C   UNL     1       6.932   5.662  19.515  0.00  0.00    +0.000 C 
ENDBRANCH  21  22
ENDBRANCH  17  21
ENDBRANCH   1  17
TORSDOF 6
ENDMDL
MODEL 7
REMARK VINA RESULT:      -5.8      2.324      5.589
REMARK  Name = 
REMARK  8 active torsions:
REMARK  status: ('A' for Active; 'I' for Inactive)
REMARK    1  A    between atoms: C_1  and  C_2
REMARK    2  A    between atoms: C_2  and  C_3
REMARK    3  A    between atoms: C_3  and  N_4
REMARK    4  A    between atoms: N_4  and  C_5
REMARK    5  A    between atoms: N_4  and  C_8
REMARK    6  A    between atoms: C_5  and  C_6
REMARK    7  A    between atoms: C_6  and  C_7
REMARK    8  A    between atoms: C_16  and  C_17
REMARK                            x       y       z     vdW  Elec       q    Type
REMARK                         _______ _______ _______ _____ _____    ______ ____
ROOT
ATOM      1  C   UNL     1       5.992   6.084  16.317  0.00  0.00    +0.000 C 
ATOM      2  C   UNL     1       5.654   4.573  16.301  0.00  0.00    +0.000 C 
ATOM      3  C   UNL     1       4.845   4.118  17.525  0.00  0.00    +0.000 C 
ATOM      4  C   UNL     1       3.971   5.186  18.145  0.00  0.00    +0.000 A 
ATOM      5  C   UNL     1       3.398   4.939  19.400  0.00  0.00    +0.000 A 
ATOM      6  C   UNL     1       2.611   5.894  20.044  0.00  0.00    +0.000 A 
ATOM      7  C   UNL     1       2.355   7.082  19.355  0.00  0.00    +0.000 A 
ATOM      8  N   UNL     1       1.610   8.175  19.733  0.00  0.00    +0.000 N 
ATOM      9  C   UNL     1       1.629   9.123  18.744  0.00  0.00    +0.000 A 
ATOM     10  C   UNL     1       2.399   8.640  17.712  0.00  0.00    +0.000 A 
ATOM     11  C   UNL     1       2.895   7.362  18.099  0.00  0.00    +0.000 A 
ATOM     12  C   UNL     1       3.781   6.435  17.505  0.00  0.00    +0.000 A 
ATOM     13  C   UNL     1       4.590   6.765  16.267  0.00  0.00    +0.000 C 
ATOM     14  H   UNL     1       1.131   8.266  20.617  0.00  0.00    +0.000 HD
ENDROOT
BRANCH   9  15
ATOM     15  C   UNL     1       0.972  10.373  18.837  0.00  0.00    +0.000 C 
ATOM     16  N   UNL     1       0.449  11.408  18.929  0.00  0.00    +0.000 NA
ENDBRANCH   9  15
BRANCH   1  17
ATOM     17  N   UNL     1       6.809   6.555  17.469  0.00  0.00    +0.000 NA
BRANCH  17  18
ATOM     18  C   UNL     1       7.494   7.849  17.266  0.00  0.00    +0.000 C 
BRANCH  18  20
ATOM     19  C   UNL     1       8.698   9.830  18.310  0.00  0.00    +0.000 C 
ATOM     20  C   UNL     1       8.392   8.339  18.415  0.00  0.00    +0.000 C 
ENDBRANCH  18  20
ENDBRANCH  17  18
BRANCH  17  21
ATOM     21  C   UNL     1       7.638   5.554  18.145  0.00  0.00    +0.000 C 
BRANCH  21  22
ATOM     22  C   UNL     1       7.325   5.415  19.645  0.00  0.00    +0.000 C 
ATOM     23  C   UNL     1       8.576   5.272  20.505  0.00  0.00    +0.000 C 
ENDBRANCH  21  22
ENDBRANCH  17  21
ENDBRANCH   1  17
TORSDOF 6
ENDMDL
MODEL 8
REMARK VINA RESULT:      -5.7      0.723      2.148
REMARK  Name = 
REMARK  8 active torsions:
REMARK  status: ('A' for Active; 'I' for Inactive)
REMARK    1  A    between atoms: C_1  and  C_2
REMARK    2  A    between atoms: C_2  and  C_3
REMARK    3  A    between atoms: C_3  and  N_4
REMARK    4  A    between atoms: N_4  and  C_5
REMARK    5  A    between atoms: N_4  and  C_8
REMARK    6  A    between atoms: C_5  and  C_6
REMARK    7  A    between atoms: C_6  and  C_7
REMARK    8  A    between atoms: C_16  and  C_17
REMARK                            x       y       z     vdW  Elec       q    Type
REMARK                         _______ _______ _______ _____ _____    ______ ____
ROOT
ATOM      1  C   UNL     1       3.926   3.105  19.561  0.00  0.00    +0.000 C 
ATOM      2  C   UNL     1       3.890   1.994  18.481  0.00  0.00    +0.000 C 
ATOM      3  C   UNL     1       4.032   2.534  17.051  0.00  0.00    +0.000 C 
ATOM      4  C   UNL     1       4.814   3.823  16.929  0.00  0.00    +0.000 A 
ATOM      5  C   UNL     1       4.779   4.517  15.711  0.00  0.00    +0.000 A 
ATOM      6  C   UNL     1       5.448   5.729  15.542  0.00  0.00    +0.000 A 
ATOM      7  C   UNL     1       6.215   6.192  16.615  0.00  0.00    +0.000 A 
ATOM      8  N   UNL     1       6.981   7.329  16.723  0.00  0.00    +0.000 N 
ATOM      9  C   UNL     1       7.564   7.389  17.960  0.00  0.00    +0.000 A 
ATOM     10  C   UNL     1       7.170   6.277  18.667  0.00  0.00    +0.000 A 
ATOM     11  C   UNL     1       6.285   5.526  17.839  0.00  0.00    +0.000 A 
ATOM     12  C   UNL     1       5.516   4.357  18.037  0.00  0.00    +0.000 A 
ATOM     13  C   UNL     1       5.351   3.715  19.400  0.00  0.00    +0.000 C 
ATOM     14  H   UNL     1       7.084   8.023  15.997  0.00  0.00    +0.000 HD
ENDROOT
BRANCH   9  15
ATOM     15  C   UNL     1       8.399   8.449  18.389  0.00  0.00    +0.000 C 
ATOM     16  N   UNL     1       9.067   9.336  18.735  0.00  0.00    +0.000 NA
ENDBRANCH   9  15
BRANCH   1  17
ATOM     17  N   UNL     1       2.854   4.134  19.469  0.00  0.00    +0.000 NA
BRANCH  17  18
ATOM     18  C   UNL     1       2.309   4.590  20.765  0.00  0.00    +0.000 C 
BRANCH  18  20
ATOM     19  C   UNL     1       1.231   2.500  21.731  0.00  0.00    +0.000 C 
ATOM     20  C   UNL     1       2.311   3.564  21.911  0.00  0.00    +0.000 C 
ENDBRANCH  18  20
ENDBRANCH  17  18
BRANCH  17  21
ATOM     21  C   UNL     1       1.830   3.934  18.442  0.00  0.00    +0.000 C 
BRANCH  21  22
ATOM     22  C   UNL     1       1.472   5.220  17.678  0.00  0.00    +0.000 C 
ATOM     23  C   UNL     1       2.418   6.377  17.979  0.00  0.00    +0.000 C 
ENDBRANCH  21  22
ENDBRANCH  17  21
ENDBRANCH   1  17
TORSDOF 6
ENDMDL
MODEL 9
REMARK VINA RESULT:      -5.6      0.482      2.348
REMARK  Name = 
REMARK  8 active torsions:
REMARK  status: ('A' for Active; 'I' for Inactive)
REMARK    1  A    between atoms: C_1  and  C_2
REMARK    2  A    between atoms: C_2  and  C_3
REMARK    3  A    between atoms: C_3  and  N_4
REMARK    4  A    between atoms: N_4  and  C_5
REMARK    5  A    between atoms: N_4  and  C_8
REMARK    6  A    between atoms: C_5  and  C_6
REMARK    7  A    between atoms: C_6  and  C_7
REMARK    8  A    between atoms: C_16  and  C_17
REMARK                            x       y       z     vdW  Elec       q    Type
REMARK                         _______ _______ _______ _____ _____    ______ ____
ROOT
ATOM      1  C   UNL     1       4.043   3.262  19.739  0.00  0.00    +0.000 C 
ATOM      2  C   UNL     1       3.989   2.115  18.699  0.00  0.00    +0.000 C 
ATOM      3  C   UNL     1       4.067   2.609  17.247  0.00  0.00    +0.000 C 
ATOM      4  C   UNL     1       4.819   3.908  17.054  0.00  0.00    +0.000 A 
ATOM      5  C   UNL     1       4.726   4.560  15.816  0.00  0.00    +0.000 A 
ATOM      6  C   UNL     1       5.363   5.778  15.583  0.00  0.00    +0.000 A 
ATOM      7  C   UNL     1       6.160   6.290  16.610  0.00  0.00    +0.000 A 
ATOM      8  N   UNL     1       6.907   7.445  16.652  0.00  0.00    +0.000 N 
ATOM      9  C   UNL     1       7.534   7.557  17.864  0.00  0.00    +0.000 A 
ATOM     10  C   UNL     1       7.188   6.462  18.620  0.00  0.00    +0.000 A 
ATOM     11  C   UNL     1       6.289   5.667  17.852  0.00  0.00    +0.000 A 
ATOM     12  C   UNL     1       5.551   4.492  18.116  0.00  0.00    +0.000 A 
ATOM     13  C   UNL     1       5.449   3.893  19.505  0.00  0.00    +0.000 C 
ATOM     14  H   UNL     1       6.970   8.116  15.900  0.00  0.00    +0.000 HD
ENDROOT
BRANCH   9  15
ATOM     15  C   UNL     1       8.363   8.645  18.226  0.00  0.00    +0.000 C 
ATOM     16  N   UNL     1       9.035   9.553  18.505  0.00  0.00    +0.000 NA
ENDBRANCH   9  15
BRANCH   1  17
ATOM     17  N   UNL     1       2.949   4.267  19.655  0.00  0.00    +0.000 NA
BRANCH  17  18
ATOM     18  C   UNL     1       1.754   3.834  18.901  0.00  0.00    +0.000 C 
BRANCH  18  20
ATOM     19  C   UNL     1       1.030   2.906  21.154  0.00  0.00    +0.000 C 
ATOM     20  C   UNL     1       0.751   2.945  19.654  0.00  0.00    +0.000 C 
ENDBRANCH  18  20
ENDBRANCH  17  18
BRANCH  17  21
ATOM     21  C   UNL     1       3.342   5.652  19.382  0.00  0.00    +0.000 C 
BRANCH  21  22
ATOM     22  C   UNL     1       2.439   6.352  18.353  0.00  0.00    +0.000 C 
ATOM     23  C   UNL     1       2.973   7.713  17.918  0.00  0.00    +0.000 C 
ENDBRANCH  21  22
ENDBRANCH  17  21
ENDBRANCH   1  17
TORSDOF 6
ENDMDL
