MODEL 1
REMARK VINA RESULT:      -6.7      0.000      0.000
REMARK  Name = 
REMARK  16 active torsions:
REMARK  status: ('A' for Active; 'I' for Inactive)
REMARK    1  A    between atoms: C_1  and  O_2
REMARK    2  A    between atoms: O_2  and  C_3
REMARK    3  A    between atoms: C_5  and  O_6
REMARK    4  A    between atoms: O_6  and  C_7
REMARK    5  A    between atoms: C_7  and  C_8
REMARK    6  A    between atoms: C_8  and  C_9
REMARK    7  A    between atoms: C_9  and  O_10
REMARK    8  A    between atoms: O_10  and  N_11
REMARK    9  A    between atoms: C_12  and  N_14
REMARK   10  A    between atoms: N_17  and  C_18
REMARK   11  A    between atoms: C_18  and  C_19
REMARK   12  A    between atoms: C_18  and  C_20
REMARK   13  A    between atoms: C_22  and  O_23
REMARK   14  A    between atoms: O_23  and  C_24
REMARK   15  A    between atoms: C_25  and  O_26
REMARK   16  A    between atoms: O_26  and  C_27
REMARK                            x       y       z     vdW  Elec       q    Type
REMARK                         _______ _______ _______ _____ _____    ______ ____
ROOT
ATOM      1  C   UNL     1       0.496   9.880  19.794  0.00  0.00    +0.000 C 
ENDROOT
BRANCH   1   2
ATOM      2  C   UNL     1       1.686   8.953  19.480  0.00  0.00    +0.000 C 
BRANCH   2   3
ATOM      3  C   UNL     1       1.797   8.748  17.947  0.00  0.00    +0.000 C 
BRANCH   3   4
ATOM      4  O   UNL     1       2.930   8.063  17.519  0.00  0.00    +0.000 OA
BRANCH   4   7
ATOM      5  C   UNL     1       2.509   4.529  18.528  0.00  0.00    +0.000 A 
ATOM      6  C   UNL     1       2.215   5.867  18.163  0.00  0.00    +0.000 A 
ATOM      7  C   UNL     1       3.242   6.773  17.846  0.00  0.00    +0.000 A 
ATOM      8  C   UNL     1       4.565   6.330  17.894  0.00  0.00    +0.000 A 
ATOM      9  C   UNL     1       4.893   5.023  18.217  0.00  0.00    +0.000 A 
ATOM     10  C   UNL     1       3.868   4.095  18.546  0.00  0.00    +0.000 A 
BRANCH   5  12
ATOM     11  C   UNL     1       0.873   3.532  20.069  0.00  0.00    +0.000 C 
ATOM     12  O   UNL     1       1.520   3.646  18.852  0.00  0.00    +0.000 OA
ENDBRANCH   5  12
BRANCH   9  13
ATOM     13  O   UNL     1       6.221   4.720  18.191  0.00  0.00    +0.000 OA
ATOM     14  C   UNL     1       7.083   4.711  17.117  0.00  0.00    +0.000 C 
ENDBRANCH   9  13
BRANCH  10  15
ATOM     15  O   UNL     1       4.264   2.840  18.878  0.00  0.00    +0.000 OA
ATOM     16  C   UNL     1       4.441   2.241  20.104  0.00  0.00    +0.000 C 
ENDBRANCH  10  15
ENDBRANCH   4   7
ENDBRANCH   3   4
ENDBRANCH   2   3
ENDBRANCH   1   2
BRANCH   1  17
ATOM     17  O   UNL     1      -0.056  10.303  18.602  0.00  0.00    +0.000 OA
BRANCH  17  18
ATOM     18  N   UNL     1      -1.355  10.386  18.378  0.00  0.00    +0.000 NA
ATOM     19  C   UNL     1      -1.867  11.480  17.917  0.00  0.00    +0.000 C 
ATOM     20  N   UNL     1      -1.022  12.589  17.632  0.00  0.00    +0.000 N 
ATOM     21  H   UNL     1      -0.001  12.547  17.777  0.00  0.00    +0.000 HD
ATOM     22  H   UNL     1      -1.421  13.454  17.243  0.00  0.00    +0.000 HD
BRANCH  19  23
ATOM     23  N   UNL     1      -3.268  11.627  17.642  0.00  0.00    +0.000 NA
ATOM     24  C   UNL     1      -4.007  11.153  16.683  0.00  0.00    +0.000 C 
ATOM     25  N   UNL     1      -3.505  10.277  15.677  0.00  0.00    +0.000 N 
ATOM     26  N   UNL     1      -5.387  11.526  16.608  0.00  0.00    +0.000 N 
ATOM     27  H   UNL     1      -2.591   9.819  15.730  0.00  0.00    +0.000 HD
ATOM     28  H   UNL     1      -4.132   9.966  14.923  0.00  0.00    +0.000 HD
ATOM     29  H   UNL     1      -5.895  11.342  15.729  0.00  0.00    +0.000 HD
BRANCH  26  30
ATOM     30  C   UNL     1      -6.151  12.023  17.743  0.00  0.00    +0.000 C 
ATOM     31  C   UNL     1      -7.214  13.030  17.298  0.00  0.00    +0.000 C 
ATOM     32  C   UNL     1      -6.815  10.828  18.436  0.00  0.00    +0.000 C 
ENDBRANCH  26  30
ENDBRANCH  19  23
ENDBRANCH  17  18
ENDBRANCH   1  17
TORSDOF 11
ENDMDL
MODEL 2
REMARK VINA RESULT:      -6.6      1.028      1.090
REMARK  Name = 
REMARK  16 active torsions:
REMARK  status: ('A' for Active; 'I' for Inactive)
REMARK    1  A    between atoms: C_1  and  O_2
REMARK    2  A    between atoms: O_2  and  C_3
REMARK    3  A    between atoms: C_5  and  O_6
REMARK    4  A    between atoms: O_6  and  C_7
REMARK    5  A    between atoms: C_7  and  C_8
REMARK    6  A    between atoms: C_8  and  C_9
REMARK    7  A    between atoms: C_9  and  O_10
REMARK    8  A    between atoms: O_10  and  N_11
REMARK    9  A    between atoms: C_12  and  N_14
REMARK   10  A    between atoms: N_17  and  C_18
REMARK   11  A    between atoms: C_18  and  C_19
REMARK   12  A    between atoms: C_18  and  C_20
REMARK   13  A    between atoms: C_22  and  O_23
REMARK   14  A    between atoms: O_23  and  C_24
REMARK   15  A    between atoms: C_25  and  O_26
REMARK   16  A    between atoms: O_26  and  C_27
REMARK                            x       y       z     vdW  Elec       q    Type
REMARK                         _______ _______ _______ _____ _____    ______ ____
ROOT
ATOM      1  C   UNL     1       0.652   9.407  18.630  0.00  0.00    +0.000 C 
ENDROOT
BRANCH   1   2
ATOM      2  C   UNL     1       1.869   9.529  17.692  0.00  0.00    +0.000 C 
BRANCH   2   3
ATOM      3  C   UNL     1       2.827   8.332  17.925  0.00  0.00    +0.000 C 
BRANCH   3   4
ATOM      4  O   UNL     1       2.412   7.415  18.886  0.00  0.00    +0.000 OA
BRANCH   4   7
ATOM      5  C   UNL     1       2.685   3.829  19.754  0.00  0.00    +0.000 A 
ATOM      6  C   UNL     1       2.143   5.118  19.520  0.00  0.00    +0.000 A 
ATOM      7  C   UNL     1       2.957   6.177  19.081  0.00  0.00    +0.000 A 
ATOM      8  C   UNL     1       4.317   5.937  18.876  0.00  0.00    +0.000 A 
ATOM      9  C   UNL     1       4.880   4.685  19.064  0.00  0.00    +0.000 A 
ATOM     10  C   UNL     1       4.072   3.604  19.513  0.00  0.00    +0.000 A 
BRANCH   5  12
ATOM     11  C   UNL     1       1.385   2.634  21.465  0.00  0.00    +0.000 C 
ATOM     12  O   UNL     1       1.905   2.799  20.194  0.00  0.00    +0.000 OA
ENDBRANCH   5  12
BRANCH   9  13
ATOM     13  O   UNL     1       6.211   4.585  18.793  0.00  0.00    +0.000 OA
ATOM     14  C   UNL     1       7.147   5.589  18.683  0.00  0.00    +0.000 C 
ENDBRANCH   9  13
BRANCH  10  15
ATOM     15  O   UNL     1       4.697   2.413  19.701  0.00  0.00    +0.000 OA
ATOM     16  C   UNL     1       4.899   1.666  20.839  0.00  0.00    +0.000 C 
ENDBRANCH  10  15
ENDBRANCH   4   7
ENDBRANCH   3   4
ENDBRANCH   2   3
ENDBRANCH   1   2
BRANCH   1  17
ATOM     17  O   UNL     1      -0.068  10.583  18.569  0.00  0.00    +0.000 OA
BRANCH  17  18
ATOM     18  N   UNL     1      -1.385  10.640  18.500  0.00  0.00    +0.000 NA
ATOM     19  C   UNL     1      -1.963  11.615  17.878  0.00  0.00    +0.000 C 
ATOM     20  N   UNL     1      -1.172  12.616  17.247  0.00  0.00    +0.000 N 
ATOM     21  H   UNL     1      -0.141  12.587  17.265  0.00  0.00    +0.000 HD
ATOM     22  H   UNL     1      -1.626  13.381  16.730  0.00  0.00    +0.000 HD
BRANCH  19  23
ATOM     23  N   UNL     1      -3.389  11.725  17.759  0.00  0.00    +0.000 NA
ATOM     24  C   UNL     1      -4.194  11.419  16.785  0.00  0.00    +0.000 C 
ATOM     25  N   UNL     1      -3.750  10.814  15.573  0.00  0.00    +0.000 N 
ATOM     26  N   UNL     1      -5.590  11.708  16.908  0.00  0.00    +0.000 N 
ATOM     27  H   UNL     1      -2.816  10.416  15.448  0.00  0.00    +0.000 HD
ATOM     28  H   UNL     1      -4.431  10.630  14.824  0.00  0.00    +0.000 HD
ATOM     29  H   UNL     1      -6.171  11.684  16.056  0.00  0.00    +0.000 HD
BRANCH  26  30
ATOM     30  C   UNL     1      -6.264  11.899  18.184  0.00  0.00    +0.000 C 
ATOM     31  C   UNL     1      -7.481  12.816  18.037  0.00  0.00    +0.000 C 
ATOM     32  C   UNL     1      -6.700  10.527  18.709  0.00  0.00    +0.000 C 
ENDBRANCH  26  30
ENDBRANCH  19  23
ENDBRANCH  17  18
ENDBRANCH   1  17
TORSDOF 11
ENDMDL
MODEL 3
REMARK VINA RESULT:      -6.5      1.339      1.528
REMARK  Name = 
REMARK  16 active torsions:
REMARK  status: ('A' for Active; 'I' for Inactive)
REMARK    1  A    between atoms: C_1  and  O_2
REMARK    2  A    between atoms: O_2  and  C_3
REMARK    3  A    between atoms: C_5  and  O_6
REMARK    4  A    between atoms: O_6  and  C_7
REMARK    5  A    between atoms: C_7  and  C_8
REMARK    6  A    between atoms: C_8  and  C_9
REMARK    7  A    between atoms: C_9  and  O_10
REMARK    8  A    between atoms: O_10  and  N_11
REMARK    9  A    between atoms: C_12  and  N_14
REMARK   10  A    between atoms: N_17  and  C_18
REMARK   11  A    between atoms: C_18  and  C_19
REMARK   12  A    between atoms: C_18  and  C_20
REMARK   13  A    between atoms: C_22  and  O_23
REMARK   14  A    between atoms: O_23  and  C_24
REMARK   15  A    between atoms: C_25  and  O_26
REMARK   16  A    between atoms: O_26  and  C_27
REMARK                            x       y       z     vdW  Elec       q    Type
REMARK                         _______ _______ _______ _____ _____    ______ ____
ROOT
ATOM      1  C   UNL     1       1.246  10.267  19.423  0.00  0.00    +0.000 C 
ENDROOT
BRANCH   1   2
ATOM      2  C   UNL     1       0.361   9.639  20.518  0.00  0.00    +0.000 C 
BRANCH   2   3
ATOM      3  C   UNL     1       0.828   8.186  20.794  0.00  0.00    +0.000 C 
BRANCH   3   4
ATOM      4  O   UNL     1       2.016   7.814  20.172  0.00  0.00    +0.000 OA
BRANCH   4   7
ATOM      5  C   UNL     1       2.045   4.114  20.218  0.00  0.00    +0.000 A 
ATOM      6  C   UNL     1       1.650   5.459  20.437  0.00  0.00    +0.000 A 
ATOM      7  C   UNL     1       2.407   6.528  19.926  0.00  0.00    +0.000 A 
ATOM      8  C   UNL     1       3.561   6.242  19.193  0.00  0.00    +0.000 A 
ATOM      9  C   UNL     1       3.964   4.942  18.931  0.00  0.00    +0.000 A 
ATOM     10  C   UNL     1       3.213   3.850  19.445  0.00  0.00    +0.000 A 
BRANCH   5  12
ATOM     11  C   UNL     1       1.507   2.446  21.943  0.00  0.00    +0.000 C 
ATOM     12  O   UNL     1       1.324   3.070  20.722  0.00  0.00    +0.000 OA
ENDBRANCH   5  12
BRANCH   9  13
ATOM     13  O   UNL     1       5.088   4.810  18.174  0.00  0.00    +0.000 OA
ATOM     14  C   UNL     1       6.310   5.425  18.330  0.00  0.00    +0.000 C 
ENDBRANCH   9  13
BRANCH  10  15
ATOM     15  O   UNL     1       3.682   2.605  19.172  0.00  0.00    +0.000 OA
ATOM     16  C   UNL     1       3.367   1.718  18.168  0.00  0.00    +0.000 C 
ENDBRANCH  10  15
ENDBRANCH   4   7
ENDBRANCH   3   4
ENDBRANCH   2   3
ENDBRANCH   1   2
BRANCH   1  17
ATOM     17  O   UNL     1       0.454  11.069  18.627  0.00  0.00    +0.000 OA
BRANCH  17  18
ATOM     18  N   UNL     1      -0.843  10.892  18.458  0.00  0.00    +0.000 NA
ATOM     19  C   UNL     1      -1.574  11.846  17.983  0.00  0.00    +0.000 C 
ATOM     20  N   UNL     1      -0.971  13.083  17.621  0.00  0.00    +0.000 N 
ATOM     21  H   UNL     1       0.043  13.245  17.722  0.00  0.00    +0.000 HD
ATOM     22  H   UNL     1      -1.545  13.838  17.220  0.00  0.00    +0.000 HD
BRANCH  19  23
ATOM     23  N   UNL     1      -2.987  11.709  17.765  0.00  0.00    +0.000 NA
ATOM     24  C   UNL     1      -3.660  10.921  16.979  0.00  0.00    +0.000 C 
ATOM     25  N   UNL     1      -3.045   9.929  16.163  0.00  0.00    +0.000 N 
ATOM     26  N   UNL     1      -5.084  11.051  16.905  0.00  0.00    +0.000 N 
ATOM     27  H   UNL     1      -2.067   9.641  16.262  0.00  0.00    +0.000 HD
ATOM     28  H   UNL     1      -3.629   9.361  15.535  0.00  0.00    +0.000 HD
ATOM     29  H   UNL     1      -5.575  10.597  16.120  0.00  0.00    +0.000 HD
BRANCH  26  30
ATOM     30  C   UNL     1      -5.892  11.668  17.946  0.00  0.00    +0.000 C 
ATOM     31  C   UNL     1      -6.802  12.756  17.370  0.00  0.00    +0.000 C 
ATOM     32  C   UNL     1      -6.735  10.576  18.613  0.00  0.00    +0.000 C 
ENDBRANCH  26  30
ENDBRANCH  19  23
ENDBRANCH  17  18
ENDBRANCH   1  17
TORSDOF 11
ENDMDL
MODEL 4
REMARK VINA RESULT:      -6.4      2.906      5.310
REMARK  Name = 
REMARK  16 active torsions:
REMARK  status: ('A' for Active; 'I' for Inactive)
REMARK    1  A    between atoms: C_1  and  O_2
REMARK    2  A    between atoms: O_2  and  C_3
REMARK    3  A    between atoms: C_5  and  O_6
REMARK    4  A    between atoms: O_6  and  C_7
REMARK    5  A    between atoms: C_7  and  C_8
REMARK    6  A    between atoms: C_8  and  C_9
REMARK    7  A    between atoms: C_9  and  O_10
REMARK    8  A    between atoms: O_10  and  N_11
REMARK    9  A    between atoms: C_12  and  N_14
REMARK   10  A    between atoms: N_17  and  C_18
REMARK   11  A    between atoms: C_18  and  C_19
REMARK   12  A    between atoms: C_18  and  C_20
REMARK   13  A    between atoms: C_22  and  O_23
REMARK   14  A    between atoms: O_23  and  C_24
REMARK   15  A    between atoms: C_25  and  O_26
REMARK   16  A    between atoms: O_26  and  C_27
REMARK                            x       y       z     vdW  Elec       q    Type
REMARK                         _______ _______ _______ _____ _____    ______ ____
ROOT
ATOM      1  C   UNL     1       2.510   5.234  20.181  0.00  0.00    +0.000 C 
ENDROOT
BRANCH   1   2
ATOM      2  C   UNL     1       1.948   4.422  18.997  0.00  0.00    +0.000 C 
BRANCH   2   3
ATOM      3  C   UNL     1       2.711   4.796  17.700  0.00  0.00    +0.000 C 
BRANCH   3   4
ATOM      4  O   UNL     1       3.804   3.989  17.398  0.00  0.00    +0.000 OA
BRANCH   4   7
ATOM      5  C   UNL     1       6.150   4.020  14.538  0.00  0.00    +0.000 A 
ATOM      6  C   UNL     1       5.057   3.685  15.377  0.00  0.00    +0.000 A 
ATOM      7  C   UNL     1       4.852   4.349  16.599  0.00  0.00    +0.000 A 
ATOM      8  C   UNL     1       5.747   5.353  16.974  0.00  0.00    +0.000 A 
ATOM      9  C   UNL     1       6.809   5.731  16.170  0.00  0.00    +0.000 A 
ATOM     10  C   UNL     1       7.034   5.066  14.933  0.00  0.00    +0.000 A 
BRANCH   5  12
ATOM     11  C   UNL     1       5.507   3.309  12.273  0.00  0.00    +0.000 C 
ATOM     12  O   UNL     1       6.365   3.371  13.356  0.00  0.00    +0.000 OA
ENDBRANCH   5  12
BRANCH   9  13
ATOM     13  O   UNL     1       7.581   6.749  16.644  0.00  0.00    +0.000 OA
ATOM     14  C   UNL     1       7.775   7.149  17.947  0.00  0.00    +0.000 C 
ENDBRANCH   9  13
BRANCH  10  15
ATOM     15  O   UNL     1       8.110   5.471  14.209  0.00  0.00    +0.000 OA
ATOM     16  C   UNL     1       8.248   5.746  12.868  0.00  0.00    +0.000 C 
ENDBRANCH  10  15
ENDBRANCH   4   7
ENDBRANCH   3   4
ENDBRANCH   2   3
ENDBRANCH   1   2
BRANCH   1  17
ATOM     17  O   UNL     1       2.941   6.457  19.708  0.00  0.00    +0.000 OA
BRANCH  17  18
ATOM     18  N   UNL     1       2.137   7.388  19.229  0.00  0.00    +0.000 NA
ATOM     19  C   UNL     1       1.592   8.249  20.024  0.00  0.00    +0.000 C 
ATOM     20  N   UNL     1       1.879   8.203  21.417  0.00  0.00    +0.000 N 
ATOM     21  H   UNL     1       2.519   7.500  21.818  0.00  0.00    +0.000 HD
ATOM     22  H   UNL     1       1.466   8.900  22.052  0.00  0.00    +0.000 HD
BRANCH  19  23
ATOM     23  N   UNL     1       0.720   9.292  19.562  0.00  0.00    +0.000 NA
ATOM     24  C   UNL     1       0.876  10.193  18.638  0.00  0.00    +0.000 C 
ATOM     25  N   UNL     1       2.036  10.265  17.813  0.00  0.00    +0.000 N 
ATOM     26  N   UNL     1      -0.145  11.175  18.433  0.00  0.00    +0.000 N 
ATOM     27  H   UNL     1       2.740   9.524  17.760  0.00  0.00    +0.000 HD
ATOM     28  H   UNL     1       2.117  11.024  17.124  0.00  0.00    +0.000 HD
ATOM     29  H   UNL     1       0.088  12.011  17.875  0.00  0.00    +0.000 HD
BRANCH  26  30
ATOM     30  C   UNL     1      -1.528  10.998  18.848  0.00  0.00    +0.000 C 
ATOM     31  C   UNL     1      -2.108  12.297  19.415  0.00  0.00    +0.000 C 
ATOM     32  C   UNL     1      -2.343  10.546  17.631  0.00  0.00    +0.000 C 
ENDBRANCH  26  30
ENDBRANCH  19  23
ENDBRANCH  17  18
ENDBRANCH   1  17
TORSDOF 11
ENDMDL
MODEL 5
REMARK VINA RESULT:      -6.4      7.201     10.443
REMARK  Name = 
REMARK  16 active torsions:
REMARK  status: ('A' for Active; 'I' for Inactive)
REMARK    1  A    between atoms: C_1  and  O_2
REMARK    2  A    between atoms: O_2  and  C_3
REMARK    3  A    between atoms: C_5  and  O_6
REMARK    4  A    between atoms: O_6  and  C_7
REMARK    5  A    between atoms: C_7  and  C_8
REMARK    6  A    between atoms: C_8  and  C_9
REMARK    7  A    between atoms: C_9  and  O_10
REMARK    8  A    between atoms: O_10  and  N_11
REMARK    9  A    between atoms: C_12  and  N_14
REMARK   10  A    between atoms: N_17  and  C_18
REMARK   11  A    between atoms: C_18  and  C_19
REMARK   12  A    between atoms: C_18  and  C_20
REMARK   13  A    between atoms: C_22  and  O_23
REMARK   14  A    between atoms: O_23  and  C_24
REMARK   15  A    between atoms: C_25  and  O_26
REMARK   16  A    between atoms: O_26  and  C_27
REMARK                            x       y       z     vdW  Elec       q    Type
REMARK                         _______ _______ _______ _____ _____    ______ ____
ROOT
ATOM      1  C   UNL     1       6.637   7.887  17.243  0.00  0.00    +0.000 C 
ENDROOT
BRANCH   1   2
ATOM      2  C   UNL     1       7.875   7.260  17.916  0.00  0.00    +0.000 C 
BRANCH   2   3
ATOM      3  C   UNL     1       8.613   8.337  18.754  0.00  0.00    +0.000 C 
BRANCH   3   4
ATOM      4  O   UNL     1       8.784   9.567  18.125  0.00  0.00    +0.000 OA
BRANCH   4   7
ATOM      5  C   UNL     1      10.904  12.585  18.404  0.00  0.00    +0.000 A 
ATOM      6  C   UNL     1      10.221  11.468  17.861  0.00  0.00    +0.000 A 
ATOM      7  C   UNL     1       9.412  10.650  18.671  0.00  0.00    +0.000 A 
ATOM      8  C   UNL     1       9.291  10.960  20.026  0.00  0.00    +0.000 A 
ATOM      9  C   UNL     1       9.917  12.060  20.590  0.00  0.00    +0.000 A 
ATOM     10  C   UNL     1      10.743  12.894  19.787  0.00  0.00    +0.000 A 
BRANCH   5  12
ATOM     11  C   UNL     1      11.322  14.501  16.919  0.00  0.00    +0.000 C 
ATOM     12  O   UNL     1      11.703  13.376  17.629  0.00  0.00    +0.000 OA
ENDBRANCH   5  12
BRANCH   9  13
ATOM     13  O   UNL     1       9.683  12.263  21.916  0.00  0.00    +0.000 OA
ATOM     14  C   UNL     1       8.637  12.929  22.515  0.00  0.00    +0.000 C 
ENDBRANCH   9  13
BRANCH  10  15
ATOM     15  O   UNL     1      11.346  13.938  20.411  0.00  0.00    +0.000 OA
ATOM     16  C   UNL     1      10.955  15.248  20.570  0.00  0.00    +0.000 C 
ENDBRANCH  10  15
ENDBRANCH   4   7
ENDBRANCH   3   4
ENDBRANCH   2   3
ENDBRANCH   1   2
BRANCH   1  17
ATOM     17  O   UNL     1       5.931   6.886  16.608  0.00  0.00    +0.000 OA
BRANCH  17  18
ATOM     18  N   UNL     1       5.388   5.856  17.231  0.00  0.00    +0.000 NA
ATOM     19  C   UNL     1       4.222   5.968  17.778  0.00  0.00    +0.000 C 
ATOM     20  N   UNL     1       3.515   7.200  17.688  0.00  0.00    +0.000 N 
ATOM     21  H   UNL     1       3.904   8.016  17.190  0.00  0.00    +0.000 HD
ATOM     22  H   UNL     1       2.577   7.287  18.102  0.00  0.00    +0.000 HD
BRANCH  19  23
ATOM     23  N   UNL     1       3.574   4.881  18.457  0.00  0.00    +0.000 NA
ATOM     24  C   UNL     1       4.055   3.804  19.003  0.00  0.00    +0.000 C 
ATOM     25  N   UNL     1       5.451   3.525  19.070  0.00  0.00    +0.000 N 
ATOM     26  N   UNL     1       3.158   2.835  19.556  0.00  0.00    +0.000 N 
ATOM     27  H   UNL     1       6.177   4.215  18.862  0.00  0.00    +0.000 HD
ATOM     28  H   UNL     1       5.767   2.636  19.482  0.00  0.00    +0.000 HD
ATOM     29  H   UNL     1       3.526   1.894  19.767  0.00  0.00    +0.000 HD
BRANCH  26  30
ATOM     30  C   UNL     1       1.795   3.139  19.965  0.00  0.00    +0.000 C 
ATOM     31  C   UNL     1       0.775   2.455  19.051  0.00  0.00    +0.000 C 
ATOM     32  C   UNL     1       1.609   2.663  21.410  0.00  0.00    +0.000 C 
ENDBRANCH  26  30
ENDBRANCH  19  23
ENDBRANCH  17  18
ENDBRANCH   1  17
TORSDOF 11
ENDMDL
MODEL 6
REMARK VINA RESULT:      -6.4      5.560      9.707
REMARK  Name = 
REMARK  16 active torsions:
REMARK  status: ('A' for Active; 'I' for Inactive)
REMARK    1  A    between atoms: C_1  and  O_2
REMARK    2  A    between atoms: O_2  and  C_3
REMARK    3  A    between atoms: C_5  and  O_6
REMARK    4  A    between atoms: O_6  and  C_7
REMARK    5  A    between atoms: C_7  and  C_8
REMARK    6  A    between atoms: C_8  and  C_9
REMARK    7  A    between atoms: C_9  and  O_10
REMARK    8  A    between atoms: O_10  and  N_11
REMARK    9  A    between atoms: C_12  and  N_14
REMARK   10  A    between atoms: N_17  and  C_18
REMARK   11  A    between atoms: C_18  and  C_19
REMARK   12  A    between atoms: C_18  and  C_20
REMARK   13  A    between atoms: C_22  and  O_23
REMARK   14  A    between atoms: O_23  and  C_24
REMARK   15  A    between atoms: C_25  and  O_26
REMARK   16  A    between atoms: O_26  and  C_27
REMARK                            x       y       z     vdW  Elec       q    Type
REMARK                         _______ _______ _______ _____ _____    ______ ____
ROOT
ATOM      1  C   UNL     1       2.464   3.231  19.890  0.00  0.00    +0.000 C 
ENDROOT
BRANCH   1   2
ATOM      2  C   UNL     1       1.683   4.451  19.366  0.00  0.00    +0.000 C 
BRANCH   2   3
ATOM      3  C   UNL     1       1.773   5.608  20.395  0.00  0.00    +0.000 C 
BRANCH   3   4
ATOM      4  O   UNL     1       2.323   6.792  19.913  0.00  0.00    +0.000 OA
BRANCH   4   7
ATOM      5  C   UNL     1       0.830   9.659  21.713  0.00  0.00    +0.000 A 
ATOM      6  C   UNL     1       1.366   8.375  21.438  0.00  0.00    +0.000 A 
ATOM      7  C   UNL     1       1.832   8.045  20.154  0.00  0.00    +0.000 A 
ATOM      8  C   UNL     1       1.762   9.009  19.147  0.00  0.00    +0.000 A 
ATOM      9  C   UNL     1       1.273  10.284  19.381  0.00  0.00    +0.000 A 
ATOM     10  C   UNL     1       0.792  10.634  20.672  0.00  0.00    +0.000 A 
BRANCH   5  12
ATOM     11  C   UNL     1      -0.953  10.234  23.306  0.00  0.00    +0.000 C 
ATOM     12  O   UNL     1       0.361   9.984  22.953  0.00  0.00    +0.000 OA
ENDBRANCH   5  12
BRANCH   9  13
ATOM     13  O   UNL     1       1.295  11.134  18.316  0.00  0.00    +0.000 OA
ATOM     14  C   UNL     1       2.320  11.943  17.880  0.00  0.00    +0.000 C 
ENDBRANCH   9  13
BRANCH  10  15
ATOM     15  O   UNL     1       0.304  11.892  20.822  0.00  0.00    +0.000 OA
ATOM     16  C   UNL     1       0.933  13.078  21.123  0.00  0.00    +0.000 C 
ENDBRANCH  10  15
ENDBRANCH   4   7
ENDBRANCH   3   4
ENDBRANCH   2   3
ENDBRANCH   1   2
BRANCH   1  17
ATOM     17  O   UNL     1       3.814   3.496  19.784  0.00  0.00    +0.000 OA
BRANCH  17  18
ATOM     18  N   UNL     1       4.461   3.584  18.637  0.00  0.00    +0.000 NA
ATOM     19  C   UNL     1       5.155   4.639  18.359  0.00  0.00    +0.000 C 
ATOM     20  N   UNL     1       5.236   5.698  19.307  0.00  0.00    +0.000 N 
ATOM     21  H   UNL     1       4.759   5.650  20.220  0.00  0.00    +0.000 HD
ATOM     22  H   UNL     1       5.806   6.531  19.101  0.00  0.00    +0.000 HD
BRANCH  19  23
ATOM     23  N   UNL     1       5.890   4.787  17.135  0.00  0.00    +0.000 NA
ATOM     24  C   UNL     1       7.151   4.620  16.867  0.00  0.00    +0.000 C 
ATOM     25  N   UNL     1       8.095   4.165  17.832  0.00  0.00    +0.000 N 
ATOM     26  N   UNL     1       7.636   4.916  15.553  0.00  0.00    +0.000 N 
ATOM     27  H   UNL     1       7.832   3.770  18.739  0.00  0.00    +0.000 HD
ATOM     28  H   UNL     1       9.087   4.088  17.569  0.00  0.00    +0.000 HD
ATOM     29  H   UNL     1       8.655   5.008  15.419  0.00  0.00    +0.000 HD
BRANCH  26  30
ATOM     30  C   UNL     1       6.788   4.956  14.371  0.00  0.00    +0.000 C 
ATOM     31  C   UNL     1       7.602   5.281  13.116  0.00  0.00    +0.000 C 
ATOM     32  C   UNL     1       6.109   3.591  14.219  0.00  0.00    +0.000 C 
ENDBRANCH  26  30
ENDBRANCH  19  23
ENDBRANCH  17  18
ENDBRANCH   1  17
TORSDOF 11
ENDMDL
MODEL 7
REMARK VINA RESULT:      -6.4      3.608      5.686
REMARK  Name = 
REMARK  16 active torsions:
REMARK  status: ('A' for Active; 'I' for Inactive)
REMARK    1  A    between atoms: C_1  and  O_2
REMARK    2  A    between atoms: O_2  and  C_3
REMARK    3  A    between atoms: C_5  and  O_6
REMARK    4  A    between atoms: O_6  and  C_7
REMARK    5  A    between atoms: C_7  and  C_8
REMARK    6  A    between atoms: C_8  and  C_9
REMARK    7  A    between atoms: C_9  and  O_10
REMARK    8  A    between atoms: O_10  and  N_11
REMARK    9  A    between atoms: C_12  and  N_14
REMARK   10  A    between atoms: N_17  and  C_18
REMARK   11  A    between atoms: C_18  and  C_19
REMARK   12  A    between atoms: C_18  and  C_20
REMARK   13  A    between atoms: C_22  and  O_23
REMARK   14  A    between atoms: O_23  and  C_24
REMARK   15  A    between atoms: C_25  and  O_26
REMARK   16  A    between atoms: O_26  and  C_27
REMARK                            x       y       z     vdW  Elec       q    Type
REMARK                         _______ _______ _______ _____ _____    ______ ____
ROOT
ATOM      1  C   UNL     1      -0.445   9.849  20.007  0.00  0.00    +0.000 C 
ENDROOT
BRANCH   1   2
ATOM      2  C   UNL     1      -0.044   9.023  21.245  0.00  0.00    +0.000 C 
BRANCH   2   3
ATOM      3  C   UNL     1       1.429   8.559  21.106  0.00  0.00    +0.000 C 
BRANCH   3   4
ATOM      4  O   UNL     1       1.788   8.086  19.848  0.00  0.00    +0.000 OA
BRANCH   4   7
ATOM      5  C   UNL     1       3.530   5.339  18.085  0.00  0.00    +0.000 A 
ATOM      6  C   UNL     1       3.004   6.619  18.391  0.00  0.00    +0.000 A 
ATOM      7  C   UNL     1       2.304   6.847  19.589  0.00  0.00    +0.000 A 
ATOM      8  C   UNL     1       2.138   5.785  20.480  0.00  0.00    +0.000 A 
ATOM      9  C   UNL     1       2.663   4.527  20.233  0.00  0.00    +0.000 A 
ATOM     10  C   UNL     1       3.368   4.278  19.023  0.00  0.00    +0.000 A 
BRANCH   5  12
ATOM     11  C   UNL     1       5.140   5.922  16.319  0.00  0.00    +0.000 C 
ATOM     12  O   UNL     1       4.198   5.105  16.917  0.00  0.00    +0.000 OA
ENDBRANCH   5  12
BRANCH   9  13
ATOM     13  O   UNL     1       2.456   3.595  21.204  0.00  0.00    +0.000 OA
ATOM     14  C   UNL     1       1.382   2.750  21.374  0.00  0.00    +0.000 C 
ENDBRANCH   9  13
BRANCH  10  15
ATOM     15  O   UNL     1       3.831   3.015  18.836  0.00  0.00    +0.000 OA
ATOM     16  C   UNL     1       3.338   1.972  18.086  0.00  0.00    +0.000 C 
ENDBRANCH  10  15
ENDBRANCH   4   7
ENDBRANCH   3   4
ENDBRANCH   2   3
ENDBRANCH   1   2
BRANCH   1  17
ATOM     17  O   UNL     1      -0.193  11.180  20.268  0.00  0.00    +0.000 OA
BRANCH  17  18
ATOM     18  N   UNL     1       0.641  11.925  19.566  0.00  0.00    +0.000 NA
ATOM     19  C   UNL     1       1.154  12.993  20.084  0.00  0.00    +0.000 C 
ATOM     20  N   UNL     1       0.833  13.351  21.424  0.00  0.00    +0.000 N 
ATOM     21  H   UNL     1       0.201  12.778  22.004  0.00  0.00    +0.000 HD
ATOM     22  H   UNL     1       1.256  14.187  21.849  0.00  0.00    +0.000 HD
BRANCH  19  23
ATOM     23  N   UNL     1       2.076  13.835  19.376  0.00  0.00    +0.000 NA
ATOM     24  C   UNL     1       2.754  13.637  18.285  0.00  0.00    +0.000 C 
ATOM     25  N   UNL     1       2.639  12.450  17.506  0.00  0.00    +0.000 N 
ATOM     26  N   UNL     1       3.673  14.638  17.836  0.00  0.00    +0.000 N 
ATOM     27  H   UNL     1       1.900  11.754  17.640  0.00  0.00    +0.000 HD
ATOM     28  H   UNL     1       3.230  12.336  16.671  0.00  0.00    +0.000 HD
ATOM     29  H   UNL     1       4.367  14.377  17.118  0.00  0.00    +0.000 HD
BRANCH  26  30
ATOM     30  C   UNL     1       3.598  16.037  18.231  0.00  0.00    +0.000 C 
ATOM     31  C   UNL     1       4.987  16.600  18.545  0.00  0.00    +0.000 C 
ATOM     32  C   UNL     1       2.957  16.827  17.085  0.00  0.00    +0.000 C 
ENDBRANCH  26  30
ENDBRANCH  19  23
ENDBRANCH  17  18
ENDBRANCH   1  17
TORSDOF 11
ENDMDL
MODEL 8
REMARK VINA RESULT:      -6.4      2.092      2.854
REMARK  Name = 
REMARK  16 active torsions:
REMARK  status: ('A' for Active; 'I' for Inactive)
REMARK    1  A    between atoms: C_1  and  O_2
REMARK    2  A    between atoms: O_2  and  C_3
REMARK    3  A    between atoms: C_5  and  O_6
REMARK    4  A    between atoms: O_6  and  C_7
REMARK    5  A    between atoms: C_7  and  C_8
REMARK    6  A    between atoms: C_8  and  C_9
REMARK    7  A    between atoms: C_9  and  O_10
REMARK    8  A    between atoms: O_10  and  N_11
REMARK    9  A    between atoms: C_12  and  N_14
REMARK   10  A    between atoms: N_17  and  C_18
REMARK   11  A    between atoms: C_18  and  C_19
REMARK   12  A    between atoms: C_18  and  C_20
REMARK   13  A    between atoms: C_22  and  O_23
REMARK   14  A    between atoms: O_23  and  C_24
REMARK   15  A    between atoms: C_25  and  O_26
REMARK   16  A    between atoms: O_26  and  C_27
REMARK                            x       y       z     vdW  Elec       q    Type
REMARK                         _______ _______ _______ _____ _____    ______ ____
ROOT
ATOM      1  C   UNL     1       0.220   9.942  22.851  0.00  0.00    +0.000 C 
ENDROOT
BRANCH   1   2
ATOM      2  C   UNL     1       0.224   8.606  22.082  0.00  0.00    +0.000 C 
BRANCH   2   3
ATOM      3  C   UNL     1       1.624   8.366  21.460  0.00  0.00    +0.000 C 
BRANCH   3   4
ATOM      4  O   UNL     1       1.621   7.861  20.163  0.00  0.00    +0.000 OA
BRANCH   4   7
ATOM      5  C   UNL     1       2.683   4.317  20.176  0.00  0.00    +0.000 A 
ATOM      6  C   UNL     1       2.057   5.534  20.546  0.00  0.00    +0.000 A 
ATOM      7  C   UNL     1       2.218   6.696  19.770  0.00  0.00    +0.000 A 
ATOM      8  C   UNL     1       3.006   6.630  18.620  0.00  0.00    +0.000 A 
ATOM      9  C   UNL     1       3.610   5.453  18.208  0.00  0.00    +0.000 A 
ATOM     10  C   UNL     1       3.463   4.271  18.983  0.00  0.00    +0.000 A 
BRANCH   5  12
ATOM     11  C   UNL     1       1.434   2.806  21.661  0.00  0.00    +0.000 C 
ATOM     12  O   UNL     1       2.545   3.188  20.931  0.00  0.00    +0.000 OA
ENDBRANCH   5  12
BRANCH   9  13
ATOM     13  O   UNL     1       4.322   5.525  17.048  0.00  0.00    +0.000 OA
ATOM     14  C   UNL     1       4.905   6.625  16.461  0.00  0.00    +0.000 C 
ENDBRANCH   9  13
BRANCH  10  15
ATOM     15  O   UNL     1       4.105   3.162  18.533  0.00  0.00    +0.000 OA
ATOM     16  C   UNL     1       3.621   1.992  17.993  0.00  0.00    +0.000 C 
ENDBRANCH  10  15
ENDBRANCH   4   7
ENDBRANCH   3   4
ENDBRANCH   2   3
ENDBRANCH   1   2
BRANCH   1  17
ATOM     17  O   UNL     1      -0.654  10.806  22.223  0.00  0.00    +0.000 OA
BRANCH  17  18
ATOM     18  N   UNL     1      -1.024  10.693  20.961  0.00  0.00    +0.000 NA
ATOM     19  C   UNL     1      -1.604  11.682  20.362  0.00  0.00    +0.000 C 
ATOM     20  N   UNL     1      -1.823  12.901  21.063  0.00  0.00    +0.000 N 
ATOM     21  H   UNL     1      -1.526  13.026  22.043  0.00  0.00    +0.000 HD
ATOM     22  H   UNL     1      -2.263  13.699  20.585  0.00  0.00    +0.000 HD
BRANCH  19  23
ATOM     23  N   UNL     1      -2.018  11.625  18.988  0.00  0.00    +0.000 NA
ATOM     24  C   UNL     1      -1.484  12.119  17.911  0.00  0.00    +0.000 C 
ATOM     25  N   UNL     1      -0.247  12.826  17.914  0.00  0.00    +0.000 N 
ATOM     26  N   UNL     1      -2.161  11.971  16.659  0.00  0.00    +0.000 N 
ATOM     27  H   UNL     1       0.394  12.844  18.711  0.00  0.00    +0.000 HD
ATOM     28  H   UNL     1       0.105  13.227  17.033  0.00  0.00    +0.000 HD
ATOM     29  H   UNL     1      -1.858  12.560  15.868  0.00  0.00    +0.000 HD
BRANCH  26  30
ATOM     30  C   UNL     1      -3.157  10.943  16.398  0.00  0.00    +0.000 C 
ATOM     31  C   UNL     1      -4.576  11.476  16.619  0.00  0.00    +0.000 C 
ATOM     32  C   UNL     1      -2.993  10.471  14.949  0.00  0.00    +0.000 C 
ENDBRANCH  26  30
ENDBRANCH  19  23
ENDBRANCH  17  18
ENDBRANCH   1  17
TORSDOF 11
ENDMDL
MODEL 9
REMARK VINA RESULT:      -6.3      5.291     10.464
REMARK  Name = 
REMARK  16 active torsions:
REMARK  status: ('A' for Active; 'I' for Inactive)
REMARK    1  A    between atoms: C_1  and  O_2
REMARK    2  A    between atoms: O_2  and  C_3
REMARK    3  A    between atoms: C_5  and  O_6
REMARK    4  A    between atoms: O_6  and  C_7
REMARK    5  A    between atoms: C_7  and  C_8
REMARK    6  A    between atoms: C_8  and  C_9
REMARK    7  A    between atoms: C_9  and  O_10
REMARK    8  A    between atoms: O_10  and  N_11
REMARK    9  A    between atoms: C_12  and  N_14
REMARK   10  A    between atoms: N_17  and  C_18
REMARK   11  A    between atoms: C_18  and  C_19
REMARK   12  A    between atoms: C_18  and  C_20
REMARK   13  A    between atoms: C_22  and  O_23
REMARK   14  A    between atoms: O_23  and  C_24
REMARK   15  A    between atoms: C_25  and  O_26
REMARK   16  A    between atoms: O_26  and  C_27
REMARK                            x       y       z     vdW  Elec       q    Type
REMARK                         _______ _______ _______ _____ _____    ______ ____
ROOT
ATOM      1  C   UNL     1       3.802   5.803  18.762  0.00  0.00    +0.000 C 
ENDROOT
BRANCH   1   2
ATOM      2  C   UNL     1       3.646   6.964  17.760  0.00  0.00    +0.000 C 
BRANCH   2   3
ATOM      3  C   UNL     1       2.293   7.683  18.002  0.00  0.00    +0.000 C 
BRANCH   3   4
ATOM      4  O   UNL     1       2.210   8.979  17.500  0.00  0.00    +0.000 OA
BRANCH   4   7
ATOM      5  C   UNL     1       1.008  12.177  18.918  0.00  0.00    +0.000 A 
ATOM      6  C   UNL     1       1.869  11.165  18.423  0.00  0.00    +0.000 A 
ATOM      7  C   UNL     1       1.355   9.945  17.951  0.00  0.00    +0.000 A 
ATOM      8  C   UNL     1      -0.027   9.745  17.974  0.00  0.00    +0.000 A 
ATOM      9  C   UNL     1      -0.904  10.720  18.422  0.00  0.00    +0.000 A 
ATOM     10  C   UNL     1      -0.401  11.958  18.908  0.00  0.00    +0.000 A 
BRANCH   5  12
ATOM     11  C   UNL     1       1.794  14.493  18.657  0.00  0.00    +0.000 C 
ATOM     12  O   UNL     1       1.499  13.359  19.393  0.00  0.00    +0.000 OA
ENDBRANCH   5  12
BRANCH   9  13
ATOM     13  O   UNL     1      -2.227  10.404  18.356  0.00  0.00    +0.000 OA
ATOM     14  C   UNL     1      -3.015  10.216  17.242  0.00  0.00    +0.000 C 
ENDBRANCH   9  13
BRANCH  10  15
ATOM     15  O   UNL     1      -1.317  12.855  19.356  0.00  0.00    +0.000 OA
ATOM     16  C   UNL     1      -1.775  13.126  20.625  0.00  0.00    +0.000 C 
ENDBRANCH  10  15
ENDBRANCH   4   7
ENDBRANCH   3   4
ENDBRANCH   2   3
ENDBRANCH   1   2
BRANCH   1  17
ATOM     17  O   UNL     1       4.572   4.820  18.177  0.00  0.00    +0.000 OA
BRANCH  17  18
ATOM     18  N   UNL     1       4.635   4.608  16.875  0.00  0.00    +0.000 NA
ATOM     19  C   UNL     1       5.753   4.264  16.325  0.00  0.00    +0.000 C 
ATOM     20  N   UNL     1       6.912   4.092  17.131  0.00  0.00    +0.000 N 
ATOM     21  H   UNL     1       6.890   4.229  18.154  0.00  0.00    +0.000 HD
ATOM     22  H   UNL     1       7.800   3.795  16.702  0.00  0.00    +0.000 HD
BRANCH  19  23
ATOM     23  N   UNL     1       5.881   4.008  14.918  0.00  0.00    +0.000 NA
ATOM     24  C   UNL     1       6.689   4.501  14.027  0.00  0.00    +0.000 C 
ATOM     25  N   UNL     1       7.719   5.432  14.345  0.00  0.00    +0.000 N 
ATOM     26  N   UNL     1       6.545   4.116  12.656  0.00  0.00    +0.000 N 
ATOM     27  H   UNL     1       8.015   5.644  15.302  0.00  0.00    +0.000 HD
ATOM     28  H   UNL     1       8.303   5.815  13.589  0.00  0.00    +0.000 HD
ATOM     29  H   UNL     1       7.022   4.681  11.937  0.00  0.00    +0.000 HD
BRANCH  26  30
ATOM     30  C   UNL     1       5.878   2.894  12.228  0.00  0.00    +0.000 C 
ATOM     31  C   UNL     1       4.555   3.203  11.522  0.00  0.00    +0.000 C 
ATOM     32  C   UNL     1       6.817   2.141  11.280  0.00  0.00    +0.000 C 
ENDBRANCH  26  30
ENDBRANCH  19  23
ENDBRANCH  17  18
ENDBRANCH   1  17
TORSDOF 11
ENDMDL
