MODEL 1
REMARK VINA RESULT:      -8.9      0.000      0.000
REMARK  Name = 
REMARK  6 active torsions:
REMARK  status: ('A' for Active; 'I' for Inactive)
REMARK    1  A    between atoms: C_1  and  C_2
REMARK    2  A    between atoms: C_5  and  C_6
REMARK    3  A    between atoms: C_6  and  N_7
REMARK    4  A    between atoms: C_8  and  C_10
REMARK    5  A    between atoms: N_17  and  C_18
REMARK    6  A    between atoms: C_18  and  C_19
REMARK                            x       y       z     vdW  Elec       q    Type
REMARK                         _______ _______ _______ _____ _____    ______ ____
ROOT
ATOM      1  C   UNL     1       2.205   7.117  19.366  0.00  0.00    +0.000 A 
ATOM      2  C   UNL     1       1.419   6.576  20.411  0.00  0.00    +0.000 A 
ATOM      3  C   UNL     1       1.687   5.292  20.913  0.00  0.00    +0.000 A 
ATOM      4  C   UNL     1       2.728   4.588  20.343  0.00  0.00    +0.000 A 
ATOM      5  O   UNL     1       3.128   3.309  20.695  0.00  0.00    +0.000 OA
ATOM      6  C   UNL     1       4.171   3.056  19.786  0.00  0.00    +0.000 A 
ATOM      7  O   UNL     1       4.777   1.992  19.753  0.00  0.00    +0.000 OA
ATOM      8  N   UNL     1       4.376   4.138  18.960  0.00  0.00    +0.000 N 
ATOM      9  C   UNL     1       3.481   5.117  19.317  0.00  0.00    +0.000 A 
ATOM     10  C   UNL     1       3.263   6.381  18.817  0.00  0.00    +0.000 A 
ENDROOT
BRANCH   1  12
ATOM     11  N   UNL     1       1.105   9.290  19.533  0.00  0.00    +0.000 N 
ATOM     12  C   UNL     1       1.979   8.487  18.835  0.00  0.00    +0.000 C 
ATOM     13  O   UNL     1       2.539   8.831  17.800  0.00  0.00    +0.000 OA
ATOM     14  H   UNL     1       0.488   8.877  20.218  0.00  0.00    +0.000 HD
BRANCH  11  15
ATOM     15  C   UNL     1       0.767  10.608  19.040  0.00  0.00    +0.000 C 
BRANCH  15  20
ATOM     16  C   UNL     1      -4.779  11.152  17.334  0.00  0.00    +0.000 C 
ATOM     17  C   UNL     1      -3.365  10.985  17.808  0.00  0.00    +0.000 A 
ATOM     18  C   UNL     1      -2.862  11.762  18.855  0.00  0.00    +0.000 A 
ATOM     19  C   UNL     1      -1.532  11.621  19.266  0.00  0.00    +0.000 A 
ATOM     20  C   UNL     1      -0.683  10.699  18.639  0.00  0.00    +0.000 A 
ATOM     21  C   UNL     1      -1.193   9.916  17.595  0.00  0.00    +0.000 A 
ATOM     22  C   UNL     1      -2.522  10.058  17.184  0.00  0.00    +0.000 A 
ENDBRANCH  15  20
ENDBRANCH  11  15
ENDBRANCH   1  12
BRANCH   8  23
ATOM     23  C   UNL     1       5.283   4.192  17.841  0.00  0.00    +0.000 C 
BRANCH  23  24
ATOM     24  C   UNL     1       6.290   5.312  17.927  0.00  0.00    +0.000 A 
ATOM     25  C   UNL     1       6.278   6.347  16.982  0.00  0.00    +0.000 A 
ATOM     26  C   UNL     1       7.169   7.415  17.088  0.00  0.00    +0.000 A 
ATOM     27  C   UNL     1       8.082   7.462  18.138  0.00  0.00    +0.000 A 
ATOM     28  C   UNL     1       8.111   6.437  19.081  0.00  0.00    +0.000 A 
ATOM     29  C   UNL     1       7.220   5.366  18.978  0.00  0.00    +0.000 A 
ENDBRANCH  23  24
ENDBRANCH   8  23
TORSDOF 5
ENDMDL
MODEL 2
REMARK VINA RESULT:      -8.8      1.219      1.792
REMARK  Name = 
REMARK  6 active torsions:
REMARK  status: ('A' for Active; 'I' for Inactive)
REMARK    1  A    between atoms: C_1  and  C_2
REMARK    2  A    between atoms: C_5  and  C_6
REMARK    3  A    between atoms: C_6  and  N_7
REMARK    4  A    between atoms: C_8  and  C_10
REMARK    5  A    between atoms: N_17  and  C_18
REMARK    6  A    between atoms: C_18  and  C_19
REMARK                            x       y       z     vdW  Elec       q    Type
REMARK                         _______ _______ _______ _____ _____    ______ ____
ROOT
ATOM      1  C   UNL     1       2.103   7.167  19.061  0.00  0.00    +0.000 A 
ATOM      2  C   UNL     1       1.803   6.853  20.408  0.00  0.00    +0.000 A 
ATOM      3  C   UNL     1       2.059   5.568  20.913  0.00  0.00    +0.000 A 
ATOM      4  C   UNL     1       2.598   4.637  20.048  0.00  0.00    +0.000 A 
ATOM      5  O   UNL     1       2.901   3.322  20.362  0.00  0.00    +0.000 OA
ATOM      6  C   UNL     1       3.359   2.815  19.133  0.00  0.00    +0.000 A 
ATOM      7  O   UNL     1       3.703   1.648  18.985  0.00  0.00    +0.000 OA
ATOM      8  N   UNL     1       3.337   3.789  18.161  0.00  0.00    +0.000 N 
ATOM      9  C   UNL     1       2.874   4.948  18.734  0.00  0.00    +0.000 A 
ATOM     10  C   UNL     1       2.661   6.203  18.211  0.00  0.00    +0.000 A 
ENDROOT
BRANCH   1  12
ATOM     11  N   UNL     1       1.127   9.397  19.250  0.00  0.00    +0.000 N 
ATOM     12  C   UNL     1       1.885   8.527  18.499  0.00  0.00    +0.000 C 
ATOM     13  O   UNL     1       2.348   8.804  17.398  0.00  0.00    +0.000 OA
ATOM     14  H   UNL     1       0.567   9.041  20.012  0.00  0.00    +0.000 HD
BRANCH  11  15
ATOM     15  C   UNL     1       0.799  10.712  18.740  0.00  0.00    +0.000 C 
BRANCH  15  20
ATOM     16  C   UNL     1      -4.938  11.042  17.773  0.00  0.00    +0.000 C 
ATOM     17  C   UNL     1      -3.454  10.981  17.984  0.00  0.00    +0.000 A 
ATOM     18  C   UNL     1      -2.670  10.041  17.309  0.00  0.00    +0.000 A 
ATOM     19  C   UNL     1      -1.293   9.972  17.540  0.00  0.00    +0.000 A 
ATOM     20  C   UNL     1      -0.673  10.844  18.445  0.00  0.00    +0.000 A 
ATOM     21  C   UNL     1      -1.460  11.792  19.113  0.00  0.00    +0.000 A 
ATOM     22  C   UNL     1      -2.838  11.859  18.883  0.00  0.00    +0.000 A 
ENDBRANCH  15  20
ENDBRANCH  11  15
ENDBRANCH   1  12
BRANCH   8  23
ATOM     23  C   UNL     1       3.631   3.599  16.762  0.00  0.00    +0.000 C 
BRANCH  23  24
ATOM     24  C   UNL     1       5.014   4.052  16.364  0.00  0.00    +0.000 A 
ATOM     25  C   UNL     1       5.336   4.232  15.012  0.00  0.00    +0.000 A 
ATOM     26  C   UNL     1       6.595   4.704  14.638  0.00  0.00    +0.000 A 
ATOM     27  C   UNL     1       7.545   5.003  15.611  0.00  0.00    +0.000 A 
ATOM     28  C   UNL     1       7.242   4.821  16.959  0.00  0.00    +0.000 A 
ATOM     29  C   UNL     1       5.983   4.348  17.336  0.00  0.00    +0.000 A 
ENDBRANCH  23  24
ENDBRANCH   8  23
TORSDOF 5
ENDMDL
MODEL 3
REMARK VINA RESULT:      -8.8      1.270      1.793
REMARK  Name = 
REMARK  6 active torsions:
REMARK  status: ('A' for Active; 'I' for Inactive)
REMARK    1  A    between atoms: C_1  and  C_2
REMARK    2  A    between atoms: C_5  and  C_6
REMARK    3  A    between atoms: C_6  and  N_7
REMARK    4  A    between atoms: C_8  and  C_10
REMARK    5  A    between atoms: N_17  and  C_18
REMARK    6  A    between atoms: C_18  and  C_19
REMARK                            x       y       z     vdW  Elec       q    Type
REMARK                         _______ _______ _______ _____ _____    ______ ____
ROOT
ATOM      1  C   UNL     1       2.156   6.893  19.336  0.00  0.00    +0.000 A 
ATOM      2  C   UNL     1       1.830   6.445  20.638  0.00  0.00    +0.000 A 
ATOM      3  C   UNL     1       2.037   5.106  21.003  0.00  0.00    +0.000 A 
ATOM      4  C   UNL     1       2.555   4.255  20.047  0.00  0.00    +0.000 A 
ATOM      5  O   UNL     1       2.811   2.905  20.218  0.00  0.00    +0.000 OA
ATOM      6  C   UNL     1       3.267   2.518  18.946  0.00  0.00    +0.000 A 
ATOM      7  O   UNL     1       3.574   1.364  18.676  0.00  0.00    +0.000 OA
ATOM      8  N   UNL     1       3.289   3.592  18.085  0.00  0.00    +0.000 N 
ATOM      9  C   UNL     1       2.858   4.698  18.777  0.00  0.00    +0.000 A 
ATOM     10  C   UNL     1       2.692   6.008  18.391  0.00  0.00    +0.000 A 
ENDROOT
BRANCH   1  12
ATOM     11  N   UNL     1       1.148   9.089  19.687  0.00  0.00    +0.000 N 
ATOM     12  C   UNL     1       1.990   8.312  18.922  0.00  0.00    +0.000 C 
ATOM     13  O   UNL     1       2.567   8.719  17.920  0.00  0.00    +0.000 OA
ATOM     14  H   UNL     1       0.512   8.647  20.335  0.00  0.00    +0.000 HD
BRANCH  11  15
ATOM     15  C   UNL     1       0.867  10.458  19.307  0.00  0.00    +0.000 C 
BRANCH  15  20
ATOM     16  C   UNL     1      -4.464  11.250  17.092  0.00  0.00    +0.000 C 
ATOM     17  C   UNL     1      -3.110  11.018  17.694  0.00  0.00    +0.000 A 
ATOM     18  C   UNL     1      -2.692  11.734  18.820  0.00  0.00    +0.000 A 
ATOM     19  C   UNL     1      -1.414  11.533  19.352  0.00  0.00    +0.000 A 
ATOM     20  C   UNL     1      -0.533  10.612  18.770  0.00  0.00    +0.000 A 
ATOM     21  C   UNL     1      -0.958   9.890  17.648  0.00  0.00    +0.000 A 
ATOM     22  C   UNL     1      -2.235  10.092  17.115  0.00  0.00    +0.000 A 
ENDBRANCH  15  20
ENDBRANCH  11  15
ENDBRANCH   1  12
BRANCH   8  23
ATOM     23  C   UNL     1       3.594   3.544  16.676  0.00  0.00    +0.000 C 
BRANCH  23  24
ATOM     24  C   UNL     1       4.962   4.079  16.331  0.00  0.00    +0.000 A 
ATOM     25  C   UNL     1       5.915   4.282  17.338  0.00  0.00    +0.000 A 
ATOM     26  C   UNL     1       7.200   4.724  17.020  0.00  0.00    +0.000 A 
ATOM     27  C   UNL     1       7.547   4.967  15.694  0.00  0.00    +0.000 A 
ATOM     28  C   UNL     1       6.607   4.777  14.683  0.00  0.00    +0.000 A 
ATOM     29  C   UNL     1       5.320   4.336  14.998  0.00  0.00    +0.000 A 
ENDBRANCH  23  24
ENDBRANCH   8  23
TORSDOF 5
ENDMDL
MODEL 4
REMARK VINA RESULT:      -8.7      1.217      1.597
REMARK  Name = 
REMARK  6 active torsions:
REMARK  status: ('A' for Active; 'I' for Inactive)
REMARK    1  A    between atoms: C_1  and  C_2
REMARK    2  A    between atoms: C_5  and  C_6
REMARK    3  A    between atoms: C_6  and  N_7
REMARK    4  A    between atoms: C_8  and  C_10
REMARK    5  A    between atoms: N_17  and  C_18
REMARK    6  A    between atoms: C_18  and  C_19
REMARK                            x       y       z     vdW  Elec       q    Type
REMARK                         _______ _______ _______ _____ _____    ______ ____
ROOT
ATOM      1  C   UNL     1       1.927   6.320  19.904  0.00  0.00    +0.000 A 
ATOM      2  C   UNL     1       1.247   5.445  20.785  0.00  0.00    +0.000 A 
ATOM      3  C   UNL     1       1.467   4.060  20.722  0.00  0.00    +0.000 A 
ATOM      4  C   UNL     1       2.352   3.595  19.771  0.00  0.00    +0.000 A 
ATOM      5  O   UNL     1       2.681   2.267  19.551  0.00  0.00    +0.000 OA
ATOM      6  C   UNL     1       3.561   2.349  18.458  0.00  0.00    +0.000 A 
ATOM      7  O   UNL     1       4.059   1.361  17.934  0.00  0.00    +0.000 OA
ATOM      8  N   UNL     1       3.745   3.658  18.073  0.00  0.00    +0.000 N 
ATOM      9  C   UNL     1       2.999   4.454  18.908  0.00  0.00    +0.000 A 
ATOM     10  C   UNL     1       2.828   5.819  18.957  0.00  0.00    +0.000 A 
ENDROOT
BRANCH   1  12
ATOM     11  N   UNL     1       1.737   8.471  18.765  0.00  0.00    +0.000 N 
ATOM     12  C   UNL     1       1.753   7.796  19.965  0.00  0.00    +0.000 C 
ATOM     13  O   UNL     1       1.667   8.347  21.057  0.00  0.00    +0.000 OA
ATOM     14  H   UNL     1       2.063   8.009  17.928  0.00  0.00    +0.000 HD
BRANCH  11  15
ATOM     15  C   UNL     1       1.653   9.917  18.738  0.00  0.00    +0.000 C 
BRANCH  15  20
ATOM     16  C   UNL     1      -3.923  11.565  18.353  0.00  0.00    +0.000 C 
ATOM     17  C   UNL     1      -2.478  11.167  18.416  0.00  0.00    +0.000 A 
ATOM     18  C   UNL     1      -1.970  10.169  17.580  0.00  0.00    +0.000 A 
ATOM     19  C   UNL     1      -0.628   9.784  17.672  0.00  0.00    +0.000 A 
ATOM     20  C   UNL     1       0.230  10.391  18.598  0.00  0.00    +0.000 A 
ATOM     21  C   UNL     1      -0.280  11.398  19.429  0.00  0.00    +0.000 A 
ATOM     22  C   UNL     1      -1.622  11.781  19.338  0.00  0.00    +0.000 A 
ENDBRANCH  15  20
ENDBRANCH  11  15
ENDBRANCH   1  12
BRANCH   8  23
ATOM     23  C   UNL     1       4.491   4.107  16.923  0.00  0.00    +0.000 C 
BRANCH  23  24
ATOM     24  C   UNL     1       5.630   5.037  17.262  0.00  0.00    +0.000 A 
ATOM     25  C   UNL     1       5.650   6.343  16.752  0.00  0.00    +0.000 A 
ATOM     26  C   UNL     1       6.671   7.227  17.106  0.00  0.00    +0.000 A 
ATOM     27  C   UNL     1       7.680   6.817  17.973  0.00  0.00    +0.000 A 
ATOM     28  C   UNL     1       7.677   5.520  18.481  0.00  0.00    +0.000 A 
ATOM     29  C   UNL     1       6.657   4.633  18.129  0.00  0.00    +0.000 A 
ENDBRANCH  23  24
ENDBRANCH   8  23
TORSDOF 5
ENDMDL
MODEL 5
REMARK VINA RESULT:      -8.7      0.111      1.294
REMARK  Name = 
REMARK  6 active torsions:
REMARK  status: ('A' for Active; 'I' for Inactive)
REMARK    1  A    between atoms: C_1  and  C_2
REMARK    2  A    between atoms: C_5  and  C_6
REMARK    3  A    between atoms: C_6  and  N_7
REMARK    4  A    between atoms: C_8  and  C_10
REMARK    5  A    between atoms: N_17  and  C_18
REMARK    6  A    between atoms: C_18  and  C_19
REMARK                            x       y       z     vdW  Elec       q    Type
REMARK                         _______ _______ _______ _____ _____    ______ ____
ROOT
ATOM      1  C   UNL     1       2.190   7.143  19.353  0.00  0.00    +0.000 A 
ATOM      2  C   UNL     1       1.357   6.593  20.357  0.00  0.00    +0.000 A 
ATOM      3  C   UNL     1       1.599   5.303  20.855  0.00  0.00    +0.000 A 
ATOM      4  C   UNL     1       2.661   4.601  20.321  0.00  0.00    +0.000 A 
ATOM      5  O   UNL     1       3.040   3.316  20.673  0.00  0.00    +0.000 OA
ATOM      6  C   UNL     1       4.119   3.069  19.807  0.00  0.00    +0.000 A 
ATOM      7  O   UNL     1       4.722   2.003  19.787  0.00  0.00    +0.000 OA
ATOM      8  N   UNL     1       4.364   4.160  19.003  0.00  0.00    +0.000 N 
ATOM      9  C   UNL     1       3.458   5.139  19.334  0.00  0.00    +0.000 A 
ATOM     10  C   UNL     1       3.267   6.410  18.840  0.00  0.00    +0.000 A 
ENDROOT
BRANCH   1  12
ATOM     11  N   UNL     1       1.110   9.327  19.514  0.00  0.00    +0.000 N 
ATOM     12  C   UNL     1       1.992   8.521  18.830  0.00  0.00    +0.000 C 
ATOM     13  O   UNL     1       2.582   8.869  17.812  0.00  0.00    +0.000 OA
ATOM     14  H   UNL     1       0.471   8.916  20.179  0.00  0.00    +0.000 HD
BRANCH  11  15
ATOM     15  C   UNL     1       0.798  10.654  19.024  0.00  0.00    +0.000 C 
BRANCH  15  20
ATOM     16  C   UNL     1      -4.845  10.922  17.597  0.00  0.00    +0.000 C 
ATOM     17  C   UNL     1      -3.382  10.879  17.928  0.00  0.00    +0.000 A 
ATOM     18  C   UNL     1      -2.528   9.975  17.291  0.00  0.00    +0.000 A 
ATOM     19  C   UNL     1      -1.173   9.922  17.632  0.00  0.00    +0.000 A 
ATOM     20  C   UNL     1      -0.647  10.772  18.613  0.00  0.00    +0.000 A 
ATOM     21  C   UNL     1      -1.504  11.683  19.244  0.00  0.00    +0.000 A 
ATOM     22  C   UNL     1      -2.859  11.736  18.904  0.00  0.00    +0.000 A 
ENDBRANCH  15  20
ENDBRANCH  11  15
ENDBRANCH   1  12
BRANCH   8  23
ATOM     23  C   UNL     1       5.318   4.223  17.925  0.00  0.00    +0.000 C 
BRANCH  23  24
ATOM     24  C   UNL     1       6.290   5.372  18.039  0.00  0.00    +0.000 A 
ATOM     25  C   UNL     1       7.197   5.425  19.106  0.00  0.00    +0.000 A 
ATOM     26  C   UNL     1       8.137   6.455  19.188  0.00  0.00    +0.000 A 
ATOM     27  C   UNL     1       8.180   7.440  18.205  0.00  0.00    +0.000 A 
ATOM     28  C   UNL     1       7.279   7.405  17.144  0.00  0.00    +0.000 A 
ATOM     29  C   UNL     1       6.338   6.376  17.059  0.00  0.00    +0.000 A 
ENDBRANCH  23  24
ENDBRANCH   8  23
TORSDOF 5
ENDMDL
MODEL 6
REMARK VINA RESULT:      -8.5      1.639      2.277
REMARK  Name = 
REMARK  6 active torsions:
REMARK  status: ('A' for Active; 'I' for Inactive)
REMARK    1  A    between atoms: C_1  and  C_2
REMARK    2  A    between atoms: C_5  and  C_6
REMARK    3  A    between atoms: C_6  and  N_7
REMARK    4  A    between atoms: C_8  and  C_10
REMARK    5  A    between atoms: N_17  and  C_18
REMARK    6  A    between atoms: C_18  and  C_19
REMARK                            x       y       z     vdW  Elec       q    Type
REMARK                         _______ _______ _______ _____ _____    ______ ____
ROOT
ATOM      1  C   UNL     1       2.176   6.814  19.680  0.00  0.00    +0.000 A 
ATOM      2  C   UNL     1       1.445   6.151  20.694  0.00  0.00    +0.000 A 
ATOM      3  C   UNL     1       1.728   4.814  21.018  0.00  0.00    +0.000 A 
ATOM      4  C   UNL     1       2.729   4.183  20.307  0.00  0.00    +0.000 A 
ATOM      5  O   UNL     1       3.135   2.869  20.476  0.00  0.00    +0.000 OA
ATOM      6  C   UNL     1       4.122   2.727  19.485  0.00  0.00    +0.000 A 
ATOM      7  O   UNL     1       4.715   1.673  19.287  0.00  0.00    +0.000 OA
ATOM      8  N   UNL     1       4.291   3.902  18.787  0.00  0.00    +0.000 N 
ATOM      9  C   UNL     1       3.427   4.832  19.312  0.00  0.00    +0.000 A 
ATOM     10  C   UNL     1       3.194   6.149  18.984  0.00  0.00    +0.000 A 
ENDROOT
BRANCH   1  12
ATOM     11  N   UNL     1       1.181   8.976  20.220  0.00  0.00    +0.000 N 
ATOM     12  C   UNL     1       1.934   8.240  19.334  0.00  0.00    +0.000 C 
ATOM     13  O   UNL     1       2.376   8.688  18.281  0.00  0.00    +0.000 OA
ATOM     14  H   UNL     1       0.637   8.502  20.928  0.00  0.00    +0.000 HD
BRANCH  11  15
ATOM     15  C   UNL     1       0.830  10.349  19.921  0.00  0.00    +0.000 C 
BRANCH  15  20
ATOM     16  C   UNL     1      -3.141  12.529  23.587  0.00  0.00    +0.000 C 
ATOM     17  C   UNL     1      -2.145  11.931  22.638  0.00  0.00    +0.000 A 
ATOM     18  C   UNL     1      -1.219  10.979  23.073  0.00  0.00    +0.000 A 
ATOM     19  C   UNL     1      -0.274  10.453  22.186  0.00  0.00    +0.000 A 
ATOM     20  C   UNL     1      -0.240  10.867  20.848  0.00  0.00    +0.000 A 
ATOM     21  C   UNL     1      -1.175  11.815  20.412  0.00  0.00    +0.000 A 
ATOM     22  C   UNL     1      -2.119  12.341  21.300  0.00  0.00    +0.000 A 
ENDBRANCH  15  20
ENDBRANCH  11  15
ENDBRANCH   1  12
BRANCH   8  23
ATOM     23  C   UNL     1       5.134   4.091  17.633  0.00  0.00    +0.000 C 
BRANCH  23  24
ATOM     24  C   UNL     1       6.161   5.183  17.802  0.00  0.00    +0.000 A 
ATOM     25  C   UNL     1       6.174   6.280  16.931  0.00  0.00    +0.000 A 
ATOM     26  C   UNL     1       7.085   7.322  17.115  0.00  0.00    +0.000 A 
ATOM     27  C   UNL     1       7.992   7.279  18.171  0.00  0.00    +0.000 A 
ATOM     28  C   UNL     1       7.996   6.190  19.040  0.00  0.00    +0.000 A 
ATOM     29  C   UNL     1       7.086   5.146  18.859  0.00  0.00    +0.000 A 
ENDBRANCH  23  24
ENDBRANCH   8  23
TORSDOF 5
ENDMDL
MODEL 7
REMARK VINA RESULT:      -8.5      1.184      1.545
REMARK  Name = 
REMARK  6 active torsions:
REMARK  status: ('A' for Active; 'I' for Inactive)
REMARK    1  A    between atoms: C_1  and  C_2
REMARK    2  A    between atoms: C_5  and  C_6
REMARK    3  A    between atoms: C_6  and  N_7
REMARK    4  A    between atoms: C_8  and  C_10
REMARK    5  A    between atoms: N_17  and  C_18
REMARK    6  A    between atoms: C_18  and  C_19
REMARK                            x       y       z     vdW  Elec       q    Type
REMARK                         _______ _______ _______ _____ _____    ______ ____
ROOT
ATOM      1  C   UNL     1       1.903   6.400  19.975  0.00  0.00    +0.000 A 
ATOM      2  C   UNL     1       1.212   5.473  20.792  0.00  0.00    +0.000 A 
ATOM      3  C   UNL     1       1.470   4.097  20.683  0.00  0.00    +0.000 A 
ATOM      4  C   UNL     1       2.404   3.694  19.750  0.00  0.00    +0.000 A 
ATOM      5  O   UNL     1       2.776   2.385  19.491  0.00  0.00    +0.000 OA
ATOM      6  C   UNL     1       3.696   2.533  18.439  0.00  0.00    +0.000 A 
ATOM      7  O   UNL     1       4.241   1.579  17.897  0.00  0.00    +0.000 OA
ATOM      8  N   UNL     1       3.862   3.860  18.114  0.00  0.00    +0.000 N 
ATOM      9  C   UNL     1       3.063   4.602  18.950  0.00  0.00    +0.000 A 
ATOM     10  C   UNL     1       2.854   5.960  19.046  0.00  0.00    +0.000 A 
ENDROOT
BRANCH   1  12
ATOM     11  N   UNL     1       1.617   8.578  18.911  0.00  0.00    +0.000 N 
ATOM     12  C   UNL     1       1.688   7.867  20.088  0.00  0.00    +0.000 C 
ATOM     13  O   UNL     1       1.619   8.382  21.199  0.00  0.00    +0.000 OA
ATOM     14  H   UNL     1       1.931   8.152  18.051  0.00  0.00    +0.000 HD
BRANCH  11  15
ATOM     15  C   UNL     1       1.491  10.021  18.933  0.00  0.00    +0.000 C 
BRANCH  15  20
ATOM     16  C   UNL     1      -4.003  11.908  18.467  0.00  0.00    +0.000 C 
ATOM     17  C   UNL     1      -2.602  11.393  18.620  0.00  0.00    +0.000 A 
ATOM     18  C   UNL     1      -1.768  11.869  19.636  0.00  0.00    +0.000 A 
ATOM     19  C   UNL     1      -0.453  11.406  19.747  0.00  0.00    +0.000 A 
ATOM     20  C   UNL     1       0.051  10.457  18.848  0.00  0.00    +0.000 A 
ATOM     21  C   UNL     1      -0.790   9.975  17.836  0.00  0.00    +0.000 A 
ATOM     22  C   UNL     1      -2.104  10.440  17.724  0.00  0.00    +0.000 A 
ENDBRANCH  15  20
ENDBRANCH  11  15
ENDBRANCH   1  12
BRANCH   8  23
ATOM     23  C   UNL     1       4.640   4.375  17.015  0.00  0.00    +0.000 C 
BRANCH  23  24
ATOM     24  C   UNL     1       5.742   5.315  17.437  0.00  0.00    +0.000 A 
ATOM     25  C   UNL     1       6.681   4.915  18.399  0.00  0.00    +0.000 A 
ATOM     26  C   UNL     1       7.736   5.757  18.753  0.00  0.00    +0.000 A 
ATOM     27  C   UNL     1       7.865   7.007  18.152  0.00  0.00    +0.000 A 
ATOM     28  C   UNL     1       6.935   7.420  17.200  0.00  0.00    +0.000 A 
ATOM     29  C   UNL     1       5.878   6.580  16.843  0.00  0.00    +0.000 A 
ENDBRANCH  23  24
ENDBRANCH   8  23
TORSDOF 5
ENDMDL
MODEL 8
REMARK VINA RESULT:      -8.5      2.100      2.774
REMARK  Name = 
REMARK  6 active torsions:
REMARK  status: ('A' for Active; 'I' for Inactive)
REMARK    1  A    between atoms: C_1  and  C_2
REMARK    2  A    between atoms: C_5  and  C_6
REMARK    3  A    between atoms: C_6  and  N_7
REMARK    4  A    between atoms: C_8  and  C_10
REMARK    5  A    between atoms: N_17  and  C_18
REMARK    6  A    between atoms: C_18  and  C_19
REMARK                            x       y       z     vdW  Elec       q    Type
REMARK                         _______ _______ _______ _____ _____    ______ ____
ROOT
ATOM      1  C   UNL     1       2.117   6.684  19.531  0.00  0.00    +0.000 A 
ATOM      2  C   UNL     1       1.805   6.141  20.800  0.00  0.00    +0.000 A 
ATOM      3  C   UNL     1       2.037   4.782  21.070  0.00  0.00    +0.000 A 
ATOM      4  C   UNL     1       2.563   4.010  20.054  0.00  0.00    +0.000 A 
ATOM      5  O   UNL     1       2.842   2.655  20.129  0.00  0.00    +0.000 OA
ATOM      6  C   UNL     1       3.297   2.366  18.831  0.00  0.00    +0.000 A 
ATOM      7  O   UNL     1       3.621   1.238  18.479  0.00  0.00    +0.000 OA
ATOM      8  N   UNL     1       3.296   3.497  18.047  0.00  0.00    +0.000 N 
ATOM      9  C   UNL     1       2.850   4.545  18.816  0.00  0.00    +0.000 A 
ATOM     10  C   UNL     1       2.661   5.876  18.524  0.00  0.00    +0.000 A 
ENDROOT
BRANCH   1  12
ATOM     11  N   UNL     1       1.198   8.867  20.123  0.00  0.00    +0.000 N 
ATOM     12  C   UNL     1       1.924   8.125  19.219  0.00  0.00    +0.000 C 
ATOM     13  O   UNL     1       2.379   8.581  18.175  0.00  0.00    +0.000 OA
ATOM     14  H   UNL     1       0.640   8.396  20.821  0.00  0.00    +0.000 HD
BRANCH  11  15
ATOM     15  C   UNL     1       0.895  10.258  19.856  0.00  0.00    +0.000 C 
BRANCH  15  20
ATOM     16  C   UNL     1      -3.055  12.265  23.641  0.00  0.00    +0.000 C 
ATOM     17  C   UNL     1      -2.012  11.784  22.676  0.00  0.00    +0.000 A 
ATOM     18  C   UNL     1      -1.940  12.301  21.379  0.00  0.00    +0.000 A 
ATOM     19  C   UNL     1      -0.984  11.821  20.478  0.00  0.00    +0.000 A 
ATOM     20  C   UNL     1      -0.081  10.819  20.858  0.00  0.00    +0.000 A 
ATOM     21  C   UNL     1      -0.150  10.309  22.161  0.00  0.00    +0.000 A 
ATOM     22  C   UNL     1      -1.107  10.788  23.061  0.00  0.00    +0.000 A 
ENDBRANCH  15  20
ENDBRANCH  11  15
ENDBRANCH   1  12
BRANCH   8  23
ATOM     23  C   UNL     1       3.592   3.553  16.637  0.00  0.00    +0.000 C 
BRANCH  23  24
ATOM     24  C   UNL     1       4.989   4.032  16.327  0.00  0.00    +0.000 A 
ATOM     25  C   UNL     1       5.373   4.280  15.002  0.00  0.00    +0.000 A 
ATOM     26  C   UNL     1       6.645   4.777  14.713  0.00  0.00    +0.000 A 
ATOM     27  C   UNL     1       7.546   5.032  15.743  0.00  0.00    +0.000 A 
ATOM     28  C   UNL     1       7.181   4.783  17.065  0.00  0.00    +0.000 A 
ATOM     29  C   UNL     1       5.909   4.285  17.357  0.00  0.00    +0.000 A 
ENDBRANCH  23  24
ENDBRANCH   8  23
TORSDOF 5
ENDMDL
MODEL 9
REMARK VINA RESULT:      -8.4      3.074      9.348
REMARK  Name = 
REMARK  6 active torsions:
REMARK  status: ('A' for Active; 'I' for Inactive)
REMARK    1  A    between atoms: C_1  and  C_2
REMARK    2  A    between atoms: C_5  and  C_6
REMARK    3  A    between atoms: C_6  and  N_7
REMARK    4  A    between atoms: C_8  and  C_10
REMARK    5  A    between atoms: N_17  and  C_18
REMARK    6  A    between atoms: C_18  and  C_19
REMARK                            x       y       z     vdW  Elec       q    Type
REMARK                         _______ _______ _______ _____ _____    ______ ____
ROOT
ATOM      1  C   UNL     1       0.916   9.406  20.217  0.00  0.00    +0.000 A 
ATOM      2  C   UNL     1       1.185   8.837  21.484  0.00  0.00    +0.000 A 
ATOM      3  C   UNL     1       0.514   9.298  22.629  0.00  0.00    +0.000 A 
ATOM      4  C   UNL     1      -0.397  10.322  22.466  0.00  0.00    +0.000 A 
ATOM      5  O   UNL     1      -1.138  10.914  23.476  0.00  0.00    +0.000 OA
ATOM      6  C   UNL     1      -1.847  11.913  22.787  0.00  0.00    +0.000 A 
ATOM      7  O   UNL     1      -2.608  12.692  23.349  0.00  0.00    +0.000 OA
ATOM      8  N   UNL     1      -1.545  11.893  21.444  0.00  0.00    +0.000 N 
ATOM      9  C   UNL     1      -0.643  10.880  21.229  0.00  0.00    +0.000 A 
ATOM     10  C   UNL     1      -0.023  10.437  20.083  0.00  0.00    +0.000 A 
ENDROOT
BRANCH   1  12
ATOM     11  N   UNL     1       2.297   7.751  19.071  0.00  0.00    +0.000 N 
ATOM     12  C   UNL     1       1.575   8.919  18.976  0.00  0.00    +0.000 C 
ATOM     13  O   UNL     1       1.482   9.579  17.946  0.00  0.00    +0.000 OA
ATOM     14  H   UNL     1       2.550   7.393  19.981  0.00  0.00    +0.000 HD
BRANCH  11  15
ATOM     15  C   UNL     1       3.037   7.251  17.931  0.00  0.00    +0.000 C 
BRANCH  15  20
ATOM     16  C   UNL     1       3.516   1.455  18.302  0.00  0.00    +0.000 C 
ATOM     17  C   UNL     1       3.403   2.944  18.162  0.00  0.00    +0.000 A 
ATOM     18  C   UNL     1       4.540   3.757  18.192  0.00  0.00    +0.000 A 
ATOM     19  C   UNL     1       4.418   5.147  18.094  0.00  0.00    +0.000 A 
ATOM     20  C   UNL     1       3.160   5.749  17.961  0.00  0.00    +0.000 A 
ATOM     21  C   UNL     1       2.023   4.931  17.922  0.00  0.00    +0.000 A 
ATOM     22  C   UNL     1       2.145   3.541  18.022  0.00  0.00    +0.000 A 
ENDBRANCH  15  20
ENDBRANCH  11  15
ENDBRANCH   1  12
BRANCH   8  23
ATOM     23  C   UNL     1      -1.998  12.842  20.458  0.00  0.00    +0.000 C 
BRANCH  23  24
ATOM     24  C   UNL     1      -3.194  12.372  19.666  0.00  0.00    +0.000 A 
ATOM     25  C   UNL     1      -4.492  12.653  20.114  0.00  0.00    +0.000 A 
ATOM     26  C   UNL     1      -5.601  12.271  19.359  0.00  0.00    +0.000 A 
ATOM     27  C   UNL     1      -5.427  11.605  18.149  0.00  0.00    +0.000 A 
ATOM     28  C   UNL     1      -4.142  11.312  17.695  0.00  0.00    +0.000 A 
ATOM     29  C   UNL     1      -3.030  11.693  18.448  0.00  0.00    +0.000 A 
ENDBRANCH  23  24
ENDBRANCH   8  23
TORSDOF 5
ENDMDL
