MODEL 1
REMARK VINA RESULT:      -7.4      0.000      0.000
REMARK  Name = 
REMARK  5 active torsions:
REMARK  status: ('A' for Active; 'I' for Inactive)
REMARK    1  A    between atoms: C_1  and  C_2
REMARK    2  A    between atoms: C_2  and  C_4
REMARK    3  A    between atoms: C_8  and  N_9
REMARK    4  A    between atoms: C_10  and  C_12
REMARK    5  A    between atoms: C_14  and  C_15
REMARK                            x       y       z     vdW  Elec       q    Type
REMARK                         _______ _______ _______ _____ _____    ______ ____
ROOT
ATOM      1  N   UNL     1       5.173   5.282  15.817  0.00  0.00    +0.000 N 
ATOM      2  C   UNL     1       4.751   4.451  16.842  0.00  0.00    +0.000 C 
ATOM      3  O   UNL     1       4.967   3.244  16.924  0.00  0.00    +0.000 OA
ATOM      4  H   UNL     1       5.006   6.274  15.962  0.00  0.00    +0.000 HD
ENDROOT
BRANCH   1   9
ATOM      5  C   UNL     1       5.862   3.605  12.573  0.00  0.00    +0.000 A 
ATOM      6  C   UNL     1       7.151   4.066  12.286  0.00  0.00    +0.000 A 
ATOM      7  C   UNL     1       7.795   4.921  13.175  0.00  0.00    +0.000 A 
ATOM      8  C   UNL     1       7.154   5.326  14.347  0.00  0.00    +0.000 A 
ATOM      9  C   UNL     1       5.861   4.889  14.648  0.00  0.00    +0.000 A 
ATOM     10  C   UNL     1       5.222   4.015  13.760  0.00  0.00    +0.000 A 
BRANCH   5  12
ATOM     11  C   UNL     1       3.838   3.147  11.033  0.00  0.00    +0.000 C 
ATOM     12  C   UNL     1       5.143   2.690  11.637  0.00  0.00    +0.000 C 
ATOM     13  O   UNL     1       5.622   1.591  11.367  0.00  0.00    +0.000 OA
ENDBRANCH   5  12
ENDBRANCH   1   9
BRANCH   2  14
ATOM     14  C   UNL     1       4.024   5.131  17.917  0.00  0.00    +0.000 A 
ATOM     15  C   UNL     1       3.482   6.438  17.855  0.00  0.00    +0.000 A 
ATOM     16  C   UNL     1       2.841   6.638  19.058  0.00  0.00    +0.000 A 
ATOM     17  O   UNL     1       3.043   5.511  19.818  0.00  0.00    +0.000 OA
ATOM     18  N   UNL     1       3.772   4.568  19.108  0.00  0.00    +0.000 NA
BRANCH  16  19
ATOM     19  C   UNL     1       2.060   7.756  19.513  0.00  0.00    +0.000 A 
ATOM     20  C   UNL     1       1.497   7.915  20.764  0.00  0.00    +0.000 A 
ATOM     21  C   UNL     1       0.740   9.118  20.879  0.00  0.00    +0.000 A 
ATOM     22  C   UNL     1       0.754   9.847  19.712  0.00  0.00    +0.000 A 
ATOM     23  S   UNL     1       1.684   9.088  18.496  0.00  0.00    +0.000 S 
ENDBRANCH  16  19
ENDBRANCH   2  14
TORSDOF 4
ENDMDL
MODEL 2
REMARK VINA RESULT:      -7.4      2.684      3.834
REMARK  Name = 
REMARK  5 active torsions:
REMARK  status: ('A' for Active; 'I' for Inactive)
REMARK    1  A    between atoms: C_1  and  C_2
REMARK    2  A    between atoms: C_2  and  C_4
REMARK    3  A    between atoms: C_8  and  N_9
REMARK    4  A    between atoms: C_10  and  C_12
REMARK    5  A    between atoms: C_14  and  C_15
REMARK                            x       y       z     vdW  Elec       q    Type
REMARK                         _______ _______ _______ _____ _____    ______ ____
ROOT
ATOM      1  N   UNL     1       4.409   7.237  17.788  0.00  0.00    +0.000 N 
ATOM      2  C   UNL     1       3.088   6.950  18.097  0.00  0.00    +0.000 C 
ATOM      3  O   UNL     1       2.602   5.827  18.196  0.00  0.00    +0.000 OA
ATOM      4  H   UNL     1       4.670   8.217  17.857  0.00  0.00    +0.000 HD
ENDROOT
BRANCH   1   9
ATOM      5  C   UNL     1       6.667   5.118  15.735  0.00  0.00    +0.000 A 
ATOM      6  C   UNL     1       7.416   4.468  16.721  0.00  0.00    +0.000 A 
ATOM      7  C   UNL     1       7.162   4.722  18.064  0.00  0.00    +0.000 A 
ATOM      8  C   UNL     1       6.169   5.631  18.430  0.00  0.00    +0.000 A 
ATOM      9  C   UNL     1       5.416   6.303  17.462  0.00  0.00    +0.000 A 
ATOM     10  C   UNL     1       5.663   6.032  16.110  0.00  0.00    +0.000 A 
BRANCH   5  12
ATOM     11  C   UNL     1       6.068   3.856  13.560  0.00  0.00    +0.000 C 
ATOM     12  C   UNL     1       6.919   4.870  14.283  0.00  0.00    +0.000 C 
ATOM     13  O   UNL     1       7.804   5.494  13.701  0.00  0.00    +0.000 OA
ENDBRANCH   5  12
ENDBRANCH   1   9
BRANCH   2  14
ATOM     14  C   UNL     1       2.255   8.126  18.356  0.00  0.00    +0.000 A 
ATOM     15  C   UNL     1       1.550   8.397  19.554  0.00  0.00    +0.000 A 
ATOM     16  C   UNL     1       0.958   9.628  19.373  0.00  0.00    +0.000 A 
ATOM     17  O   UNL     1       1.260  10.041  18.098  0.00  0.00    +0.000 OA
ATOM     18  N   UNL     1       2.074   9.113  17.465  0.00  0.00    +0.000 NA
BRANCH  16  19
ATOM     19  C   UNL     1       0.184  10.423  20.288  0.00  0.00    +0.000 A 
ATOM     20  C   UNL     1       0.315  10.462  21.662  0.00  0.00    +0.000 A 
ATOM     21  C   UNL     1      -0.641  11.318  22.283  0.00  0.00    +0.000 A 
ATOM     22  C   UNL     1      -1.470  11.916  21.362  0.00  0.00    +0.000 A 
ATOM     23  S   UNL     1      -1.086  11.452  19.763  0.00  0.00    +0.000 S 
ENDBRANCH  16  19
ENDBRANCH   2  14
TORSDOF 4
ENDMDL
MODEL 3
REMARK VINA RESULT:      -7.3      3.420      5.239
REMARK  Name = 
REMARK  5 active torsions:
REMARK  status: ('A' for Active; 'I' for Inactive)
REMARK    1  A    between atoms: C_1  and  C_2
REMARK    2  A    between atoms: C_2  and  C_4
REMARK    3  A    between atoms: C_8  and  N_9
REMARK    4  A    between atoms: C_10  and  C_12
REMARK    5  A    between atoms: C_14  and  C_15
REMARK                            x       y       z     vdW  Elec       q    Type
REMARK                         _______ _______ _______ _____ _____    ______ ____
ROOT
ATOM      1  N   UNL     1       2.688   6.568  19.242  0.00  0.00    +0.000 N 
ATOM      2  C   UNL     1       2.161   7.810  18.924  0.00  0.00    +0.000 C 
ATOM      3  O   UNL     1       2.190   8.341  17.817  0.00  0.00    +0.000 OA
ATOM      4  H   UNL     1       2.478   6.231  20.177  0.00  0.00    +0.000 HD
ENDROOT
BRANCH   1   9
ATOM      5  C   UNL     1       5.523   5.203  17.265  0.00  0.00    +0.000 A 
ATOM      6  C   UNL     1       4.941   4.074  16.681  0.00  0.00    +0.000 A 
ATOM      7  C   UNL     1       3.606   3.774  16.932  0.00  0.00    +0.000 A 
ATOM      8  C   UNL     1       2.850   4.592  17.773  0.00  0.00    +0.000 A 
ATOM      9  C   UNL     1       3.414   5.719  18.378  0.00  0.00    +0.000 A 
ATOM     10  C   UNL     1       4.753   6.028  18.109  0.00  0.00    +0.000 A 
BRANCH   5  12
ATOM     11  C   UNL     1       7.460   6.904  17.447  0.00  0.00    +0.000 C 
ATOM     12  C   UNL     1       6.955   5.549  17.018  0.00  0.00    +0.000 C 
ATOM     13  O   UNL     1       7.698   4.731  16.481  0.00  0.00    +0.000 OA
ENDBRANCH   5  12
ENDBRANCH   1   9
BRANCH   2  14
ATOM     14  C   UNL     1       1.487   8.487  20.035  0.00  0.00    +0.000 A 
ATOM     15  C   UNL     1       0.697   9.658  19.937  0.00  0.00    +0.000 A 
ATOM     16  C   UNL     1       0.220   9.898  21.208  0.00  0.00    +0.000 A 
ATOM     17  O   UNL     1       0.752   8.934  22.030  0.00  0.00    +0.000 OA
ATOM     18  N   UNL     1       1.535   8.050  21.302  0.00  0.00    +0.000 NA
BRANCH  16  19
ATOM     19  C   UNL     1      -0.686  10.911  21.677  0.00  0.00    +0.000 A 
ATOM     20  C   UNL     1      -1.170  11.053  22.963  0.00  0.00    +0.000 A 
ATOM     21  C   UNL     1      -2.091  12.135  23.088  0.00  0.00    +0.000 A 
ATOM     22  C   UNL     1      -2.278  12.792  21.894  0.00  0.00    +0.000 A 
ATOM     23  S   UNL     1      -1.338  12.113  20.638  0.00  0.00    +0.000 S 
ENDBRANCH  16  19
ENDBRANCH   2  14
TORSDOF 4
ENDMDL
MODEL 4
REMARK VINA RESULT:      -7.1      5.949      7.069
REMARK  Name = 
REMARK  5 active torsions:
REMARK  status: ('A' for Active; 'I' for Inactive)
REMARK    1  A    between atoms: C_1  and  C_2
REMARK    2  A    between atoms: C_2  and  C_4
REMARK    3  A    between atoms: C_8  and  N_9
REMARK    4  A    between atoms: C_10  and  C_12
REMARK    5  A    between atoms: C_14  and  C_15
REMARK                            x       y       z     vdW  Elec       q    Type
REMARK                         _______ _______ _______ _____ _____    ______ ____
ROOT
ATOM      1  N   UNL     1       6.869   7.391  16.969  0.00  0.00    +0.000 N 
ATOM      2  C   UNL     1       7.773   7.654  17.986  0.00  0.00    +0.000 C 
ATOM      3  O   UNL     1       8.244   6.826  18.761  0.00  0.00    +0.000 OA
ATOM      4  H   UNL     1       6.669   8.171  16.349  0.00  0.00    +0.000 HD
ENDROOT
BRANCH   1   9
ATOM      5  C   UNL     1       4.376   4.636  16.985  0.00  0.00    +0.000 A 
ATOM      6  C   UNL     1       4.991   3.695  16.153  0.00  0.00    +0.000 A 
ATOM      7  C   UNL     1       6.237   3.970  15.599  0.00  0.00    +0.000 A 
ATOM      8  C   UNL     1       6.869   5.185  15.864  0.00  0.00    +0.000 A 
ATOM      9  C   UNL     1       6.268   6.146  16.682  0.00  0.00    +0.000 A 
ATOM     10  C   UNL     1       5.021   5.860  17.253  0.00  0.00    +0.000 A 
BRANCH   5  12
ATOM     11  C   UNL     1       2.261   5.529  18.172  0.00  0.00    +0.000 C 
ATOM     12  C   UNL     1       3.036   4.373  17.591  0.00  0.00    +0.000 C 
ATOM     13  O   UNL     1       2.583   3.230  17.602  0.00  0.00    +0.000 OA
ENDBRANCH   5  12
ENDBRANCH   1   9
BRANCH   2  14
ATOM     14  C   UNL     1       8.202   9.053  18.071  0.00  0.00    +0.000 A 
ATOM     15  C   UNL     1       9.224   9.559  18.912  0.00  0.00    +0.000 A 
ATOM     16  C   UNL     1       9.323  10.901  18.617  0.00  0.00    +0.000 A 
ATOM     17  O   UNL     1       8.361  11.184  17.678  0.00  0.00    +0.000 OA
ATOM     18  N   UNL     1       7.667  10.035  17.330  0.00  0.00    +0.000 NA
BRANCH  16  19
ATOM     19  C   UNL     1      10.240  11.890  19.117  0.00  0.00    +0.000 A 
ATOM     20  C   UNL     1      11.618  11.801  19.136  0.00  0.00    +0.000 A 
ATOM     21  C   UNL     1      12.235  12.934  19.744  0.00  0.00    +0.000 A 
ATOM     22  C   UNL     1      11.308  13.859  20.165  0.00  0.00    +0.000 A 
ATOM     23  S   UNL     1       9.710  13.365  19.815  0.00  0.00    +0.000 S 
ENDBRANCH  16  19
ENDBRANCH   2  14
TORSDOF 4
ENDMDL
MODEL 5
REMARK VINA RESULT:      -7.1      0.839      1.027
REMARK  Name = 
REMARK  5 active torsions:
REMARK  status: ('A' for Active; 'I' for Inactive)
REMARK    1  A    between atoms: C_1  and  C_2
REMARK    2  A    between atoms: C_2  and  C_4
REMARK    3  A    between atoms: C_8  and  N_9
REMARK    4  A    between atoms: C_10  and  C_12
REMARK    5  A    between atoms: C_14  and  C_15
REMARK                            x       y       z     vdW  Elec       q    Type
REMARK                         _______ _______ _______ _____ _____    ______ ____
ROOT
ATOM      1  N   UNL     1       5.011   5.358  15.683  0.00  0.00    +0.000 N 
ATOM      2  C   UNL     1       5.257   5.074  17.017  0.00  0.00    +0.000 C 
ATOM      3  O   UNL     1       6.210   4.433  17.452  0.00  0.00    +0.000 OA
ATOM      4  H   UNL     1       4.239   5.995  15.507  0.00  0.00    +0.000 HD
ENDROOT
BRANCH   1   9
ATOM      5  C   UNL     1       5.866   3.554  12.549  0.00  0.00    +0.000 A 
ATOM      6  C   UNL     1       7.185   3.968  12.337  0.00  0.00    +0.000 A 
ATOM      7  C   UNL     1       7.793   4.834  13.240  0.00  0.00    +0.000 A 
ATOM      8  C   UNL     1       7.087   5.297  14.351  0.00  0.00    +0.000 A 
ATOM      9  C   UNL     1       5.764   4.907  14.577  0.00  0.00    +0.000 A 
ATOM     10  C   UNL     1       5.160   4.022  13.676  0.00  0.00    +0.000 A 
BRANCH   5  12
ATOM     11  C   UNL     1       3.894   3.072  10.949  0.00  0.00    +0.000 C 
ATOM     12  C   UNL     1       5.183   2.629  11.595  0.00  0.00    +0.000 C 
ATOM     13  O   UNL     1       5.680   1.533  11.345  0.00  0.00    +0.000 OA
ENDBRANCH   5  12
ENDBRANCH   1   9
BRANCH   2  14
ATOM     14  C   UNL     1       4.283   5.648  17.950  0.00  0.00    +0.000 A 
ATOM     15  C   UNL     1       3.743   6.956  17.887  0.00  0.00    +0.000 A 
ATOM     16  C   UNL     1       2.834   7.038  18.920  0.00  0.00    +0.000 A 
ATOM     17  O   UNL     1       2.877   5.842  19.595  0.00  0.00    +0.000 OA
ATOM     18  N   UNL     1       3.772   4.972  18.990  0.00  0.00    +0.000 NA
BRANCH  16  19
ATOM     19  C   UNL     1       1.944   8.108  19.282  0.00  0.00    +0.000 A 
ATOM     20  C   UNL     1       1.525   9.143  18.470  0.00  0.00    +0.000 A 
ATOM     21  C   UNL     1       0.680  10.069  19.149  0.00  0.00    +0.000 A 
ATOM     22  C   UNL     1       0.471   9.708  20.460  0.00  0.00    +0.000 A 
ATOM     23  S   UNL     1       1.282   8.257  20.859  0.00  0.00    +0.000 S 
ENDBRANCH  16  19
ENDBRANCH   2  14
TORSDOF 4
ENDMDL
MODEL 6
REMARK VINA RESULT:      -7.0      5.165      7.517
REMARK  Name = 
REMARK  5 active torsions:
REMARK  status: ('A' for Active; 'I' for Inactive)
REMARK    1  A    between atoms: C_1  and  C_2
REMARK    2  A    between atoms: C_2  and  C_4
REMARK    3  A    between atoms: C_8  and  N_9
REMARK    4  A    between atoms: C_10  and  C_12
REMARK    5  A    between atoms: C_14  and  C_15
REMARK                            x       y       z     vdW  Elec       q    Type
REMARK                         _______ _______ _______ _____ _____    ______ ____
ROOT
ATOM      1  N   UNL     1       1.386   7.660  20.989  0.00  0.00    +0.000 N 
ATOM      2  C   UNL     1       0.957   8.898  20.536  0.00  0.00    +0.000 C 
ATOM      3  O   UNL     1       0.970   9.279  19.368  0.00  0.00    +0.000 OA
ATOM      4  H   UNL     1       1.202   7.466  21.969  0.00  0.00    +0.000 HD
ENDROOT
BRANCH   1   9
ATOM      5  C   UNL     1       2.272   4.257  19.789  0.00  0.00    +0.000 A 
ATOM      6  C   UNL     1       3.107   4.548  18.706  0.00  0.00    +0.000 A 
ATOM      7  C   UNL     1       3.387   5.873  18.384  0.00  0.00    +0.000 A 
ATOM      8  C   UNL     1       2.828   6.909  19.132  0.00  0.00    +0.000 A 
ATOM      9  C   UNL     1       1.980   6.642  20.211  0.00  0.00    +0.000 A 
ATOM     10  C   UNL     1       1.714   5.308  20.544  0.00  0.00    +0.000 A 
BRANCH   5  12
ATOM     11  C   UNL     1       1.584   2.532  21.587  0.00  0.00    +0.000 C 
ATOM     12  C   UNL     1       1.949   2.845  20.157  0.00  0.00    +0.000 C 
ATOM     13  O   UNL     1       1.977   1.967  19.297  0.00  0.00    +0.000 OA
ENDBRANCH   5  12
ENDBRANCH   1   9
BRANCH   2  14
ATOM     14  C   UNL     1       0.413   9.772  21.578  0.00  0.00    +0.000 A 
ATOM     15  C   UNL     1      -0.348  10.947  21.364  0.00  0.00    +0.000 A 
ATOM     16  C   UNL     1      -0.692  11.406  22.617  0.00  0.00    +0.000 A 
ATOM     17  O   UNL     1      -0.112  10.562  23.533  0.00  0.00    +0.000 OA
ATOM     18  N   UNL     1       0.570   9.540  22.891  0.00  0.00    +0.000 NA
BRANCH  16  19
ATOM     19  C   UNL     1      -1.519  12.520  22.996  0.00  0.00    +0.000 A 
ATOM     20  C   UNL     1      -1.088  13.783  23.352  0.00  0.00    +0.000 A 
ATOM     21  C   UNL     1      -2.160  14.647  23.720  0.00  0.00    +0.000 A 
ATOM     22  C   UNL     1      -3.381  14.020  23.627  0.00  0.00    +0.000 A 
ATOM     23  S   UNL     1      -3.229  12.406  23.088  0.00  0.00    +0.000 S 
ENDBRANCH  16  19
ENDBRANCH   2  14
TORSDOF 4
ENDMDL
MODEL 7
REMARK VINA RESULT:      -7.0      4.213      6.077
REMARK  Name = 
REMARK  5 active torsions:
REMARK  status: ('A' for Active; 'I' for Inactive)
REMARK    1  A    between atoms: C_1  and  C_2
REMARK    2  A    between atoms: C_2  and  C_4
REMARK    3  A    between atoms: C_8  and  N_9
REMARK    4  A    between atoms: C_10  and  C_12
REMARK    5  A    between atoms: C_14  and  C_15
REMARK                            x       y       z     vdW  Elec       q    Type
REMARK                         _______ _______ _______ _____ _____    ______ ____
ROOT
ATOM      1  N   UNL     1       2.116   7.490  18.944  0.00  0.00    +0.000 N 
ATOM      2  C   UNL     1       2.038   8.651  18.191  0.00  0.00    +0.000 C 
ATOM      3  O   UNL     1       2.477   8.801  17.054  0.00  0.00    +0.000 OA
ATOM      4  H   UNL     1       1.603   7.502  19.821  0.00  0.00    +0.000 HD
ENDROOT
BRANCH   1   9
ATOM      5  C   UNL     1       4.854   5.034  18.419  0.00  0.00    +0.000 A 
ATOM      6  C   UNL     1       4.158   3.945  17.884  0.00  0.00    +0.000 A 
ATOM      7  C   UNL     1       2.784   4.033  17.685  0.00  0.00    +0.000 A 
ATOM      8  C   UNL     1       2.099   5.199  18.027  0.00  0.00    +0.000 A 
ATOM      9  C   UNL     1       2.772   6.294  18.575  0.00  0.00    +0.000 A 
ATOM     10  C   UNL     1       4.158   6.211  18.758  0.00  0.00    +0.000 A 
BRANCH   5  12
ATOM     11  C   UNL     1       7.237   4.694  17.475  0.00  0.00    +0.000 C 
ATOM     12  C   UNL     1       6.330   4.970  18.648  0.00  0.00    +0.000 C 
ATOM     13  O   UNL     1       6.781   5.149  19.777  0.00  0.00    +0.000 OA
ENDBRANCH   5  12
ENDBRANCH   1   9
BRANCH   2  14
ATOM     14  C   UNL     1       1.324   9.752  18.844  0.00  0.00    +0.000 A 
ATOM     15  C   UNL     1       0.299   9.619  19.813  0.00  0.00    +0.000 A 
ATOM     16  C   UNL     1      -0.035  10.902  20.187  0.00  0.00    +0.000 A 
ATOM     17  O   UNL     1       0.728  11.757  19.429  0.00  0.00    +0.000 OA
ATOM     18  N   UNL     1       1.580  11.046  18.599  0.00  0.00    +0.000 NA
BRANCH  16  19
ATOM     19  C   UNL     1      -0.962  11.360  21.186  0.00  0.00    +0.000 A 
ATOM     20  C   UNL     1      -1.977  12.279  21.010  0.00  0.00    +0.000 A 
ATOM     21  C   UNL     1      -2.689  12.552  22.215  0.00  0.00    +0.000 A 
ATOM     22  C   UNL     1      -2.200  11.826  23.276  0.00  0.00    +0.000 A 
ATOM     23  S   UNL     1      -0.901  10.816  22.813  0.00  0.00    +0.000 S 
ENDBRANCH  16  19
ENDBRANCH   2  14
TORSDOF 4
ENDMDL
MODEL 8
REMARK VINA RESULT:      -7.0      2.425      3.641
REMARK  Name = 
REMARK  5 active torsions:
REMARK  status: ('A' for Active; 'I' for Inactive)
REMARK    1  A    between atoms: C_1  and  C_2
REMARK    2  A    between atoms: C_2  and  C_4
REMARK    3  A    between atoms: C_8  and  N_9
REMARK    4  A    between atoms: C_10  and  C_12
REMARK    5  A    between atoms: C_14  and  C_15
REMARK                            x       y       z     vdW  Elec       q    Type
REMARK                         _______ _______ _______ _____ _____    ______ ____
ROOT
ATOM      1  N   UNL     1       4.480   6.888  18.012  0.00  0.00    +0.000 N 
ATOM      2  C   UNL     1       3.137   6.580  18.159  0.00  0.00    +0.000 C 
ATOM      3  O   UNL     1       2.618   5.495  17.911  0.00  0.00    +0.000 OA
ATOM      4  H   UNL     1       4.762   7.797  18.369  0.00  0.00    +0.000 HD
ENDROOT
BRANCH   1   9
ATOM      5  C   UNL     1       6.411   4.880  15.553  0.00  0.00    +0.000 A 
ATOM      6  C   UNL     1       7.445   4.378  16.350  0.00  0.00    +0.000 A 
ATOM      7  C   UNL     1       7.493   4.695  17.704  0.00  0.00    +0.000 A 
ATOM      8  C   UNL     1       6.518   5.520  18.265  0.00  0.00    +0.000 A 
ATOM      9  C   UNL     1       5.482   6.043  17.486  0.00  0.00    +0.000 A 
ATOM     10  C   UNL     1       5.426   5.708  16.128  0.00  0.00    +0.000 A 
BRANCH   5  12
ATOM     11  C   UNL     1       7.483   4.958  13.203  0.00  0.00    +0.000 C 
ATOM     12  C   UNL     1       6.334   4.561  14.096  0.00  0.00    +0.000 C 
ATOM     13  O   UNL     1       5.348   3.978  13.649  0.00  0.00    +0.000 OA
ENDBRANCH   5  12
ENDBRANCH   1   9
BRANCH   2  14
ATOM     14  C   UNL     1       2.319   7.669  18.699  0.00  0.00    +0.000 A 
ATOM     15  C   UNL     1       1.760   8.737  17.955  0.00  0.00    +0.000 A 
ATOM     16  C   UNL     1       1.027   9.480  18.855  0.00  0.00    +0.000 A 
ATOM     17  O   UNL     1       1.192   8.901  20.089  0.00  0.00    +0.000 OA
ATOM     18  N   UNL     1       1.988   7.770  19.996  0.00  0.00    +0.000 NA
BRANCH  16  19
ATOM     19  C   UNL     1       0.194  10.632  18.637  0.00  0.00    +0.000 A 
ATOM     20  C   UNL     1      -1.113  10.632  18.193  0.00  0.00    +0.000 A 
ATOM     21  C   UNL     1      -1.641  11.948  18.036  0.00  0.00    +0.000 A 
ATOM     22  C   UNL     1      -0.722  12.914  18.373  0.00  0.00    +0.000 A 
ATOM     23  S   UNL     1       0.760  12.234  18.885  0.00  0.00    +0.000 S 
ENDBRANCH  16  19
ENDBRANCH   2  14
TORSDOF 4
ENDMDL
MODEL 9
REMARK VINA RESULT:      -7.0      3.165      5.158
REMARK  Name = 
REMARK  5 active torsions:
REMARK  status: ('A' for Active; 'I' for Inactive)
REMARK    1  A    between atoms: C_1  and  C_2
REMARK    2  A    between atoms: C_2  and  C_4
REMARK    3  A    between atoms: C_8  and  N_9
REMARK    4  A    between atoms: C_10  and  C_12
REMARK    5  A    between atoms: C_14  and  C_15
REMARK                            x       y       z     vdW  Elec       q    Type
REMARK                         _______ _______ _______ _____ _____    ______ ____
ROOT
ATOM      1  N   UNL     1       2.565   6.625  19.213  0.00  0.00    +0.000 N 
ATOM      2  C   UNL     1       2.058   7.879  18.910  0.00  0.00    +0.000 C 
ATOM      3  O   UNL     1       2.015   8.385  17.792  0.00  0.00    +0.000 OA
ATOM      4  H   UNL     1       2.421   6.315  20.170  0.00  0.00    +0.000 HD
ENDROOT
BRANCH   1   9
ATOM      5  C   UNL     1       5.045   5.266  16.803  0.00  0.00    +0.000 A 
ATOM      6  C   UNL     1       4.502   4.009  16.517  0.00  0.00    +0.000 A 
ATOM      7  C   UNL     1       3.306   3.620  17.114  0.00  0.00    +0.000 A 
ATOM      8  C   UNL     1       2.655   4.476  18.002  0.00  0.00    +0.000 A 
ATOM      9  C   UNL     1       3.186   5.731  18.312  0.00  0.00    +0.000 A 
ATOM     10  C   UNL     1       4.380   6.128  17.697  0.00  0.00    +0.000 A 
BRANCH   5  12
ATOM     11  C   UNL     1       6.948   4.861  15.101  0.00  0.00    +0.000 C 
ATOM     12  C   UNL     1       6.329   5.712  16.182  0.00  0.00    +0.000 C 
ATOM     13  O   UNL     1       6.855   6.759  16.551  0.00  0.00    +0.000 OA
ENDBRANCH   5  12
ENDBRANCH   1   9
BRANCH   2  14
ATOM     14  C   UNL     1       1.502   8.603  20.056  0.00  0.00    +0.000 A 
ATOM     15  C   UNL     1       0.920   9.894  20.021  0.00  0.00    +0.000 A 
ATOM     16  C   UNL     1       0.485  10.146  21.303  0.00  0.00    +0.000 A 
ATOM     17  O   UNL     1       0.844   9.066  22.074  0.00  0.00    +0.000 OA
ATOM     18  N   UNL     1       1.470   8.101  21.300  0.00  0.00    +0.000 NA
BRANCH  16  19
ATOM     19  C   UNL     1      -0.240  11.272  21.826  0.00  0.00    +0.000 A 
ATOM     20  C   UNL     1      -1.136  11.260  22.877  0.00  0.00    +0.000 A 
ATOM     21  C   UNL     1      -1.722  12.538  23.116  0.00  0.00    +0.000 A 
ATOM     22  C   UNL     1      -1.249  13.491  22.244  0.00  0.00    +0.000 A 
ATOM     23  S   UNL     1      -0.099  12.846  21.157  0.00  0.00    +0.000 S 
ENDBRANCH  16  19
ENDBRANCH   2  14
TORSDOF 4
ENDMDL
