MODEL 1
REMARK VINA RESULT:      -8.1      0.000      0.000
REMARK  Name = 
REMARK  5 active torsions:
REMARK  status: ('A' for Active; 'I' for Inactive)
REMARK    1  A    between atoms: C_1  and  C_2
REMARK    2  A    between atoms: C_5  and  C_6
REMARK    3  A    between atoms: N_15  and  C_16
REMARK    4  A    between atoms: C_18  and  C_19
REMARK    5  A    between atoms: C_19  and  N_20
REMARK                            x       y       z     vdW  Elec       q    Type
REMARK                         _______ _______ _______ _____ _____    ______ ____
ROOT
ATOM      1  C   UNL     1       1.946  10.404  17.815  0.00  0.00    +0.000 C 
ATOM      2  C   UNL     1       1.360   9.884  19.098  0.00  0.00    +0.000 A 
ATOM      3  C   UNL     1       0.660  10.787  19.895  0.00  0.00    +0.000 A 
ATOM      4  N   UNL     1       0.181  10.361  21.080  0.00  0.00    +0.000 N 
ATOM      5  C   UNL     1      -0.501  11.027  22.033  0.00  0.00    +0.000 A 
ATOM      6  C   UNL     1      -0.659  10.158  23.104  0.00  0.00    +0.000 A 
ATOM      7  N   UNL     1      -0.129   8.950  22.781  0.00  0.00    +0.000 NA
ATOM      8  C   UNL     1       0.381   9.122  21.543  0.00  0.00    +0.000 A 
ATOM      9  C   UNL     1       1.050   8.163  20.755  0.00  0.00    +0.000 A 
ATOM     10  N   UNL     1       1.276   6.844  21.283  0.00  0.00    +0.000 N 
ATOM     11  N   UNL     1       1.530   8.581  19.529  0.00  0.00    +0.000 NA
ATOM     12  H   UNL     1       0.981   6.687  22.258  0.00  0.00    +0.000 HD
ENDROOT
BRANCH   5  13
ATOM     13  C   UNL     1      -0.993  12.426  21.936  0.00  0.00    +0.000 A 
ATOM     14  C   UNL     1      -0.354  13.586  22.332  0.00  0.00    +0.000 A 
ATOM     15  N   UNL     1      -1.159  14.640  22.080  0.00  0.00    +0.000 NA
ATOM     16  N   UNL     1      -2.290  14.178  21.558  0.00  0.00    +0.000 N 
ATOM     17  C   UNL     1      -2.225  12.843  21.463  0.00  0.00    +0.000 A 
ATOM     18  H   UNL     1      -3.104  14.771  21.291  0.00  0.00    +0.000 HD
ENDBRANCH   5  13
BRANCH  10  19
ATOM     19  C   UNL     1       1.931   5.732  20.667  0.00  0.00    +0.000 A 
ATOM     20  C   UNL     1       3.074   5.832  19.869  0.00  0.00    +0.000 A 
ATOM     21  C   UNL     1       3.526   4.587  19.363  0.00  0.00    +0.000 A 
ATOM     22  N   UNL     1       2.793   3.509  19.760  0.00  0.00    +0.000 NA
ATOM     23  S   UNL     1       1.563   4.107  20.724  0.00  0.00    +0.000 S 
BRANCH  21  24
ATOM     24  C   UNL     1       4.764   4.455  18.486  0.00  0.00    +0.000 C 
BRANCH  24  25
ATOM     25  N   UNL     1       4.700   5.263  17.237  0.00  0.00    +0.000 NA
ATOM     26  C   UNL     1       4.852   4.492  15.983  0.00  0.00    +0.000 C 
ATOM     27  C   UNL     1       6.295   3.989  15.786  0.00  0.00    +0.000 C 
ATOM     28  C   UNL     1       7.274   5.170  15.790  0.00  0.00    +0.000 C 
ATOM     29  C   UNL     1       7.109   6.017  17.060  0.00  0.00    +0.000 C 
ATOM     30  F   UNL     1       7.544   5.307  18.164  0.00  0.00    +0.000 F 
ATOM     31  F   UNL     1       7.892   7.154  16.948  0.00  0.00    +0.000 F 
ATOM     32  C   UNL     1       5.629   6.429  17.234  0.00  0.00    +0.000 C 
ENDBRANCH  24  25
ENDBRANCH  21  24
ENDBRANCH  10  19
TORSDOF 4
ENDMDL
MODEL 2
REMARK VINA RESULT:      -8.0      2.918      3.991
REMARK  Name = 
REMARK  5 active torsions:
REMARK  status: ('A' for Active; 'I' for Inactive)
REMARK    1  A    between atoms: C_1  and  C_2
REMARK    2  A    between atoms: C_5  and  C_6
REMARK    3  A    between atoms: N_15  and  C_16
REMARK    4  A    between atoms: C_18  and  C_19
REMARK    5  A    between atoms: C_19  and  N_20
REMARK                            x       y       z     vdW  Elec       q    Type
REMARK                         _______ _______ _______ _____ _____    ______ ____
ROOT
ATOM      1  C   UNL     1      -2.453  10.996  16.732  0.00  0.00    +0.000 C 
ATOM      2  C   UNL     1      -1.855  10.963  18.111  0.00  0.00    +0.000 A 
ATOM      3  C   UNL     1      -2.439  11.774  19.082  0.00  0.00    +0.000 A 
ATOM      4  N   UNL     1      -1.881  11.811  20.308  0.00  0.00    +0.000 N 
ATOM      5  C   UNL     1      -2.231  12.516  21.402  0.00  0.00    +0.000 A 
ATOM      6  C   UNL     1      -1.262  12.278  22.367  0.00  0.00    +0.000 A 
ATOM      7  N   UNL     1      -0.360  11.385  21.884  0.00  0.00    +0.000 NA
ATOM      8  C   UNL     1      -0.770  11.135  20.622  0.00  0.00    +0.000 A 
ATOM      9  C   UNL     1      -0.167  10.273  19.684  0.00  0.00    +0.000 A 
ATOM     10  N   UNL     1       1.041   9.576  20.036  0.00  0.00    +0.000 N 
ATOM     11  N   UNL     1      -0.740  10.211  18.429  0.00  0.00    +0.000 NA
ATOM     12  H   UNL     1       1.442   9.797  20.959  0.00  0.00    +0.000 HD
ENDROOT
BRANCH   5  13
ATOM     13  C   UNL     1      -3.436  13.375  21.537  0.00  0.00    +0.000 A 
ATOM     14  C   UNL     1      -4.729  12.990  21.836  0.00  0.00    +0.000 A 
ATOM     15  N   UNL     1      -5.523  14.083  21.846  0.00  0.00    +0.000 NA
ATOM     16  N   UNL     1      -4.773  15.138  21.543  0.00  0.00    +0.000 N 
ATOM     17  C   UNL     1      -3.508  14.744  21.345  0.00  0.00    +0.000 A 
ATOM     18  H   UNL     1      -5.131  16.112  21.453  0.00  0.00    +0.000 HD
ENDBRANCH   5  13
BRANCH  10  19
ATOM     19  C   UNL     1       1.816   8.668  19.246  0.00  0.00    +0.000 A 
ATOM     20  C   UNL     1       2.123   7.359  19.623  0.00  0.00    +0.000 A 
ATOM     21  C   UNL     1       2.917   6.665  18.675  0.00  0.00    +0.000 A 
ATOM     22  N   UNL     1       3.218   7.376  17.552  0.00  0.00    +0.000 NA
ATOM     23  S   UNL     1       2.517   8.883  17.749  0.00  0.00    +0.000 S 
BRANCH  21  24
ATOM     24  C   UNL     1       3.356   5.220  18.868  0.00  0.00    +0.000 C 
BRANCH  24  25
ATOM     25  N   UNL     1       2.868   4.300  17.804  0.00  0.00    +0.000 NA
ATOM     26  C   UNL     1       1.413   4.031  17.825  0.00  0.00    +0.000 C 
ATOM     27  C   UNL     1       1.008   3.142  19.017  0.00  0.00    +0.000 C 
ATOM     28  C   UNL     1       1.779   1.817  18.976  0.00  0.00    +0.000 C 
ATOM     29  C   UNL     1       3.293   2.063  18.906  0.00  0.00    +0.000 C 
ATOM     30  F   UNL     1       3.743   2.596  20.101  0.00  0.00    +0.000 F 
ATOM     31  F   UNL     1       3.937   0.853  18.710  0.00  0.00    +0.000 F 
ATOM     32  C   UNL     1       3.622   3.017  17.734  0.00  0.00    +0.000 C 
ENDBRANCH  24  25
ENDBRANCH  21  24
ENDBRANCH  10  19
TORSDOF 4
ENDMDL
MODEL 3
REMARK VINA RESULT:      -8.0      1.084      1.430
REMARK  Name = 
REMARK  5 active torsions:
REMARK  status: ('A' for Active; 'I' for Inactive)
REMARK    1  A    between atoms: C_1  and  C_2
REMARK    2  A    between atoms: C_5  and  C_6
REMARK    3  A    between atoms: N_15  and  C_16
REMARK    4  A    between atoms: C_18  and  C_19
REMARK    5  A    between atoms: C_19  and  N_20
REMARK                            x       y       z     vdW  Elec       q    Type
REMARK                         _______ _______ _______ _____ _____    ______ ____
ROOT
ATOM      1  C   UNL     1       1.880  10.677  17.813  0.00  0.00    +0.000 C 
ATOM      2  C   UNL     1       1.325  10.109  19.090  0.00  0.00    +0.000 A 
ATOM      3  C   UNL     1       0.641  10.981  19.935  0.00  0.00    +0.000 A 
ATOM      4  N   UNL     1       0.191  10.512  21.115  0.00  0.00    +0.000 N 
ATOM      5  C   UNL     1      -0.470  11.141  22.107  0.00  0.00    +0.000 A 
ATOM      6  C   UNL     1      -0.602  10.233  23.149  0.00  0.00    +0.000 A 
ATOM      7  N   UNL     1      -0.077   9.039  22.770  0.00  0.00    +0.000 NA
ATOM      8  C   UNL     1       0.404   9.257  21.527  0.00  0.00    +0.000 A 
ATOM      9  C   UNL     1       1.056   8.329  20.690  0.00  0.00    +0.000 A 
ATOM     10  N   UNL     1       1.297   6.993  21.165  0.00  0.00    +0.000 N 
ATOM     11  N   UNL     1       1.507   8.793  19.470  0.00  0.00    +0.000 NA
ATOM     12  H   UNL     1       1.024   6.800  22.140  0.00  0.00    +0.000 HD
ENDROOT
BRANCH   5  13
ATOM     13  C   UNL     1      -0.968  12.541  22.071  0.00  0.00    +0.000 A 
ATOM     14  C   UNL     1      -0.253  13.706  22.276  0.00  0.00    +0.000 A 
ATOM     15  N   UNL     1      -1.091  14.760  22.170  0.00  0.00    +0.000 NA
ATOM     16  N   UNL     1      -2.310  14.293  21.926  0.00  0.00    +0.000 N 
ATOM     17  C   UNL     1      -2.272  12.956  21.866  0.00  0.00    +0.000 A 
ATOM     18  H   UNL     1      -3.161  14.886  21.824  0.00  0.00    +0.000 HD
ENDBRANCH   5  13
BRANCH  10  19
ATOM     19  C   UNL     1       1.940   5.905  20.494  0.00  0.00    +0.000 A 
ATOM     20  C   UNL     1       2.516   5.991  19.224  0.00  0.00    +0.000 A 
ATOM     21  C   UNL     1       3.079   4.771  18.771  0.00  0.00    +0.000 A 
ATOM     22  N   UNL     1       2.992   3.737  19.655  0.00  0.00    +0.000 NA
ATOM     23  S   UNL     1       2.188   4.334  20.996  0.00  0.00    +0.000 S 
BRANCH  21  24
ATOM     24  C   UNL     1       3.776   4.636  17.424  0.00  0.00    +0.000 C 
BRANCH  24  25
ATOM     25  N   UNL     1       5.155   4.082  17.517  0.00  0.00    +0.000 NA
ATOM     26  C   UNL     1       6.038   4.757  18.494  0.00  0.00    +0.000 C 
ATOM     27  C   UNL     1       6.452   6.164  18.022  0.00  0.00    +0.000 C 
ATOM     28  C   UNL     1       7.154   6.081  16.660  0.00  0.00    +0.000 C 
ATOM     29  C   UNL     1       6.281   5.343  15.635  0.00  0.00    +0.000 C 
ATOM     30  F   UNL     1       5.173   6.108  15.317  0.00  0.00    +0.000 F 
ATOM     31  F   UNL     1       7.013   5.150  14.475  0.00  0.00    +0.000 F 
ATOM     32  C   UNL     1       5.843   3.972  16.200  0.00  0.00    +0.000 C 
ENDBRANCH  24  25
ENDBRANCH  21  24
ENDBRANCH  10  19
TORSDOF 4
ENDMDL
MODEL 4
REMARK VINA RESULT:      -7.8      0.961      1.075
REMARK  Name = 
REMARK  5 active torsions:
REMARK  status: ('A' for Active; 'I' for Inactive)
REMARK    1  A    between atoms: C_1  and  C_2
REMARK    2  A    between atoms: C_5  and  C_6
REMARK    3  A    between atoms: N_15  and  C_16
REMARK    4  A    between atoms: C_18  and  C_19
REMARK    5  A    between atoms: C_19  and  N_20
REMARK                            x       y       z     vdW  Elec       q    Type
REMARK                         _______ _______ _______ _____ _____    ______ ____
ROOT
ATOM      1  C   UNL     1       1.859  11.131  18.048  0.00  0.00    +0.000 C 
ATOM      2  C   UNL     1       1.267  10.474  19.264  0.00  0.00    +0.000 A 
ATOM      3  C   UNL     1       0.525  11.276  20.129  0.00  0.00    +0.000 A 
ATOM      4  N   UNL     1       0.040  10.725  21.258  0.00  0.00    +0.000 N 
ATOM      5  C   UNL     1      -0.679  11.277  22.256  0.00  0.00    +0.000 A 
ATOM      6  C   UNL     1      -0.829  10.305  23.236  0.00  0.00    +0.000 A 
ATOM      7  N   UNL     1      -0.257   9.149  22.810  0.00  0.00    +0.000 NA
ATOM      8  C   UNL     1       0.270   9.453  21.605  0.00  0.00    +0.000 A 
ATOM      9  C   UNL     1       0.981   8.594  20.743  0.00  0.00    +0.000 A 
ATOM     10  N   UNL     1       1.238   7.238  21.148  0.00  0.00    +0.000 N 
ATOM     11  N   UNL     1       1.469   9.142  19.573  0.00  0.00    +0.000 NA
ATOM     12  H   UNL     1       0.931   6.980  22.097  0.00  0.00    +0.000 HD
ENDROOT
BRANCH   5  13
ATOM     13  C   UNL     1      -1.213  12.664  22.283  0.00  0.00    +0.000 A 
ATOM     14  C   UNL     1      -0.548  13.828  22.620  0.00  0.00    +0.000 A 
ATOM     15  N   UNL     1      -1.406  14.867  22.527  0.00  0.00    +0.000 NA
ATOM     16  N   UNL     1      -2.591  14.389  22.163  0.00  0.00    +0.000 N 
ATOM     17  C   UNL     1      -2.511  13.061  22.012  0.00  0.00    +0.000 A 
ATOM     18  H   UNL     1      -3.450  14.968  22.040  0.00  0.00    +0.000 HD
ENDBRANCH   5  13
BRANCH  10  19
ATOM     19  C   UNL     1       1.938   6.209  20.442  0.00  0.00    +0.000 A 
ATOM     20  C   UNL     1       2.466   6.352  19.156  0.00  0.00    +0.000 A 
ATOM     21  C   UNL     1       3.103   5.183  18.669  0.00  0.00    +0.000 A 
ATOM     22  N   UNL     1       3.119   4.135  19.540  0.00  0.00    +0.000 NA
ATOM     23  S   UNL     1       2.316   4.655  20.914  0.00  0.00    +0.000 S 
BRANCH  21  24
ATOM     24  C   UNL     1       3.765   5.117  17.299  0.00  0.00    +0.000 C 
BRANCH  24  25
ATOM     25  N   UNL     1       4.836   6.132  17.104  0.00  0.00    +0.000 NA
ATOM     26  C   UNL     1       5.171   6.428  15.692  0.00  0.00    +0.000 C 
ATOM     27  C   UNL     1       5.918   5.261  15.020  0.00  0.00    +0.000 C 
ATOM     28  C   UNL     1       7.198   4.932  15.798  0.00  0.00    +0.000 C 
ATOM     29  C   UNL     1       6.890   4.665  17.278  0.00  0.00    +0.000 C 
ATOM     30  F   UNL     1       6.187   3.481  17.411  0.00  0.00    +0.000 F 
ATOM     31  F   UNL     1       8.082   4.533  17.970  0.00  0.00    +0.000 F 
ATOM     32  C   UNL     1       6.079   5.841  17.871  0.00  0.00    +0.000 C 
ENDBRANCH  24  25
ENDBRANCH  21  24
ENDBRANCH  10  19
TORSDOF 4
ENDMDL
MODEL 5
REMARK VINA RESULT:      -7.7      3.925      9.765
REMARK  Name = 
REMARK  5 active torsions:
REMARK  status: ('A' for Active; 'I' for Inactive)
REMARK    1  A    between atoms: C_1  and  C_2
REMARK    2  A    between atoms: C_5  and  C_6
REMARK    3  A    between atoms: N_15  and  C_16
REMARK    4  A    between atoms: C_18  and  C_19
REMARK    5  A    between atoms: C_19  and  N_20
REMARK                            x       y       z     vdW  Elec       q    Type
REMARK                         _______ _______ _______ _____ _____    ______ ____
ROOT
ATOM      1  C   UNL     1       4.679   6.896  16.621  0.00  0.00    +0.000 C 
ATOM      2  C   UNL     1       3.836   6.583  17.826  0.00  0.00    +0.000 A 
ATOM      3  C   UNL     1       3.856   5.273  18.300  0.00  0.00    +0.000 A 
ATOM      4  N   UNL     1       3.060   4.953  19.338  0.00  0.00    +0.000 N 
ATOM      5  C   UNL     1       2.878   3.773  19.964  0.00  0.00    +0.000 A 
ATOM      6  C   UNL     1       1.867   3.957  20.896  0.00  0.00    +0.000 A 
ATOM      7  N   UNL     1       1.476   5.258  20.880  0.00  0.00    +0.000 NA
ATOM      8  C   UNL     1       2.222   5.826  19.909  0.00  0.00    +0.000 A 
ATOM      9  C   UNL     1       2.195   7.171  19.488  0.00  0.00    +0.000 A 
ATOM     10  N   UNL     1       1.269   8.086  20.099  0.00  0.00    +0.000 N 
ATOM     11  N   UNL     1       3.021   7.517  18.437  0.00  0.00    +0.000 NA
ATOM     12  H   UNL     1       0.617   7.683  20.788  0.00  0.00    +0.000 HD
ENDROOT
BRANCH   5  13
ATOM     13  C   UNL     1       3.635   2.521  19.701  0.00  0.00    +0.000 A 
ATOM     14  C   UNL     1       4.672   1.979  20.437  0.00  0.00    +0.000 A 
ATOM     15  N   UNL     1       5.086   0.840  19.841  0.00  0.00    +0.000 NA
ATOM     16  N   UNL     1       4.357   0.662  18.744  0.00  0.00    +0.000 N 
ATOM     17  C   UNL     1       3.475   1.662  18.627  0.00  0.00    +0.000 A 
ATOM     18  H   UNL     1       4.481  -0.127  18.074  0.00  0.00    +0.000 HD
ENDBRANCH   5  13
BRANCH  10  19
ATOM     19  C   UNL     1       1.068   9.476  19.825  0.00  0.00    +0.000 A 
ATOM     20  C   UNL     1       0.968  10.467  20.805  0.00  0.00    +0.000 A 
ATOM     21  C   UNL     1       0.756  11.767  20.280  0.00  0.00    +0.000 A 
ATOM     22  N   UNL     1       0.716  11.835  18.919  0.00  0.00    +0.000 NA
ATOM     23  S   UNL     1       0.919  10.269  18.366  0.00  0.00    +0.000 S 
BRANCH  21  24
ATOM     24  C   UNL     1       0.635  13.002  21.163  0.00  0.00    +0.000 C 
BRANCH  24  25
ATOM     25  N   UNL     1      -0.676  13.696  21.043  0.00  0.00    +0.000 NA
ATOM     26  C   UNL     1      -0.783  14.971  21.789  0.00  0.00    +0.000 C 
ATOM     27  C   UNL     1      -0.849  14.745  23.311  0.00  0.00    +0.000 C 
ATOM     28  C   UNL     1      -2.036  13.839  23.661  0.00  0.00    +0.000 C 
ATOM     29  C   UNL     1      -1.980  12.525  22.868  0.00  0.00    +0.000 C 
ATOM     30  F   UNL     1      -0.918  11.753  23.303  0.00  0.00    +0.000 F 
ATOM     31  F   UNL     1      -3.146  11.813  23.092  0.00  0.00    +0.000 F 
ATOM     32  C   UNL     1      -1.843  12.824  21.357  0.00  0.00    +0.000 C 
ENDBRANCH  24  25
ENDBRANCH  21  24
ENDBRANCH  10  19
TORSDOF 4
ENDMDL
MODEL 6
REMARK VINA RESULT:      -7.7      2.745      3.688
REMARK  Name = 
REMARK  5 active torsions:
REMARK  status: ('A' for Active; 'I' for Inactive)
REMARK    1  A    between atoms: C_1  and  C_2
REMARK    2  A    between atoms: C_5  and  C_6
REMARK    3  A    between atoms: N_15  and  C_16
REMARK    4  A    between atoms: C_18  and  C_19
REMARK    5  A    between atoms: C_19  and  N_20
REMARK                            x       y       z     vdW  Elec       q    Type
REMARK                         _______ _______ _______ _____ _____    ______ ____
ROOT
ATOM      1  C   UNL     1       1.958  14.001  18.983  0.00  0.00    +0.000 C 
ATOM      2  C   UNL     1       1.191  13.017  19.822  0.00  0.00    +0.000 A 
ATOM      3  C   UNL     1       0.358  13.532  20.813  0.00  0.00    +0.000 A 
ATOM      4  N   UNL     1      -0.289  12.669  21.620  0.00  0.00    +0.000 N 
ATOM      5  C   UNL     1      -1.124  12.902  22.653  0.00  0.00    +0.000 A 
ATOM      6  C   UNL     1      -1.428  11.671  23.218  0.00  0.00    +0.000 A 
ATOM      7  N   UNL     1      -0.830  10.688  22.495  0.00  0.00    +0.000 NA
ATOM      8  C   UNL     1      -0.138  11.342  21.537  0.00  0.00    +0.000 A 
ATOM      9  C   UNL     1       0.663  10.775  20.526  0.00  0.00    +0.000 A 
ATOM     10  N   UNL     1       0.831   9.347  20.472  0.00  0.00    +0.000 N 
ATOM     11  N   UNL     1       1.318  11.648  19.680  0.00  0.00    +0.000 NA
ATOM     12  H   UNL     1       0.392   8.807  21.233  0.00  0.00    +0.000 HD
ENDROOT
BRANCH   5  13
ATOM     13  C   UNL     1      -1.623  14.233  23.086  0.00  0.00    +0.000 A 
ATOM     14  C   UNL     1      -1.527  14.815  24.336  0.00  0.00    +0.000 A 
ATOM     15  N   UNL     1      -2.126  16.026  24.305  0.00  0.00    +0.000 NA
ATOM     16  N   UNL     1      -2.612  16.212  23.082  0.00  0.00    +0.000 N 
ATOM     17  C   UNL     1      -2.330  15.146  22.323  0.00  0.00    +0.000 A 
ATOM     18  H   UNL     1      -3.149  17.053  22.781  0.00  0.00    +0.000 HD
ENDBRANCH   5  13
BRANCH  10  19
ATOM     19  C   UNL     1       1.596   8.568  19.547  0.00  0.00    +0.000 A 
ATOM     20  C   UNL     1       2.132   7.309  19.830  0.00  0.00    +0.000 A 
ATOM     21  C   UNL     1       2.863   6.747  18.753  0.00  0.00    +0.000 A 
ATOM     22  N   UNL     1       2.894   7.509  17.624  0.00  0.00    +0.000 NA
ATOM     23  S   UNL     1       2.032   8.900  17.972  0.00  0.00    +0.000 S 
BRANCH  21  24
ATOM     24  C   UNL     1       3.518   5.374  18.831  0.00  0.00    +0.000 C 
BRANCH  24  25
ATOM     25  N   UNL     1       3.111   4.455  17.733  0.00  0.00    +0.000 NA
ATOM     26  C   UNL     1       1.657   4.193  17.641  0.00  0.00    +0.000 C 
ATOM     27  C   UNL     1       1.156   3.308  18.798  0.00  0.00    +0.000 C 
ATOM     28  C   UNL     1       1.922   1.979  18.820  0.00  0.00    +0.000 C 
ATOM     29  C   UNL     1       3.437   2.218  18.869  0.00  0.00    +0.000 C 
ATOM     30  F   UNL     1       3.795   2.750  20.094  0.00  0.00    +0.000 F 
ATOM     31  F   UNL     1       4.089   1.004  18.725  0.00  0.00    +0.000 F 
ATOM     32  C   UNL     1       3.862   3.168  17.725  0.00  0.00    +0.000 C 
ENDBRANCH  24  25
ENDBRANCH  21  24
ENDBRANCH  10  19
TORSDOF 4
ENDMDL
MODEL 7
REMARK VINA RESULT:      -7.7      2.800      3.889
REMARK  Name = 
REMARK  5 active torsions:
REMARK  status: ('A' for Active; 'I' for Inactive)
REMARK    1  A    between atoms: C_1  and  C_2
REMARK    2  A    between atoms: C_5  and  C_6
REMARK    3  A    between atoms: N_15  and  C_16
REMARK    4  A    between atoms: C_18  and  C_19
REMARK    5  A    between atoms: C_19  and  N_20
REMARK                            x       y       z     vdW  Elec       q    Type
REMARK                         _______ _______ _______ _____ _____    ______ ____
ROOT
ATOM      1  C   UNL     1      -2.453  11.505  17.306  0.00  0.00    +0.000 C 
ATOM      2  C   UNL     1      -1.890  11.351  18.691  0.00  0.00    +0.000 A 
ATOM      3  C   UNL     1      -2.423  12.158  19.694  0.00  0.00    +0.000 A 
ATOM      4  N   UNL     1      -1.891  12.085  20.929  0.00  0.00    +0.000 N 
ATOM      5  C   UNL     1      -2.203  12.761  22.053  0.00  0.00    +0.000 A 
ATOM      6  C   UNL     1      -1.280  12.392  23.021  0.00  0.00    +0.000 A 
ATOM      7  N   UNL     1      -0.446  11.450  22.507  0.00  0.00    +0.000 NA
ATOM      8  C   UNL     1      -0.848  11.301  21.227  0.00  0.00    +0.000 A 
ATOM      9  C   UNL     1      -0.300  10.439  20.255  0.00  0.00    +0.000 A 
ATOM     10  N   UNL     1       0.836   9.624  20.591  0.00  0.00    +0.000 N 
ATOM     11  N   UNL     1      -0.849  10.490  18.989  0.00  0.00    +0.000 NA
ATOM     12  H   UNL     1       1.235   9.763  21.531  0.00  0.00    +0.000 HD
ENDROOT
BRANCH   5  13
ATOM     13  C   UNL     1      -3.335  13.711  22.212  0.00  0.00    +0.000 A 
ATOM     14  C   UNL     1      -4.627  13.440  22.620  0.00  0.00    +0.000 A 
ATOM     15  N   UNL     1      -5.341  14.587  22.613  0.00  0.00    +0.000 NA
ATOM     16  N   UNL     1      -4.543  15.564  22.193  0.00  0.00    +0.000 N 
ATOM     17  C   UNL     1      -3.326  15.068  21.937  0.00  0.00    +0.000 A 
ATOM     18  H   UNL     1      -4.840  16.555  22.065  0.00  0.00    +0.000 HD
ENDBRANCH   5  13
BRANCH  10  19
ATOM     19  C   UNL     1       1.549   8.695  19.767  0.00  0.00    +0.000 A 
ATOM     20  C   UNL     1       2.100   7.496  20.226  0.00  0.00    +0.000 A 
ATOM     21  C   UNL     1       2.769   6.756  19.219  0.00  0.00    +0.000 A 
ATOM     22  N   UNL     1       2.737   7.319  17.978  0.00  0.00    +0.000 NA
ATOM     23  S   UNL     1       1.895   8.756  18.138  0.00  0.00    +0.000 S 
BRANCH  21  24
ATOM     24  C   UNL     1       3.429   5.409  19.488  0.00  0.00    +0.000 C 
BRANCH  24  25
ATOM     25  N   UNL     1       2.459   4.316  19.775  0.00  0.00    +0.000 NA
ATOM     26  C   UNL     1       2.949   3.269  20.699  0.00  0.00    +0.000 C 
ATOM     27  C   UNL     1       4.022   2.378  20.045  0.00  0.00    +0.000 C 
ATOM     28  C   UNL     1       3.466   1.727  18.772  0.00  0.00    +0.000 C 
ATOM     29  C   UNL     1       2.907   2.785  17.811  0.00  0.00    +0.000 C 
ATOM     30  F   UNL     1       3.938   3.547  17.291  0.00  0.00    +0.000 F 
ATOM     31  F   UNL     1       2.275   2.147  16.757  0.00  0.00    +0.000 F 
ATOM     32  C   UNL     1       1.891   3.688  18.549  0.00  0.00    +0.000 C 
ENDBRANCH  24  25
ENDBRANCH  21  24
ENDBRANCH  10  19
TORSDOF 4
ENDMDL
MODEL 8
REMARK VINA RESULT:      -7.6      2.067      2.606
REMARK  Name = 
REMARK  5 active torsions:
REMARK  status: ('A' for Active; 'I' for Inactive)
REMARK    1  A    between atoms: C_1  and  C_2
REMARK    2  A    between atoms: C_5  and  C_6
REMARK    3  A    between atoms: N_15  and  C_16
REMARK    4  A    between atoms: C_18  and  C_19
REMARK    5  A    between atoms: C_19  and  N_20
REMARK                            x       y       z     vdW  Elec       q    Type
REMARK                         _______ _______ _______ _____ _____    ______ ____
ROOT
ATOM      1  C   UNL     1      -2.129  10.186  17.023  0.00  0.00    +0.000 C 
ATOM      2  C   UNL     1      -1.507  10.402  18.375  0.00  0.00    +0.000 A 
ATOM      3  C   UNL     1      -1.902  11.531  19.090  0.00  0.00    +0.000 A 
ATOM      4  N   UNL     1      -1.311  11.781  20.274  0.00  0.00    +0.000 N 
ATOM      5  C   UNL     1      -1.493  12.798  21.140  0.00  0.00    +0.000 A 
ATOM      6  C   UNL     1      -0.557  12.644  22.153  0.00  0.00    +0.000 A 
ATOM      7  N   UNL     1       0.151  11.505  21.937  0.00  0.00    +0.000 NA
ATOM      8  C   UNL     1      -0.334  11.016  20.776  0.00  0.00    +0.000 A 
ATOM      9  C   UNL     1       0.072   9.844  20.107  0.00  0.00    +0.000 A 
ATOM     10  N   UNL     1       1.141   9.052  20.652  0.00  0.00    +0.000 N 
ATOM     11  N   UNL     1      -0.539   9.566  18.900  0.00  0.00    +0.000 NA
ATOM     12  H   UNL     1       1.604   9.427  21.493  0.00  0.00    +0.000 HD
ENDROOT
BRANCH   5  13
ATOM     13  C   UNL     1      -2.516  13.870  21.023  0.00  0.00    +0.000 A 
ATOM     14  C   UNL     1      -2.316  15.225  20.836  0.00  0.00    +0.000 A 
ATOM     15  N   UNL     1      -3.514  15.846  20.801  0.00  0.00    +0.000 NA
ATOM     16  N   UNL     1      -4.458  14.928  20.979  0.00  0.00    +0.000 N 
ATOM     17  C   UNL     1      -3.889  13.724  21.122  0.00  0.00    +0.000 A 
ATOM     18  H   UNL     1      -5.479  15.131  21.023  0.00  0.00    +0.000 HD
ENDBRANCH   5  13
BRANCH  10  19
ATOM     19  C   UNL     1       1.713   7.843  20.140  0.00  0.00    +0.000 A 
ATOM     20  C   UNL     1       2.524   7.773  19.005  0.00  0.00    +0.000 A 
ATOM     21  C   UNL     1       2.956   6.459  18.694  0.00  0.00    +0.000 A 
ATOM     22  N   UNL     1       2.534   5.498  19.565  0.00  0.00    +0.000 NA
ATOM     23  S   UNL     1       1.600   6.281  20.711  0.00  0.00    +0.000 S 
BRANCH  21  24
ATOM     24  C   UNL     1       3.863   6.148  17.511  0.00  0.00    +0.000 C 
BRANCH  24  25
ATOM     25  N   UNL     1       4.636   4.886  17.667  0.00  0.00    +0.000 NA
ATOM     26  C   UNL     1       5.991   5.046  18.242  0.00  0.00    +0.000 C 
ATOM     27  C   UNL     1       6.962   5.719  17.253  0.00  0.00    +0.000 C 
ATOM     28  C   UNL     1       7.043   4.907  15.954  0.00  0.00    +0.000 C 
ATOM     29  C   UNL     1       5.647   4.683  15.357  0.00  0.00    +0.000 C 
ATOM     30  F   UNL     1       5.133   5.880  14.890  0.00  0.00    +0.000 F 
ATOM     31  F   UNL     1       5.751   3.816  14.282  0.00  0.00    +0.000 F 
ATOM     32  C   UNL     1       4.706   4.072  16.421  0.00  0.00    +0.000 C 
ENDBRANCH  24  25
ENDBRANCH  21  24
ENDBRANCH  10  19
TORSDOF 4
ENDMDL
MODEL 9
REMARK VINA RESULT:      -7.6      3.150      4.344
REMARK  Name = 
REMARK  5 active torsions:
REMARK  status: ('A' for Active; 'I' for Inactive)
REMARK    1  A    between atoms: C_1  and  C_2
REMARK    2  A    between atoms: C_5  and  C_6
REMARK    3  A    between atoms: N_15  and  C_16
REMARK    4  A    between atoms: C_18  and  C_19
REMARK    5  A    between atoms: C_19  and  N_20
REMARK                            x       y       z     vdW  Elec       q    Type
REMARK                         _______ _______ _______ _____ _____    ______ ____
ROOT
ATOM      1  C   UNL     1      -2.760  11.179  17.281  0.00  0.00    +0.000 C 
ATOM      2  C   UNL     1      -2.091  11.213  18.627  0.00  0.00    +0.000 A 
ATOM      3  C   UNL     1      -2.568  12.133  19.558  0.00  0.00    +0.000 A 
ATOM      4  N   UNL     1      -1.942  12.226  20.748  0.00  0.00    +0.000 N 
ATOM      5  C   UNL     1      -2.186  13.035  21.798  0.00  0.00    +0.000 A 
ATOM      6  C   UNL     1      -1.183  12.807  22.730  0.00  0.00    +0.000 A 
ATOM      7  N   UNL     1      -0.367  11.821  22.275  0.00  0.00    +0.000 NA
ATOM      8  C   UNL     1      -0.860  11.503  21.060  0.00  0.00    +0.000 A 
ATOM      9  C   UNL     1      -0.366  10.533  20.165  0.00  0.00    +0.000 A 
ATOM     10  N   UNL     1       0.813   9.785  20.511  0.00  0.00    +0.000 N 
ATOM     11  N   UNL     1      -1.009  10.414  18.949  0.00  0.00    +0.000 NA
ATOM     12  H   UNL     1       1.278  10.049  21.392  0.00  0.00    +0.000 HD
ENDROOT
BRANCH   5  13
ATOM     13  C   UNL     1      -3.326  13.981  21.923  0.00  0.00    +0.000 A 
ATOM     14  C   UNL     1      -3.294  15.363  21.908  0.00  0.00    +0.000 A 
ATOM     15  N   UNL     1      -4.550  15.833  22.068  0.00  0.00    +0.000 NA
ATOM     16  N   UNL     1      -5.365  14.792  22.203  0.00  0.00    +0.000 N 
ATOM     17  C   UNL     1      -4.656  13.658  22.126  0.00  0.00    +0.000 A 
ATOM     18  H   UNL     1      -6.391  14.862  22.368  0.00  0.00    +0.000 HD
ENDBRANCH   5  13
BRANCH  10  19
ATOM     19  C   UNL     1       1.485   8.770  19.759  0.00  0.00    +0.000 A 
ATOM     20  C   UNL     1       1.964   7.574  20.300  0.00  0.00    +0.000 A 
ATOM     21  C   UNL     1       2.606   6.738  19.351  0.00  0.00    +0.000 A 
ATOM     22  N   UNL     1       2.620   7.223  18.078  0.00  0.00    +0.000 NA
ATOM     23  S   UNL     1       1.855   8.711  18.134  0.00  0.00    +0.000 S 
BRANCH  21  24
ATOM     24  C   UNL     1       3.187   5.378  19.714  0.00  0.00    +0.000 C 
BRANCH  24  25
ATOM     25  N   UNL     1       2.292   4.555  20.573  0.00  0.00    +0.000 NA
ATOM     26  C   UNL     1       2.939   3.393  21.223  0.00  0.00    +0.000 C 
ATOM     27  C   UNL     1       3.275   2.280  20.212  0.00  0.00    +0.000 C 
ATOM     28  C   UNL     1       2.004   1.825  19.483  0.00  0.00    +0.000 C 
ATOM     29  C   UNL     1       1.284   3.016  18.836  0.00  0.00    +0.000 C 
ATOM     30  F   UNL     1       2.033   3.509  17.783  0.00  0.00    +0.000 F 
ATOM     31  F   UNL     1       0.068   2.587  18.331  0.00  0.00    +0.000 F 
ATOM     32  C   UNL     1       1.041   4.123  19.887  0.00  0.00    +0.000 C 
ENDBRANCH  24  25
ENDBRANCH  21  24
ENDBRANCH  10  19
TORSDOF 4
ENDMDL
