MODEL 1
REMARK VINA RESULT:      -8.9      0.000      0.000
REMARK  Name = 
REMARK  6 active torsions:
REMARK  status: ('A' for Active; 'I' for Inactive)
REMARK    1  A    between atoms: N_1  and  C_2
REMARK    2  A    between atoms: C_5  and  C_6
REMARK    3  A    between atoms: C_8  and  N_9
REMARK    4  A    between atoms: C_17  and  C_18
REMARK    5  A    between atoms: C_23  and  O_24
REMARK    6  A    between atoms: O_24  and  C_25
REMARK                            x       y       z     vdW  Elec       q    Type
REMARK                         _______ _______ _______ _____ _____    ______ ____
ROOT
ATOM      1  C   UNL     1       2.702   6.677  18.930  0.00  0.00    +0.000 A 
ATOM      2  C   UNL     1       3.574   6.521  17.874  0.00  0.00    +0.000 A 
ATOM      3  C   UNL     1       4.105   5.272  17.632  0.00  0.00    +0.000 A 
ATOM      4  N   UNL     1       3.804   4.239  18.437  0.00  0.00    +0.000 NA
ATOM      5  C   UNL     1       2.990   4.464  19.493  0.00  0.00    +0.000 A 
ATOM      6  N   UNL     1       2.421   5.659  19.757  0.00  0.00    +0.000 NA
ENDROOT
BRANCH   3   7
ATOM      7  N   UNL     1       4.882   5.075  16.526  0.00  0.00    +0.000 N 
ATOM      8  C   UNL     1       5.222   6.123  15.549  0.00  0.00    +0.000 C 
ATOM      9  C   UNL     1       6.393   5.444  14.794  0.00  0.00    +0.000 C 
ATOM     10  C   UNL     1       5.996   3.976  14.838  0.00  0.00    +0.000 C 
ATOM     11  C   UNL     1       5.871   3.999  16.364  0.00  0.00    +0.000 C 
ATOM     12  C   UNL     1       7.267   4.536  16.719  0.00  0.00    +0.000 C 
ATOM     13  O   UNL     1       7.571   5.483  15.647  0.00  0.00    +0.000 OA
ENDBRANCH   3   7
BRANCH   1  17
ATOM     14  C   UNL     1       0.604  10.309  19.625  0.00  0.00    +0.000 A 
ATOM     15  N   UNL     1       0.814   9.897  18.360  0.00  0.00    +0.000 NA
ATOM     16  C   UNL     1       1.517   8.749  18.172  0.00  0.00    +0.000 A 
ATOM     17  C   UNL     1       2.023   7.955  19.193  0.00  0.00    +0.000 A 
ATOM     18  C   UNL     1       1.820   8.446  20.491  0.00  0.00    +0.000 A 
ATOM     19  C   UNL     1       1.119   9.632  20.728  0.00  0.00    +0.000 A 
BRANCH  14  20
ATOM     20  N   UNL     1      -0.229  11.423  19.725  0.00  0.00    +0.000 N 
ATOM     21  H   UNL     1      -0.703  11.329  20.622  0.00  0.00    +0.000 HD
ATOM     22  H   UNL     1      -0.917  11.426  18.977  0.00  0.00    +0.000 HD
ENDBRANCH  14  20
BRANCH  19  23
ATOM     23  O   UNL     1       0.912   9.890  22.047  0.00  0.00    +0.000 OA
BRANCH  23  24
ATOM     24  C   UNL     1      -0.268   9.436  22.685  0.00  0.00    +0.000 C 
ATOM     25  F   UNL     1      -0.841   8.354  22.114  0.00  0.00    +0.000 F 
ATOM     26  F   UNL     1      -0.004   9.165  23.980  0.00  0.00    +0.000 F 
ATOM     27  F   UNL     1      -1.179  10.438  22.649  0.00  0.00    +0.000 F 
ENDBRANCH  23  24
ENDBRANCH  19  23
ENDBRANCH   1  17
BRANCH   5  28
ATOM     28  C   UNL     1       2.659   3.321  20.426  0.00  0.00    +0.000 C 
ATOM     29  C   UNL     1       1.851   3.543  21.683  0.00  0.00    +0.000 C 
ATOM     30  C   UNL     1       1.228   2.828  20.522  0.00  0.00    +0.000 C 
ENDBRANCH   5  28
TORSDOF 6
ENDMDL
MODEL 2
REMARK VINA RESULT:      -8.4      0.837      1.278
REMARK  Name = 
REMARK  6 active torsions:
REMARK  status: ('A' for Active; 'I' for Inactive)
REMARK    1  A    between atoms: N_1  and  C_2
REMARK    2  A    between atoms: C_5  and  C_6
REMARK    3  A    between atoms: C_8  and  N_9
REMARK    4  A    between atoms: C_17  and  C_18
REMARK    5  A    between atoms: C_23  and  O_24
REMARK    6  A    between atoms: O_24  and  C_25
REMARK                            x       y       z     vdW  Elec       q    Type
REMARK                         _______ _______ _______ _____ _____    ______ ____
ROOT
ATOM      1  C   UNL     1       2.654   6.826  19.399  0.00  0.00    +0.000 A 
ATOM      2  C   UNL     1       3.786   6.689  18.624  0.00  0.00    +0.000 A 
ATOM      3  C   UNL     1       4.353   5.439  18.495  0.00  0.00    +0.000 A 
ATOM      4  N   UNL     1       3.830   4.386  19.145  0.00  0.00    +0.000 NA
ATOM      5  C   UNL     1       2.754   4.591  19.938  0.00  0.00    +0.000 A 
ATOM      6  N   UNL     1       2.144   5.787  20.076  0.00  0.00    +0.000 NA
ENDROOT
BRANCH   3   7
ATOM      7  N   UNL     1       5.407   5.265  17.644  0.00  0.00    +0.000 N 
ATOM      8  C   UNL     1       5.398   5.635  16.219  0.00  0.00    +0.000 C 
ATOM      9  C   UNL     1       6.914   5.587  15.899  0.00  0.00    +0.000 C 
ATOM     10  C   UNL     1       7.400   4.470  16.810  0.00  0.00    +0.000 C 
ATOM     11  C   UNL     1       6.816   5.153  18.050  0.00  0.00    +0.000 C 
ATOM     12  C   UNL     1       7.492   6.527  17.917  0.00  0.00    +0.000 C 
ATOM     13  O   UNL     1       7.540   6.767  16.476  0.00  0.00    +0.000 OA
ENDBRANCH   3   7
BRANCH   1  17
ATOM     14  C   UNL     1       0.456  10.457  19.650  0.00  0.00    +0.000 A 
ATOM     15  N   UNL     1       0.724   9.927  18.442  0.00  0.00    +0.000 NA
ATOM     16  C   UNL     1       1.456   8.783  18.395  0.00  0.00    +0.000 A 
ATOM     17  C   UNL     1       1.939   8.107  19.508  0.00  0.00    +0.000 A 
ATOM     18  C   UNL     1       1.676   8.719  20.742  0.00  0.00    +0.000 A 
ATOM     19  C   UNL     1       0.942   9.906  20.833  0.00  0.00    +0.000 A 
BRANCH  14  20
ATOM     20  N   UNL     1      -0.403  11.555  19.609  0.00  0.00    +0.000 N 
ATOM     21  H   UNL     1      -0.769  11.579  18.659  0.00  0.00    +0.000 HD
ATOM     22  H   UNL     1       0.105  12.415  19.798  0.00  0.00    +0.000 HD
ENDBRANCH  14  20
BRANCH  19  23
ATOM     23  O   UNL     1       0.679  10.288  22.112  0.00  0.00    +0.000 OA
BRANCH  23  24
ATOM     24  C   UNL     1      -0.348   9.648  22.849  0.00  0.00    +0.000 C 
ATOM     25  F   UNL     1      -1.387  10.443  23.183  0.00  0.00    +0.000 F 
ATOM     26  F   UNL     1      -0.807   8.588  22.151  0.00  0.00    +0.000 F 
ATOM     27  F   UNL     1       0.189   9.182  24.002  0.00  0.00    +0.000 F 
ENDBRANCH  23  24
ENDBRANCH  19  23
ENDBRANCH   1  17
BRANCH   5  28
ATOM     28  C   UNL     1       2.166   3.424  20.699  0.00  0.00    +0.000 C 
ATOM     29  C   UNL     1       0.695   3.089  20.606  0.00  0.00    +0.000 C 
ATOM     30  C   UNL     1       1.699   2.198  19.937  0.00  0.00    +0.000 C 
ENDBRANCH   5  28
TORSDOF 6
ENDMDL
MODEL 3
REMARK VINA RESULT:      -8.3      0.915      1.364
REMARK  Name = 
REMARK  6 active torsions:
REMARK  status: ('A' for Active; 'I' for Inactive)
REMARK    1  A    between atoms: N_1  and  C_2
REMARK    2  A    between atoms: C_5  and  C_6
REMARK    3  A    between atoms: C_8  and  N_9
REMARK    4  A    between atoms: C_17  and  C_18
REMARK    5  A    between atoms: C_23  and  O_24
REMARK    6  A    between atoms: O_24  and  C_25
REMARK                            x       y       z     vdW  Elec       q    Type
REMARK                         _______ _______ _______ _____ _____    ______ ____
ROOT
ATOM      1  C   UNL     1       2.278   6.895  19.493  0.00  0.00    +0.000 A 
ATOM      2  C   UNL     1       3.397   6.646  18.727  0.00  0.00    +0.000 A 
ATOM      3  C   UNL     1       3.773   5.338  18.509  0.00  0.00    +0.000 A 
ATOM      4  N   UNL     1       3.080   4.331  19.066  0.00  0.00    +0.000 NA
ATOM      5  C   UNL     1       2.026   4.636  19.857  0.00  0.00    +0.000 A 
ATOM      6  N   UNL     1       1.599   5.897  20.078  0.00  0.00    +0.000 NA
ENDROOT
BRANCH   3   7
ATOM      7  N   UNL     1       4.811   5.070  17.663  0.00  0.00    +0.000 N 
ATOM      8  C   UNL     1       4.913   3.865  16.823  0.00  0.00    +0.000 C 
ATOM      9  C   UNL     1       6.029   4.293  15.837  0.00  0.00    +0.000 C 
ATOM     10  C   UNL     1       6.902   5.184  16.707  0.00  0.00    +0.000 C 
ATOM     11  C   UNL     1       5.714   6.075  17.083  0.00  0.00    +0.000 C 
ATOM     12  C   UNL     1       5.225   6.443  15.673  0.00  0.00    +0.000 C 
ATOM     13  O   UNL     1       5.460   5.234  14.884  0.00  0.00    +0.000 OA
ENDBRANCH   3   7
BRANCH   1  17
ATOM     14  C   UNL     1       0.648  10.791  19.990  0.00  0.00    +0.000 A 
ATOM     15  N   UNL     1       0.907  10.334  18.750  0.00  0.00    +0.000 NA
ATOM     16  C   UNL     1       1.458   9.098  18.627  0.00  0.00    +0.000 A 
ATOM     17  C   UNL     1       1.762   8.258  19.691  0.00  0.00    +0.000 A 
ATOM     18  C   UNL     1       1.518   8.792  20.965  0.00  0.00    +0.000 A 
ATOM     19  C   UNL     1       0.969  10.067  21.136  0.00  0.00    +0.000 A 
BRANCH  14  20
ATOM     20  N   UNL     1      -0.029  12.010  20.014  0.00  0.00    +0.000 N 
ATOM     21  H   UNL     1       0.677  12.717  19.819  0.00  0.00    +0.000 HD
ATOM     22  H   UNL     1      -0.433  12.178  20.931  0.00  0.00    +0.000 HD
ENDBRANCH  14  20
BRANCH  19  23
ATOM     23  O   UNL     1       0.688  10.371  22.432  0.00  0.00    +0.000 OA
BRANCH  23  24
ATOM     24  C   UNL     1      -0.341   9.682  23.117  0.00  0.00    +0.000 C 
ATOM     25  F   UNL     1      -0.919   8.682  22.417  0.00  0.00    +0.000 F 
ATOM     26  F   UNL     1       0.143   9.188  24.276  0.00  0.00    +0.000 F 
ATOM     27  F   UNL     1      -1.314  10.573  23.422  0.00  0.00    +0.000 F 
ENDBRANCH  23  24
ENDBRANCH  19  23
ENDBRANCH   1  17
BRANCH   5  28
ATOM     28  C   UNL     1       1.249   3.519  20.514  0.00  0.00    +0.000 C 
ATOM     29  C   UNL     1       1.768   2.100  20.519  0.00  0.00    +0.000 C 
ATOM     30  C   UNL     1       1.778   2.894  21.791  0.00  0.00    +0.000 C 
ENDBRANCH   5  28
TORSDOF 6
ENDMDL
MODEL 4
REMARK VINA RESULT:      -8.2      1.989      2.476
REMARK  Name = 
REMARK  6 active torsions:
REMARK  status: ('A' for Active; 'I' for Inactive)
REMARK    1  A    between atoms: N_1  and  C_2
REMARK    2  A    between atoms: C_5  and  C_6
REMARK    3  A    between atoms: C_8  and  N_9
REMARK    4  A    between atoms: C_17  and  C_18
REMARK    5  A    between atoms: C_23  and  O_24
REMARK    6  A    between atoms: O_24  and  C_25
REMARK                            x       y       z     vdW  Elec       q    Type
REMARK                         _______ _______ _______ _____ _____    ______ ____
ROOT
ATOM      1  C   UNL     1       2.552   6.597  19.545  0.00  0.00    +0.000 A 
ATOM      2  C   UNL     1       3.360   6.585  18.429  0.00  0.00    +0.000 A 
ATOM      3  C   UNL     1       3.918   5.389  18.027  0.00  0.00    +0.000 A 
ATOM      4  N   UNL     1       3.705   4.269  18.737  0.00  0.00    +0.000 NA
ATOM      5  C   UNL     1       2.952   4.351  19.857  0.00  0.00    +0.000 A 
ATOM      6  N   UNL     1       2.359   5.489  20.277  0.00  0.00    +0.000 NA
ENDROOT
BRANCH   3   7
ATOM      7  N   UNL     1       4.630   5.338  16.862  0.00  0.00    +0.000 N 
ATOM      8  C   UNL     1       5.028   6.517  16.076  0.00  0.00    +0.000 C 
ATOM      9  C   UNL     1       6.100   5.895  15.146  0.00  0.00    +0.000 C 
ATOM     10  C   UNL     1       5.570   4.484  14.943  0.00  0.00    +0.000 C 
ATOM     11  C   UNL     1       5.508   4.232  16.452  0.00  0.00    +0.000 C 
ATOM     12  C   UNL     1       6.960   4.574  16.821  0.00  0.00    +0.000 C 
ATOM     13  O   UNL     1       7.309   5.676  15.925  0.00  0.00    +0.000 OA
ENDBRANCH   3   7
BRANCH   1  17
ATOM     14  C   UNL     1       0.653  10.165  20.864  0.00  0.00    +0.000 A 
ATOM     15  N   UNL     1       1.142   9.300  21.773  0.00  0.00    +0.000 NA
ATOM     16  C   UNL     1       1.714   8.154  21.319  0.00  0.00    +0.000 A 
ATOM     17  C   UNL     1       1.847   7.812  19.979  0.00  0.00    +0.000 A 
ATOM     18  C   UNL     1       1.283   8.720  19.071  0.00  0.00    +0.000 A 
ATOM     19  C   UNL     1       0.669   9.902  19.496  0.00  0.00    +0.000 A 
BRANCH  14  20
ATOM     20  N   UNL     1       0.199  11.365  21.411  0.00  0.00    +0.000 N 
ATOM     21  H   UNL     1       0.686  11.459  22.301  0.00  0.00    +0.000 HD
ATOM     22  H   UNL     1      -0.803  11.328  21.575  0.00  0.00    +0.000 HD
ENDBRANCH  14  20
BRANCH  19  23
ATOM     23  O   UNL     1       0.290  10.718  18.476  0.00  0.00    +0.000 OA
BRANCH  23  24
ATOM     24  C   UNL     1      -1.061  10.744  18.051  0.00  0.00    +0.000 C 
ATOM     25  F   UNL     1      -1.960  10.387  18.993  0.00  0.00    +0.000 F 
ATOM     26  F   UNL     1      -1.364  11.977  17.594  0.00  0.00    +0.000 F 
ATOM     27  F   UNL     1      -1.195   9.877  17.019  0.00  0.00    +0.000 F 
ENDBRANCH  23  24
ENDBRANCH  19  23
ENDBRANCH   1  17
BRANCH   5  28
ATOM     28  C   UNL     1       2.721   3.107  20.684  0.00  0.00    +0.000 C 
ATOM     29  C   UNL     1       1.556   3.007  21.642  0.00  0.00    +0.000 C 
ATOM     30  C   UNL     1       1.536   2.214  20.370  0.00  0.00    +0.000 C 
ENDBRANCH   5  28
TORSDOF 6
ENDMDL
MODEL 5
REMARK VINA RESULT:      -8.2      2.173      2.703
REMARK  Name = 
REMARK  6 active torsions:
REMARK  status: ('A' for Active; 'I' for Inactive)
REMARK    1  A    between atoms: N_1  and  C_2
REMARK    2  A    between atoms: C_5  and  C_6
REMARK    3  A    between atoms: C_8  and  N_9
REMARK    4  A    between atoms: C_17  and  C_18
REMARK    5  A    between atoms: C_23  and  O_24
REMARK    6  A    between atoms: O_24  and  C_25
REMARK                            x       y       z     vdW  Elec       q    Type
REMARK                         _______ _______ _______ _____ _____    ______ ____
ROOT
ATOM      1  C   UNL     1       1.954   7.181  20.044  0.00  0.00    +0.000 A 
ATOM      2  C   UNL     1       2.884   7.054  19.035  0.00  0.00    +0.000 A 
ATOM      3  C   UNL     1       3.308   5.791  18.679  0.00  0.00    +0.000 A 
ATOM      4  N   UNL     1       2.850   4.712  19.334  0.00  0.00    +0.000 NA
ATOM      5  C   UNL     1       1.984   4.900  20.356  0.00  0.00    +0.000 A 
ATOM      6  N   UNL     1       1.514   6.111  20.723  0.00  0.00    +0.000 NA
ENDROOT
BRANCH   3   7
ATOM      7  N   UNL     1       4.144   5.640  17.608  0.00  0.00    +0.000 N 
ATOM      8  C   UNL     1       4.740   6.754  16.853  0.00  0.00    +0.000 C 
ATOM      9  C   UNL     1       5.850   6.009  16.069  0.00  0.00    +0.000 C 
ATOM     10  C   UNL     1       5.218   4.646  15.832  0.00  0.00    +0.000 C 
ATOM     11  C   UNL     1       4.956   4.447  17.328  0.00  0.00    +0.000 C 
ATOM     12  C   UNL     1       6.381   4.666  17.861  0.00  0.00    +0.000 C 
ATOM     13  O   UNL     1       6.934   5.704  16.992  0.00  0.00    +0.000 OA
ENDBRANCH   3   7
BRANCH   1  17
ATOM     14  C   UNL     1       0.450  10.996  21.168  0.00  0.00    +0.000 A 
ATOM     15  N   UNL     1       0.895  10.152  22.119  0.00  0.00    +0.000 NA
ATOM     16  C   UNL     1       1.338   8.928  21.730  0.00  0.00    +0.000 A 
ATOM     17  C   UNL     1       1.384   8.485  20.414  0.00  0.00    +0.000 A 
ATOM     18  C   UNL     1       0.869   9.378  19.462  0.00  0.00    +0.000 A 
ATOM     19  C   UNL     1       0.386  10.640  19.823  0.00  0.00    +0.000 A 
BRANCH  14  20
ATOM     20  N   UNL     1       0.134  12.268  21.644  0.00  0.00    +0.000 N 
ATOM     21  H   UNL     1      -0.281  12.759  20.854  0.00  0.00    +0.000 HD
ATOM     22  H   UNL     1       0.973  12.758  21.945  0.00  0.00    +0.000 HD
ENDBRANCH  14  20
BRANCH  19  23
ATOM     23  O   UNL     1       0.041  11.417  18.761  0.00  0.00    +0.000 OA
BRANCH  23  24
ATOM     24  C   UNL     1      -1.247  11.303  18.185  0.00  0.00    +0.000 C 
ATOM     25  F   UNL     1      -1.386  10.295  17.296  0.00  0.00    +0.000 F 
ATOM     26  F   UNL     1      -2.166  11.161  19.163  0.00  0.00    +0.000 F 
ATOM     27  F   UNL     1      -1.518  12.457  17.528  0.00  0.00    +0.000 F 
ENDBRANCH  23  24
ENDBRANCH  19  23
ENDBRANCH   1  17
BRANCH   5  28
ATOM     28  C   UNL     1       1.475   3.701  21.122  0.00  0.00    +0.000 C 
ATOM     29  C   UNL     1       1.522   2.312  20.527  0.00  0.00    +0.000 C 
ATOM     30  C   UNL     1       2.464   2.672  21.637  0.00  0.00    +0.000 C 
ENDBRANCH   5  28
TORSDOF 6
ENDMDL
MODEL 6
REMARK VINA RESULT:      -8.1      1.217      1.692
REMARK  Name = 
REMARK  6 active torsions:
REMARK  status: ('A' for Active; 'I' for Inactive)
REMARK    1  A    between atoms: N_1  and  C_2
REMARK    2  A    between atoms: C_5  and  C_6
REMARK    3  A    between atoms: C_8  and  N_9
REMARK    4  A    between atoms: C_17  and  C_18
REMARK    5  A    between atoms: C_23  and  O_24
REMARK    6  A    between atoms: O_24  and  C_25
REMARK                            x       y       z     vdW  Elec       q    Type
REMARK                         _______ _______ _______ _____ _____    ______ ____
ROOT
ATOM      1  C   UNL     1       2.782   6.808  19.195  0.00  0.00    +0.000 A 
ATOM      2  C   UNL     1       3.970   6.553  18.545  0.00  0.00    +0.000 A 
ATOM      3  C   UNL     1       4.541   5.304  18.673  0.00  0.00    +0.000 A 
ATOM      4  N   UNL     1       3.965   4.372  19.450  0.00  0.00    +0.000 NA
ATOM      5  C   UNL     1       2.831   4.697  20.112  0.00  0.00    +0.000 A 
ATOM      6  N   UNL     1       2.217   5.893  19.997  0.00  0.00    +0.000 NA
ENDROOT
BRANCH   3   7
ATOM      7  N   UNL     1       5.658   4.998  17.948  0.00  0.00    +0.000 N 
ATOM      8  C   UNL     1       5.646   4.579  16.537  0.00  0.00    +0.000 C 
ATOM      9  C   UNL     1       7.140   4.764  16.169  0.00  0.00    +0.000 C 
ATOM     10  C   UNL     1       7.838   4.430  17.479  0.00  0.00    +0.000 C 
ATOM     11  C   UNL     1       7.018   5.471  18.245  0.00  0.00    +0.000 C 
ATOM     12  C   UNL     1       7.323   6.709  17.385  0.00  0.00    +0.000 C 
ATOM     13  O   UNL     1       7.401   6.188  16.021  0.00  0.00    +0.000 OA
ENDBRANCH   3   7
BRANCH   1  17
ATOM     14  C   UNL     1       0.639  10.430  18.585  0.00  0.00    +0.000 A 
ATOM     15  N   UNL     1       1.549  10.036  17.673  0.00  0.00    +0.000 NA
ATOM     16  C   UNL     1       2.240   8.891  17.914  0.00  0.00    +0.000 A 
ATOM     17  C   UNL     1       2.066   8.081  19.030  0.00  0.00    +0.000 A 
ATOM     18  C   UNL     1       1.142   8.553  19.974  0.00  0.00    +0.000 A 
ATOM     19  C   UNL     1       0.423   9.736  19.774  0.00  0.00    +0.000 A 
BRANCH  14  20
ATOM     20  N   UNL     1      -0.107  11.542  18.197  0.00  0.00    +0.000 N 
ATOM     21  H   UNL     1      -0.916  11.169  17.704  0.00  0.00    +0.000 HD
ATOM     22  H   UNL     1       0.431  12.133  17.568  0.00  0.00    +0.000 HD
ENDBRANCH  14  20
BRANCH  19  23
ATOM     23  O   UNL     1      -0.514   9.974  20.731  0.00  0.00    +0.000 OA
BRANCH  23  24
ATOM     24  C   UNL     1      -0.218  10.832  21.818  0.00  0.00    +0.000 C 
ATOM     25  F   UNL     1       0.675  11.807  21.546  0.00  0.00    +0.000 F 
ATOM     26  F   UNL     1      -1.359  11.391  22.272  0.00  0.00    +0.000 F 
ATOM     27  F   UNL     1       0.300  10.080  22.818  0.00  0.00    +0.000 F 
ENDBRANCH  23  24
ENDBRANCH  19  23
ENDBRANCH   1  17
BRANCH   5  28
ATOM     28  C   UNL     1       2.181   3.670  21.011  0.00  0.00    +0.000 C 
ATOM     29  C   UNL     1       0.768   3.194  20.764  0.00  0.00    +0.000 C 
ATOM     30  C   UNL     1       1.917   2.275  20.478  0.00  0.00    +0.000 C 
ENDBRANCH   5  28
TORSDOF 6
ENDMDL
MODEL 7
REMARK VINA RESULT:      -8.1      2.010      4.156
REMARK  Name = 
REMARK  6 active torsions:
REMARK  status: ('A' for Active; 'I' for Inactive)
REMARK    1  A    between atoms: N_1  and  C_2
REMARK    2  A    between atoms: C_5  and  C_6
REMARK    3  A    between atoms: C_8  and  N_9
REMARK    4  A    between atoms: C_17  and  C_18
REMARK    5  A    between atoms: C_23  and  O_24
REMARK    6  A    between atoms: O_24  and  C_25
REMARK                            x       y       z     vdW  Elec       q    Type
REMARK                         _______ _______ _______ _____ _____    ______ ____
ROOT
ATOM      1  C   UNL     1       2.354   7.695  18.885  0.00  0.00    +0.000 A 
ATOM      2  C   UNL     1       2.229   6.514  19.583  0.00  0.00    +0.000 A 
ATOM      3  C   UNL     1       3.107   5.486  19.309  0.00  0.00    +0.000 A 
ATOM      4  N   UNL     1       4.038   5.626  18.352  0.00  0.00    +0.000 NA
ATOM      5  C   UNL     1       4.076   6.786  17.657  0.00  0.00    +0.000 A 
ATOM      6  N   UNL     1       3.261   7.833  17.906  0.00  0.00    +0.000 NA
ENDROOT
BRANCH   3   7
ATOM      7  N   UNL     1       3.069   4.350  20.067  0.00  0.00    +0.000 N 
ATOM      8  C   UNL     1       2.274   4.195  21.297  0.00  0.00    +0.000 C 
ATOM      9  C   UNL     1       2.309   2.655  21.470  0.00  0.00    +0.000 C 
ATOM     10  C   UNL     1       3.680   2.300  20.916  0.00  0.00    +0.000 C 
ATOM     11  C   UNL     1       3.384   2.997  19.585  0.00  0.00    +0.000 C 
ATOM     12  C   UNL     1       2.078   2.275  19.212  0.00  0.00    +0.000 C 
ATOM     13  O   UNL     1       1.405   2.066  20.494  0.00  0.00    +0.000 OA
ENDBRANCH   3   7
BRANCH   1  17
ATOM     14  C   UNL     1      -0.192  11.002  19.704  0.00  0.00    +0.000 A 
ATOM     15  N   UNL     1      -0.005  10.608  18.429  0.00  0.00    +0.000 NA
ATOM     16  C   UNL     1       0.840   9.569  18.199  0.00  0.00    +0.000 A 
ATOM     17  C   UNL     1       1.518   8.867  19.187  0.00  0.00    +0.000 A 
ATOM     18  C   UNL     1       1.330   9.339  20.494  0.00  0.00    +0.000 A 
ATOM     19  C   UNL     1       0.484  10.418  20.773  0.00  0.00    +0.000 A 
BRANCH  14  20
ATOM     20  N   UNL     1      -1.166  11.987  19.854  0.00  0.00    +0.000 N 
ATOM     21  H   UNL     1      -1.730  11.945  19.007  0.00  0.00    +0.000 HD
ATOM     22  H   UNL     1      -0.738  12.906  19.931  0.00  0.00    +0.000 HD
ENDBRANCH  14  20
BRANCH  19  23
ATOM     23  O   UNL     1       0.326  10.659  22.102  0.00  0.00    +0.000 OA
BRANCH  23  24
ATOM     24  C   UNL     1      -0.397   9.748  22.910  0.00  0.00    +0.000 C 
ATOM     25  F   UNL     1      -0.883   8.671  22.256  0.00  0.00    +0.000 F 
ATOM     26  F   UNL     1       0.385   9.333  23.928  0.00  0.00    +0.000 F 
ATOM     27  F   UNL     1      -1.454  10.405  23.443  0.00  0.00    +0.000 F 
ENDBRANCH  23  24
ENDBRANCH  19  23
ENDBRANCH   1  17
BRANCH   5  28
ATOM     28  C   UNL     1       5.100   6.955  16.558  0.00  0.00    +0.000 C 
ATOM     29  C   UNL     1       6.322   6.069  16.481  0.00  0.00    +0.000 C 
ATOM     30  C   UNL     1       5.218   5.894  15.481  0.00  0.00    +0.000 C 
ENDBRANCH   5  28
TORSDOF 6
ENDMDL
MODEL 8
REMARK VINA RESULT:      -8.1      2.294      2.705
REMARK  Name = 
REMARK  6 active torsions:
REMARK  status: ('A' for Active; 'I' for Inactive)
REMARK    1  A    between atoms: N_1  and  C_2
REMARK    2  A    between atoms: C_5  and  C_6
REMARK    3  A    between atoms: C_8  and  N_9
REMARK    4  A    between atoms: C_17  and  C_18
REMARK    5  A    between atoms: C_23  and  O_24
REMARK    6  A    between atoms: O_24  and  C_25
REMARK                            x       y       z     vdW  Elec       q    Type
REMARK                         _______ _______ _______ _____ _____    ______ ____
ROOT
ATOM      1  C   UNL     1       2.475   6.729  19.524  0.00  0.00    +0.000 A 
ATOM      2  C   UNL     1       3.292   6.702  18.415  0.00  0.00    +0.000 A 
ATOM      3  C   UNL     1       3.863   5.504  18.042  0.00  0.00    +0.000 A 
ATOM      4  N   UNL     1       3.653   4.396  18.771  0.00  0.00    +0.000 NA
ATOM      5  C   UNL     1       2.890   4.494  19.883  0.00  0.00    +0.000 A 
ATOM      6  N   UNL     1       2.285   5.635  20.276  0.00  0.00    +0.000 NA
ENDROOT
BRANCH   3   7
ATOM      7  N   UNL     1       4.585   5.436  16.884  0.00  0.00    +0.000 N 
ATOM      8  C   UNL     1       5.016   6.606  16.100  0.00  0.00    +0.000 C 
ATOM      9  C   UNL     1       6.083   5.960  15.181  0.00  0.00    +0.000 C 
ATOM     10  C   UNL     1       5.526   4.560  14.975  0.00  0.00    +0.000 C 
ATOM     11  C   UNL     1       5.443   4.311  16.483  0.00  0.00    +0.000 C 
ATOM     12  C   UNL     1       6.899   4.623  16.867  0.00  0.00    +0.000 C 
ATOM     13  O   UNL     1       7.279   5.716  15.973  0.00  0.00    +0.000 OA
ENDBRANCH   3   7
BRANCH   1  17
ATOM     14  C   UNL     1       0.514  10.280  20.801  0.00  0.00    +0.000 A 
ATOM     15  N   UNL     1       0.659   9.257  21.664  0.00  0.00    +0.000 NA
ATOM     16  C   UNL     1       1.261   8.124  21.215  0.00  0.00    +0.000 A 
ATOM     17  C   UNL     1       1.756   7.947  19.928  0.00  0.00    +0.000 A 
ATOM     18  C   UNL     1       1.542   9.021  19.052  0.00  0.00    +0.000 A 
ATOM     19  C   UNL     1       0.911  10.197  19.468  0.00  0.00    +0.000 A 
BRANCH  14  20
ATOM     20  N   UNL     1       0.002  11.440  21.380  0.00  0.00    +0.000 N 
ATOM     21  H   UNL     1       0.323  11.427  22.347  0.00  0.00    +0.000 HD
ATOM     22  H   UNL     1      -1.015  11.433  21.360  0.00  0.00    +0.000 HD
ENDBRANCH  14  20
BRANCH  19  23
ATOM     23  O   UNL     1       0.899  11.175  18.522  0.00  0.00    +0.000 OA
BRANCH  23  24
ATOM     24  C   UNL     1       1.930  12.146  18.491  0.00  0.00    +0.000 C 
ATOM     25  F   UNL     1       2.395  12.520  19.702  0.00  0.00    +0.000 F 
ATOM     26  F   UNL     1       2.956  11.687  17.745  0.00  0.00    +0.000 F 
ATOM     27  F   UNL     1       1.444  13.256  17.887  0.00  0.00    +0.000 F 
ENDBRANCH  23  24
ENDBRANCH  19  23
ENDBRANCH   1  17
BRANCH   5  28
ATOM     28  C   UNL     1       2.662   3.264  20.733  0.00  0.00    +0.000 C 
ATOM     29  C   UNL     1       1.382   3.076  21.513  0.00  0.00    +0.000 C 
ATOM     30  C   UNL     1       1.634   2.238  20.296  0.00  0.00    +0.000 C 
ENDBRANCH   5  28
TORSDOF 6
ENDMDL
MODEL 9
REMARK VINA RESULT:      -8.0      0.715      1.170
REMARK  Name = 
REMARK  6 active torsions:
REMARK  status: ('A' for Active; 'I' for Inactive)
REMARK    1  A    between atoms: N_1  and  C_2
REMARK    2  A    between atoms: C_5  and  C_6
REMARK    3  A    between atoms: C_8  and  N_9
REMARK    4  A    between atoms: C_17  and  C_18
REMARK    5  A    between atoms: C_23  and  O_24
REMARK    6  A    between atoms: O_24  and  C_25
REMARK                            x       y       z     vdW  Elec       q    Type
REMARK                         _______ _______ _______ _____ _____    ______ ____
ROOT
ATOM      1  C   UNL     1       2.677   6.761  18.984  0.00  0.00    +0.000 A 
ATOM      2  C   UNL     1       3.818   6.693  18.215  0.00  0.00    +0.000 A 
ATOM      3  C   UNL     1       4.372   5.456  17.958  0.00  0.00    +0.000 A 
ATOM      4  N   UNL     1       3.827   4.347  18.483  0.00  0.00    +0.000 NA
ATOM      5  C   UNL     1       2.741   4.479  19.279  0.00  0.00    +0.000 A 
ATOM      6  N   UNL     1       2.144   5.661  19.537  0.00  0.00    +0.000 NA
ENDROOT
BRANCH   3   7
ATOM      7  N   UNL     1       5.437   5.361  17.108  0.00  0.00    +0.000 N 
ATOM      8  C   UNL     1       6.590   4.468  17.312  0.00  0.00    +0.000 C 
ATOM      9  C   UNL     1       7.229   4.495  15.901  0.00  0.00    +0.000 C 
ATOM     10  C   UNL     1       6.918   5.909  15.433  0.00  0.00    +0.000 C 
ATOM     11  C   UNL     1       5.419   5.720  15.682  0.00  0.00    +0.000 C 
ATOM     12  C   UNL     1       5.186   4.452  14.843  0.00  0.00    +0.000 C 
ATOM     13  O   UNL     1       6.414   3.677  15.015  0.00  0.00    +0.000 OA
ENDBRANCH   3   7
BRANCH   1  17
ATOM     14  C   UNL     1       0.516  10.369  19.608  0.00  0.00    +0.000 A 
ATOM     15  N   UNL     1       0.728   9.932  18.351  0.00  0.00    +0.000 NA
ATOM     16  C   UNL     1       1.450   8.793  18.185  0.00  0.00    +0.000 A 
ATOM     17  C   UNL     1       1.976   8.032  19.221  0.00  0.00    +0.000 A 
ATOM     18  C   UNL     1       1.770   8.548  20.509  0.00  0.00    +0.000 A 
ATOM     19  C   UNL     1       1.049   9.727  20.723  0.00  0.00    +0.000 A 
BRANCH  14  20
ATOM     20  N   UNL     1      -0.336  11.470  19.687  0.00  0.00    +0.000 N 
ATOM     21  H   UNL     1      -1.146  11.150  20.215  0.00  0.00    +0.000 HD
ATOM     22  H   UNL     1      -0.630  11.764  18.760  0.00  0.00    +0.000 HD
ENDBRANCH  14  20
BRANCH  19  23
ATOM     23  O   UNL     1       0.844  10.011  22.037  0.00  0.00    +0.000 OA
BRANCH  23  24
ATOM     24  C   UNL     1      -0.290   9.492  22.709  0.00  0.00    +0.000 C 
ATOM     25  F   UNL     1      -0.836   8.397  22.138  0.00  0.00    +0.000 F 
ATOM     26  F   UNL     1       0.036   9.209  23.987  0.00  0.00    +0.000 F 
ATOM     27  F   UNL     1      -1.244  10.453  22.729  0.00  0.00    +0.000 F 
ENDBRANCH  23  24
ENDBRANCH  19  23
ENDBRANCH   1  17
BRANCH   5  28
ATOM     28  C   UNL     1       2.127   3.245  19.900  0.00  0.00    +0.000 C 
ATOM     29  C   UNL     1       0.768   3.292  20.559  0.00  0.00    +0.000 C 
ATOM     30  C   UNL     1       0.925   2.598  19.239  0.00  0.00    +0.000 C 
ENDBRANCH   5  28
TORSDOF 6
ENDMDL
