MODEL 1
REMARK VINA RESULT:      -7.9      0.000      0.000
REMARK  Name = 
REMARK  4 active torsions:
REMARK  status: ('A' for Active; 'I' for Inactive)
REMARK    1  A    between atoms: C_1  and  C_2
REMARK    2  A    between atoms: C_3  and  C_4
REMARK    3  A    between atoms: C_17  and  N_18
REMARK    4  A    between atoms: C_29  and  N_30
REMARK                            x       y       z     vdW  Elec       q    Type
REMARK                         _______ _______ _______ _____ _____    ______ ____
ROOT
ATOM      1  N   UNL     1      -0.938  11.556  20.161  0.00  0.00    +0.000 N 
ATOM      2  C   UNL     1      -0.329  12.811  19.663  0.00  0.00    +0.000 C 
ATOM      3  C   UNL     1       1.109  12.659  19.219  0.00  0.00    +0.000 C 
ATOM      4  C   UNL     1       1.481  13.877  18.369  0.00  0.00    +0.000 C 
ATOM      5  C   UNL     1       1.456  15.124  19.270  0.00  0.00    +0.000 C 
ATOM      6  O   UNL     1       2.348  14.995  20.379  0.00  0.00    +0.000 OA
ATOM      7  C   UNL     1       2.115  13.860  21.209  0.00  0.00    +0.000 C 
ATOM      8  C   UNL     1       2.121  12.581  20.390  0.00  0.00    +0.000 C 
ATOM      9  C   UNL     1       0.945  11.302  18.620  0.00  0.00    +0.000 A 
ATOM     10  N   UNL     1       1.965  10.778  17.917  0.00  0.00    +0.000 NA
ATOM     11  C   UNL     1       2.235   9.486  18.197  0.00  0.00    +0.000 A 
ATOM     12  C   UNL     1       1.647   8.710  19.213  0.00  0.00    +0.000 A 
ATOM     13  C   UNL     1       0.442   9.288  19.786  0.00  0.00    +0.000 A 
ATOM     14  C   UNL     1       0.000  10.602  19.419  0.00  0.00    +0.000 A 
ENDROOT
BRANCH   1  25
ATOM     15  C   UNL     1      -2.774  12.297  22.712  0.00  0.00    +0.000 C 
ATOM     16  C   UNL     1      -3.245  12.341  21.272  0.00  0.00    +0.000 A 
ATOM     17  C   UNL     1      -4.582  12.808  21.113  0.00  0.00    +0.000 A 
ATOM     18  N   UNL     1      -5.182  12.719  19.910  0.00  0.00    +0.000 NA
ATOM     19  C   UNL     1      -4.529  12.193  18.869  0.00  0.00    +0.000 A 
ATOM     20  C   UNL     1      -5.271  12.031  17.717  0.00  0.00    +0.000 A 
ATOM     21  N   UNL     1      -4.833  11.486  16.560  0.00  0.00    +0.000 NA
ATOM     22  C   UNL     1      -3.550  11.090  16.564  0.00  0.00    +0.000 A 
ATOM     23  C   UNL     1      -2.700  11.215  17.656  0.00  0.00    +0.000 A 
ATOM     24  C   UNL     1      -3.173  11.767  18.863  0.00  0.00    +0.000 A 
ATOM     25  C   UNL     1      -2.446  11.894  20.081  0.00  0.00    +0.000 A 
BRANCH  17  26
ATOM     26  C   UNL     1      -5.503  13.379  22.172  0.00  0.00    +0.000 A 
ATOM     27  C   UNL     1      -5.509  14.756  22.440  0.00  0.00    +0.000 A 
ATOM     28  C   UNL     1      -6.352  15.287  23.429  0.00  0.00    +0.000 A 
ATOM     29  C   UNL     1      -7.177  14.436  24.141  0.00  0.00    +0.000 A 
ATOM     30  C   UNL     1      -7.115  13.089  23.837  0.00  0.00    +0.000 A 
ATOM     31  N   UNL     1      -6.308  12.541  22.883  0.00  0.00    +0.000 NA
ENDBRANCH  17  26
ENDBRANCH   1  25
BRANCH  12  32
ATOM     32  N   UNL     1       2.271   7.478  19.551  0.00  0.00    +0.000 N 
ATOM     33  C   UNL     1       3.099   6.730  18.581  0.00  0.00    +0.000 C 
ATOM     34  C   UNL     1       3.922   5.626  19.306  0.00  0.00    +0.000 C 
ATOM     35  O   UNL     1       3.086   4.708  20.029  0.00  0.00    +0.000 OA
ATOM     36  C   UNL     1       2.347   5.419  21.027  0.00  0.00    +0.000 C 
ATOM     37  C   UNL     1       1.461   6.510  20.390  0.00  0.00    +0.000 C 
ENDBRANCH  12  32
TORSDOF 3
ENDMDL
MODEL 2
REMARK VINA RESULT:      -7.7      3.732      9.057
REMARK  Name = 
REMARK  4 active torsions:
REMARK  status: ('A' for Active; 'I' for Inactive)
REMARK    1  A    between atoms: C_1  and  C_2
REMARK    2  A    between atoms: C_3  and  C_4
REMARK    3  A    between atoms: C_17  and  N_18
REMARK    4  A    between atoms: C_29  and  N_30
REMARK                            x       y       z     vdW  Elec       q    Type
REMARK                         _______ _______ _______ _____ _____    ______ ____
ROOT
ATOM      1  N   UNL     1       0.193  14.231  20.120  0.00  0.00    +0.000 N 
ATOM      2  C   UNL     1       0.502  12.968  19.411  0.00  0.00    +0.000 C 
ATOM      3  C   UNL     1      -0.545  11.892  19.594  0.00  0.00    +0.000 C 
ATOM      4  C   UNL     1      -0.330  10.824  18.518  0.00  0.00    +0.000 C 
ATOM      5  C   UNL     1       1.021  10.136  18.779  0.00  0.00    +0.000 C 
ATOM      6  O   UNL     1       1.076   9.552  20.083  0.00  0.00    +0.000 OA
ATOM      7  C   UNL     1       0.839  10.459  21.158  0.00  0.00    +0.000 C 
ATOM      8  C   UNL     1      -0.482  11.184  20.972  0.00  0.00    +0.000 C 
ATOM      9  C   UNL     1      -1.721  12.810  19.567  0.00  0.00    +0.000 A 
ATOM     10  N   UNL     1      -2.956  12.279  19.532  0.00  0.00    +0.000 NA
ATOM     11  C   UNL     1      -3.838  12.853  20.376  0.00  0.00    +0.000 A 
ATOM     12  C   UNL     1      -3.553  13.835  21.343  0.00  0.00    +0.000 A 
ATOM     13  C   UNL     1      -2.258  14.475  21.181  0.00  0.00    +0.000 A 
ATOM     14  C   UNL     1      -1.322  14.022  20.195  0.00  0.00    +0.000 A 
ENDROOT
BRANCH   1  25
ATOM     15  C   UNL     1       3.411  14.233  20.388  0.00  0.00    +0.000 C 
ATOM     16  C   UNL     1       2.625  15.132  19.454  0.00  0.00    +0.000 A 
ATOM     17  C   UNL     1       3.438  15.963  18.629  0.00  0.00    +0.000 A 
ATOM     18  N   UNL     1       2.867  16.936  17.893  0.00  0.00    +0.000 NA
ATOM     19  C   UNL     1       1.544  17.125  17.936  0.00  0.00    +0.000 A 
ATOM     20  C   UNL     1       1.074  18.224  17.247  0.00  0.00    +0.000 A 
ATOM     21  N   UNL     1      -0.214  18.631  17.184  0.00  0.00    +0.000 NA
ATOM     22  C   UNL     1      -1.090  17.864  17.855  0.00  0.00    +0.000 A 
ATOM     23  C   UNL     1      -0.739  16.727  18.572  0.00  0.00    +0.000 A 
ATOM     24  C   UNL     1       0.609  16.323  18.645  0.00  0.00    +0.000 A 
ATOM     25  C   UNL     1       1.127  15.227  19.394  0.00  0.00    +0.000 A 
BRANCH  17  26
ATOM     26  C   UNL     1       4.946  15.946  18.487  0.00  0.00    +0.000 A 
ATOM     27  C   UNL     1       5.586  14.874  17.848  0.00  0.00    +0.000 A 
ATOM     28  C   UNL     1       6.985  14.849  17.724  0.00  0.00    +0.000 A 
ATOM     29  C   UNL     1       7.728  15.894  18.243  0.00  0.00    +0.000 A 
ATOM     30  C   UNL     1       7.037  16.914  18.870  0.00  0.00    +0.000 A 
ATOM     31  N   UNL     1       5.680  16.969  19.007  0.00  0.00    +0.000 NA
ENDBRANCH  17  26
ENDBRANCH   1  25
BRANCH  12  32
ATOM     32  N   UNL     1      -4.538  14.093  22.336  0.00  0.00    +0.000 N 
ATOM     33  C   UNL     1      -5.702  13.203  22.530  0.00  0.00    +0.000 C 
ATOM     34  C   UNL     1      -6.411  13.523  23.879  0.00  0.00    +0.000 C 
ATOM     35  O   UNL     1      -6.837  14.893  23.959  0.00  0.00    +0.000 OA
ATOM     36  C   UNL     1      -5.699  15.754  23.857  0.00  0.00    +0.000 C 
ATOM     37  C   UNL     1      -4.957  15.537  22.522  0.00  0.00    +0.000 C 
ENDBRANCH  12  32
TORSDOF 3
ENDMDL
MODEL 3
REMARK VINA RESULT:      -7.6      0.826      1.309
REMARK  Name = 
REMARK  4 active torsions:
REMARK  status: ('A' for Active; 'I' for Inactive)
REMARK    1  A    between atoms: C_1  and  C_2
REMARK    2  A    between atoms: C_3  and  C_4
REMARK    3  A    between atoms: C_17  and  N_18
REMARK    4  A    between atoms: C_29  and  N_30
REMARK                            x       y       z     vdW  Elec       q    Type
REMARK                         _______ _______ _______ _____ _____    ______ ____
ROOT
ATOM      1  N   UNL     1      -1.270  11.816  20.139  0.00  0.00    +0.000 N 
ATOM      2  C   UNL     1      -0.687  13.152  19.878  0.00  0.00    +0.000 C 
ATOM      3  C   UNL     1       0.759  13.114  19.436  0.00  0.00    +0.000 C 
ATOM      4  C   UNL     1       1.109  14.470  18.818  0.00  0.00    +0.000 C 
ATOM      5  C   UNL     1       1.044  15.538  19.924  0.00  0.00    +0.000 C 
ATOM      6  O   UNL     1       1.928  15.236  21.007  0.00  0.00    +0.000 OA
ATOM      7  C   UNL     1       1.714  13.967  21.620  0.00  0.00    +0.000 C 
ATOM      8  C   UNL     1       1.761  12.853  20.589  0.00  0.00    +0.000 C 
ATOM      9  C   UNL     1       0.635  11.880  18.605  0.00  0.00    +0.000 A 
ATOM     10  N   UNL     1       1.675  11.511  17.835  0.00  0.00    +0.000 NA
ATOM     11  C   UNL     1       1.974  10.197  17.887  0.00  0.00    +0.000 A 
ATOM     12  C   UNL     1       1.394   9.240  18.742  0.00  0.00    +0.000 A 
ATOM     13  C   UNL     1       0.170   9.681  19.390  0.00  0.00    +0.000 A 
ATOM     14  C   UNL     1      -0.300  11.029  19.254  0.00  0.00    +0.000 A 
ENDROOT
BRANCH   1  25
ATOM     15  C   UNL     1      -3.050  12.534  22.735  0.00  0.00    +0.000 C 
ATOM     16  C   UNL     1      -3.560  12.566  21.308  0.00  0.00    +0.000 A 
ATOM     17  C   UNL     1      -4.908  13.010  21.183  0.00  0.00    +0.000 A 
ATOM     18  N   UNL     1      -5.538  12.908  19.996  0.00  0.00    +0.000 NA
ATOM     19  C   UNL     1      -4.904  12.390  18.940  0.00  0.00    +0.000 A 
ATOM     20  C   UNL     1      -5.673  12.211  17.808  0.00  0.00    +0.000 A 
ATOM     21  N   UNL     1      -5.256  11.670  16.642  0.00  0.00    +0.000 NA
ATOM     22  C   UNL     1      -3.967  11.296  16.613  0.00  0.00    +0.000 A 
ATOM     23  C   UNL     1      -3.091  11.438  17.682  0.00  0.00    +0.000 A 
ATOM     24  C   UNL     1      -3.541  11.986  18.899  0.00  0.00    +0.000 A 
ATOM     25  C   UNL     1      -2.784  12.129  20.098  0.00  0.00    +0.000 A 
BRANCH  17  26
ATOM     26  C   UNL     1      -5.810  13.569  22.265  0.00  0.00    +0.000 A 
ATOM     27  C   UNL     1      -6.747  12.745  22.903  0.00  0.00    +0.000 A 
ATOM     28  C   UNL     1      -7.593  13.262  23.898  0.00  0.00    +0.000 A 
ATOM     29  C   UNL     1      -7.493  14.598  24.241  0.00  0.00    +0.000 A 
ATOM     30  C   UNL     1      -6.557  15.359  23.566  0.00  0.00    +0.000 A 
ATOM     31  N   UNL     1      -5.721  14.888  22.596  0.00  0.00    +0.000 NA
ENDBRANCH  17  26
ENDBRANCH   1  25
BRANCH  12  32
ATOM     32  N   UNL     1       2.046   7.983  18.867  0.00  0.00    +0.000 N 
ATOM     33  C   UNL     1       2.190   7.303  20.172  0.00  0.00    +0.000 C 
ATOM     34  C   UNL     1       2.621   5.821  19.968  0.00  0.00    +0.000 C 
ATOM     35  O   UNL     1       3.849   5.707  19.231  0.00  0.00    +0.000 OA
ATOM     36  C   UNL     1       3.684   6.289  17.934  0.00  0.00    +0.000 C 
ATOM     37  C   UNL     1       3.299   7.779  18.039  0.00  0.00    +0.000 C 
ENDBRANCH  12  32
TORSDOF 3
ENDMDL
MODEL 4
REMARK VINA RESULT:      -7.5      3.635      8.940
REMARK  Name = 
REMARK  4 active torsions:
REMARK  status: ('A' for Active; 'I' for Inactive)
REMARK    1  A    between atoms: C_1  and  C_2
REMARK    2  A    between atoms: C_3  and  C_4
REMARK    3  A    between atoms: C_17  and  N_18
REMARK    4  A    between atoms: C_29  and  N_30
REMARK                            x       y       z     vdW  Elec       q    Type
REMARK                         _______ _______ _______ _____ _____    ______ ____
ROOT
ATOM      1  N   UNL     1       0.116  14.178  20.049  0.00  0.00    +0.000 N 
ATOM      2  C   UNL     1       0.501  12.898  19.414  0.00  0.00    +0.000 C 
ATOM      3  C   UNL     1      -0.533  11.804  19.566  0.00  0.00    +0.000 C 
ATOM      4  C   UNL     1      -0.220  10.702  18.550  0.00  0.00    +0.000 C 
ATOM      5  C   UNL     1       1.124  10.057  18.931  0.00  0.00    +0.000 C 
ATOM      6  O   UNL     1       1.099   9.524  20.257  0.00  0.00    +0.000 OA
ATOM      7  C   UNL     1       0.768  10.464  21.277  0.00  0.00    +0.000 C 
ATOM      8  C   UNL     1      -0.552  11.151  20.971  0.00  0.00    +0.000 C 
ATOM      9  C   UNL     1      -1.723  12.692  19.420  0.00  0.00    +0.000 A 
ATOM     10  N   UNL     1      -2.941  12.131  19.321  0.00  0.00    +0.000 NA
ATOM     11  C   UNL     1      -3.893  12.714  20.078  0.00  0.00    +0.000 A 
ATOM     12  C   UNL     1      -3.697  13.739  21.024  0.00  0.00    +0.000 A 
ATOM     13  C   UNL     1      -2.408  14.404  20.928  0.00  0.00    +0.000 A 
ATOM     14  C   UNL     1      -1.395  13.936  20.027  0.00  0.00    +0.000 A 
ENDROOT
BRANCH   1  25
ATOM     15  C   UNL     1       3.329  14.117  20.359  0.00  0.00    +0.000 C 
ATOM     16  C   UNL     1       2.573  15.045  19.429  0.00  0.00    +0.000 A 
ATOM     17  C   UNL     1       3.411  15.874  18.629  0.00  0.00    +0.000 A 
ATOM     18  N   UNL     1       2.867  16.869  17.901  0.00  0.00    +0.000 NA
ATOM     19  C   UNL     1       1.548  17.081  17.930  0.00  0.00    +0.000 A 
ATOM     20  C   UNL     1       1.106  18.199  17.252  0.00  0.00    +0.000 A 
ATOM     21  N   UNL     1      -0.173  18.631  17.180  0.00  0.00    +0.000 NA
ATOM     22  C   UNL     1      -1.071  17.870  17.826  0.00  0.00    +0.000 A 
ATOM     23  C   UNL     1      -0.750  16.715  18.529  0.00  0.00    +0.000 A 
ATOM     24  C   UNL     1       0.589  16.286  18.614  0.00  0.00    +0.000 A 
ATOM     25  C   UNL     1       1.078  15.169  19.352  0.00  0.00    +0.000 A 
BRANCH  17  26
ATOM     26  C   UNL     1       4.921  15.832  18.505  0.00  0.00    +0.000 A 
ATOM     27  C   UNL     1       5.704  16.871  19.027  0.00  0.00    +0.000 A 
ATOM     28  C   UNL     1       7.103  16.842  18.904  0.00  0.00    +0.000 A 
ATOM     29  C   UNL     1       7.701  15.775  18.259  0.00  0.00    +0.000 A 
ATOM     30  C   UNL     1       6.872  14.789  17.758  0.00  0.00    +0.000 A 
ATOM     31  N   UNL     1       5.511  14.787  17.860  0.00  0.00    +0.000 NA
ENDBRANCH  17  26
ENDBRANCH   1  25
BRANCH  12  32
ATOM     32  N   UNL     1      -4.755  14.010  21.935  0.00  0.00    +0.000 N 
ATOM     33  C   UNL     1      -4.569  14.888  23.109  0.00  0.00    +0.000 C 
ATOM     34  C   UNL     1      -5.947  15.277  23.720  0.00  0.00    +0.000 C 
ATOM     35  O   UNL     1      -6.719  14.127  24.101  0.00  0.00    +0.000 OA
ATOM     36  C   UNL     1      -6.973  13.319  22.948  0.00  0.00    +0.000 C 
ATOM     37  C   UNL     1      -5.655  12.846  22.300  0.00  0.00    +0.000 C 
ENDBRANCH  12  32
TORSDOF 3
ENDMDL
MODEL 5
REMARK VINA RESULT:      -7.0      2.081      5.147
REMARK  Name = 
REMARK  4 active torsions:
REMARK  status: ('A' for Active; 'I' for Inactive)
REMARK    1  A    between atoms: C_1  and  C_2
REMARK    2  A    between atoms: C_3  and  C_4
REMARK    3  A    between atoms: C_17  and  N_18
REMARK    4  A    between atoms: C_29  and  N_30
REMARK                            x       y       z     vdW  Elec       q    Type
REMARK                         _______ _______ _______ _____ _____    ______ ____
ROOT
ATOM      1  N   UNL     1      -1.349  12.278  19.639  0.00  0.00    +0.000 N 
ATOM      2  C   UNL     1      -1.016  11.074  20.433  0.00  0.00    +0.000 C 
ATOM      3  C   UNL     1       0.427  11.016  20.882  0.00  0.00    +0.000 C 
ATOM      4  C   UNL     1       0.541   9.979  22.002  0.00  0.00    +0.000 C 
ATOM      5  C   UNL     1       0.236   8.591  21.412  0.00  0.00    +0.000 C 
ATOM      6  O   UNL     1       1.119   8.266  20.335  0.00  0.00    +0.000 OA
ATOM      7  C   UNL     1       1.123   9.201  19.259  0.00  0.00    +0.000 C 
ATOM      8  C   UNL     1       1.416  10.604  19.762  0.00  0.00    +0.000 C 
ATOM      9  C   UNL     1       0.566  12.478  21.147  0.00  0.00    +0.000 A 
ATOM     10  N   UNL     1       1.685  12.922  21.748  0.00  0.00    +0.000 NA
ATOM     11  C   UNL     1       2.222  14.027  21.189  0.00  0.00    +0.000 A 
ATOM     12  C   UNL     1       1.799  14.652  20.001  0.00  0.00    +0.000 A 
ATOM     13  C   UNL     1       0.491  14.226  19.533  0.00  0.00    +0.000 A 
ATOM     14  C   UNL     1      -0.217  13.158  20.176  0.00  0.00    +0.000 A 
ENDROOT
BRANCH   1  25
ATOM     15  C   UNL     1      -2.989  12.727  22.384  0.00  0.00    +0.000 C 
ATOM     16  C   UNL     1      -3.624  12.616  21.012  0.00  0.00    +0.000 A 
ATOM     17  C   UNL     1      -5.038  12.791  21.011  0.00  0.00    +0.000 A 
ATOM     18  N   UNL     1      -5.742  12.533  19.892  0.00  0.00    +0.000 NA
ATOM     19  C   UNL     1      -5.120  12.112  18.787  0.00  0.00    +0.000 A 
ATOM     20  C   UNL     1      -5.941  11.754  17.737  0.00  0.00    +0.000 A 
ATOM     21  N   UNL     1      -5.536  11.265  16.543  0.00  0.00    +0.000 NA
ATOM     22  C   UNL     1      -4.207  11.142  16.396  0.00  0.00    +0.000 A 
ATOM     23  C   UNL     1      -3.281  11.482  17.374  0.00  0.00    +0.000 A 
ATOM     24  C   UNL     1      -3.715  11.973  18.621  0.00  0.00    +0.000 A 
ATOM     25  C   UNL     1      -2.893  12.295  19.739  0.00  0.00    +0.000 A 
BRANCH  17  26
ATOM     26  C   UNL     1      -5.928  13.203  22.167  0.00  0.00    +0.000 A 
ATOM     27  C   UNL     1      -6.024  14.550  22.542  0.00  0.00    +0.000 A 
ATOM     28  C   UNL     1      -6.838  14.934  23.620  0.00  0.00    +0.000 A 
ATOM     29  C   UNL     1      -7.544  13.966  24.312  0.00  0.00    +0.000 A 
ATOM     30  C   UNL     1      -7.396  12.655  23.898  0.00  0.00    +0.000 A 
ATOM     31  N   UNL     1      -6.615  12.249  22.856  0.00  0.00    +0.000 NA
ENDBRANCH  17  26
ENDBRANCH   1  25
BRANCH  12  32
ATOM     32  N   UNL     1       2.669  15.611  19.412  0.00  0.00    +0.000 N 
ATOM     33  C   UNL     1       3.043  15.553  17.983  0.00  0.00    +0.000 C 
ATOM     34  C   UNL     1       3.707  16.890  17.541  0.00  0.00    +0.000 C 
ATOM     35  O   UNL     1       4.867  17.209  18.326  0.00  0.00    +0.000 OA
ATOM     36  C   UNL     1       4.490  17.350  19.699  0.00  0.00    +0.000 C 
ATOM     37  C   UNL     1       3.861  16.048  20.239  0.00  0.00    +0.000 C 
ENDBRANCH  12  32
TORSDOF 3
ENDMDL
MODEL 6
REMARK VINA RESULT:      -6.8      3.586      8.631
REMARK  Name = 
REMARK  4 active torsions:
REMARK  status: ('A' for Active; 'I' for Inactive)
REMARK    1  A    between atoms: C_1  and  C_2
REMARK    2  A    between atoms: C_3  and  C_4
REMARK    3  A    between atoms: C_17  and  N_18
REMARK    4  A    between atoms: C_29  and  N_30
REMARK                            x       y       z     vdW  Elec       q    Type
REMARK                         _______ _______ _______ _____ _____    ______ ____
ROOT
ATOM      1  N   UNL     1      -0.363  13.682  20.193  0.00  0.00    +0.000 N 
ATOM      2  C   UNL     1       0.205  12.509  19.491  0.00  0.00    +0.000 C 
ATOM      3  C   UNL     1      -0.756  11.349  19.357  0.00  0.00    +0.000 C 
ATOM      4  C   UNL     1      -0.215  10.395  18.289  0.00  0.00    +0.000 C 
ATOM      5  C   UNL     1       1.100   9.785  18.806  0.00  0.00    +0.000 C 
ATOM      6  O   UNL     1       0.916   9.098  20.045  0.00  0.00    +0.000 OA
ATOM      7  C   UNL     1       0.367   9.890  21.096  0.00  0.00    +0.000 C 
ATOM      8  C   UNL     1      -0.939  10.533  20.663  0.00  0.00    +0.000 C 
ATOM      9  C   UNL     1      -1.973  12.181  19.124  0.00  0.00    +0.000 A 
ATOM     10  N   UNL     1      -3.118  11.569  18.773  0.00  0.00    +0.000 NA
ATOM     11  C   UNL     1      -4.213  12.004  19.430  0.00  0.00    +0.000 A 
ATOM     12  C   UNL     1      -4.237  12.919  20.500  0.00  0.00    +0.000 A 
ATOM     13  C   UNL     1      -3.000  13.660  20.682  0.00  0.00    +0.000 A 
ATOM     14  C   UNL     1      -1.832  13.360  19.906  0.00  0.00    +0.000 A 
ENDROOT
BRANCH   1  25
ATOM     15  C   UNL     1       2.829  13.578  20.665  0.00  0.00    +0.000 C 
ATOM     16  C   UNL     1       2.108  14.672  19.903  0.00  0.00    +0.000 A 
ATOM     17  C   UNL     1       2.973  15.653  19.337  0.00  0.00    +0.000 A 
ATOM     18  N   UNL     1       2.452  16.772  18.799  0.00  0.00    +0.000 NA
ATOM     19  C   UNL     1       1.130  16.966  18.796  0.00  0.00    +0.000 A 
ATOM     20  C   UNL     1       0.706  18.197  18.337  0.00  0.00    +0.000 A 
ATOM     21  N   UNL     1      -0.574  18.626  18.282  0.00  0.00    +0.000 NA
ATOM     22  C   UNL     1      -1.493  17.743  18.708  0.00  0.00    +0.000 A 
ATOM     23  C   UNL     1      -1.190  16.471  19.177  0.00  0.00    +0.000 A 
ATOM     24  C   UNL     1       0.150  16.041  19.248  0.00  0.00    +0.000 A 
ATOM     25  C   UNL     1       0.617  14.800  19.768  0.00  0.00    +0.000 A 
BRANCH  17  26
ATOM     26  C   UNL     1       4.488  15.646  19.293  0.00  0.00    +0.000 A 
ATOM     27  C   UNL     1       5.164  15.037  18.226  0.00  0.00    +0.000 A 
ATOM     28  C   UNL     1       6.567  15.018  18.187  0.00  0.00    +0.000 A 
ATOM     29  C   UNL     1       7.279  15.605  19.218  0.00  0.00    +0.000 A 
ATOM     30  C   UNL     1       6.553  16.177  20.246  0.00  0.00    +0.000 A 
ATOM     31  N   UNL     1       5.191  16.213  20.313  0.00  0.00    +0.000 NA
ENDBRANCH  17  26
ENDBRANCH   1  25
BRANCH  12  32
ATOM     32  N   UNL     1      -5.437  13.020  21.257  0.00  0.00    +0.000 N 
ATOM     33  C   UNL     1      -5.422  13.225  22.721  0.00  0.00    +0.000 C 
ATOM     34  C   UNL     1      -6.835  13.638  23.226  0.00  0.00    +0.000 C 
ATOM     35  O   UNL     1      -7.840  12.669  22.889  0.00  0.00    +0.000 OA
ATOM     36  C   UNL     1      -7.915  12.532  21.467  0.00  0.00    +0.000 C 
ATOM     37  C   UNL     1      -6.562  12.077  20.881  0.00  0.00    +0.000 C 
ENDBRANCH  12  32
TORSDOF 3
ENDMDL
MODEL 7
REMARK VINA RESULT:      -6.8      3.567      5.986
REMARK  Name = 
REMARK  4 active torsions:
REMARK  status: ('A' for Active; 'I' for Inactive)
REMARK    1  A    between atoms: C_1  and  C_2
REMARK    2  A    between atoms: C_3  and  C_4
REMARK    3  A    between atoms: C_17  and  N_18
REMARK    4  A    between atoms: C_29  and  N_30
REMARK                            x       y       z     vdW  Elec       q    Type
REMARK                         _______ _______ _______ _____ _____    ______ ____
ROOT
ATOM      1  N   UNL     1       1.708  14.507  21.089  0.00  0.00    +0.000 N 
ATOM      2  C   UNL     1       1.447  15.293  19.862  0.00  0.00    +0.000 C 
ATOM      3  C   UNL     1       2.650  16.058  19.357  0.00  0.00    +0.000 C 
ATOM      4  C   UNL     1       2.379  16.479  17.910  0.00  0.00    +0.000 C 
ATOM      5  C   UNL     1       1.218  17.487  17.906  0.00  0.00    +0.000 C 
ATOM      6  O   UNL     1       1.504  18.630  18.716  0.00  0.00    +0.000 OA
ATOM      7  C   UNL     1       1.819  18.339  20.076  0.00  0.00    +0.000 C 
ATOM      8  C   UNL     1       2.961  17.343  20.166  0.00  0.00    +0.000 C 
ATOM      9  C   UNL     1       3.655  15.008  19.695  0.00  0.00    +0.000 A 
ATOM     10  N   UNL     1       4.922  15.164  19.270  0.00  0.00    +0.000 NA
ATOM     11  C   UNL     1       5.864  14.898  20.198  0.00  0.00    +0.000 A 
ATOM     12  C   UNL     1       5.639  14.606  21.557  0.00  0.00    +0.000 A 
ATOM     13  C   UNL     1       4.261  14.276  21.878  0.00  0.00    +0.000 A 
ATOM     14  C   UNL     1       3.221  14.383  20.896  0.00  0.00    +0.000 A 
ENDROOT
BRANCH   1  25
ATOM     15  C   UNL     1      -0.759  14.615  23.169  0.00  0.00    +0.000 C 
ATOM     16  C   UNL     1      -0.668  13.664  21.992  0.00  0.00    +0.000 A 
ATOM     17  C   UNL     1      -1.815  12.835  21.825  0.00  0.00    +0.000 A 
ATOM     18  N   UNL     1      -1.785  11.823  20.936  0.00  0.00    +0.000 NA
ATOM     19  C   UNL     1      -0.684  11.594  20.214  0.00  0.00    +0.000 A 
ATOM     20  C   UNL     1      -0.709  10.461  19.427  0.00  0.00    +0.000 A 
ATOM     21  N   UNL     1       0.301  10.012  18.649  0.00  0.00    +0.000 NA
ATOM     22  C   UNL     1       1.410  10.770  18.656  0.00  0.00    +0.000 A 
ATOM     23  C   UNL     1       1.549  11.939  19.394  0.00  0.00    +0.000 A 
ATOM     24  C   UNL     1       0.496  12.386  20.217  0.00  0.00    +0.000 A 
ATOM     25  C   UNL     1       0.517  13.520  21.081  0.00  0.00    +0.000 A 
BRANCH  17  26
ATOM     26  C   UNL     1      -3.127  12.895  22.581  0.00  0.00    +0.000 A 
ATOM     27  C   UNL     1      -3.254  12.276  23.833  0.00  0.00    +0.000 A 
ATOM     28  C   UNL     1      -4.471  12.320  24.531  0.00  0.00    +0.000 A 
ATOM     29  C   UNL     1      -5.549  12.980  23.969  0.00  0.00    +0.000 A 
ATOM     30  C   UNL     1      -5.362  13.558  22.728  0.00  0.00    +0.000 A 
ATOM     31  N   UNL     1      -4.193  13.535  22.023  0.00  0.00    +0.000 NA
ENDBRANCH  17  26
ENDBRANCH   1  25
BRANCH  12  32
ATOM     32  N   UNL     1       6.754  14.656  22.438  0.00  0.00    +0.000 N 
ATOM     33  C   UNL     1       6.654  15.238  23.793  0.00  0.00    +0.000 C 
ATOM     34  C   UNL     1       7.901  14.854  24.643  0.00  0.00    +0.000 C 
ATOM     35  O   UNL     1       9.129  15.278  24.030  0.00  0.00    +0.000 OA
ATOM     36  C   UNL     1       9.269  14.648  22.753  0.00  0.00    +0.000 C 
ATOM     37  C   UNL     1       8.093  15.012  21.823  0.00  0.00    +0.000 C 
ENDBRANCH  12  32
TORSDOF 3
ENDMDL
MODEL 8
REMARK VINA RESULT:      -6.7      2.086      5.323
REMARK  Name = 
REMARK  4 active torsions:
REMARK  status: ('A' for Active; 'I' for Inactive)
REMARK    1  A    between atoms: C_1  and  C_2
REMARK    2  A    between atoms: C_3  and  C_4
REMARK    3  A    between atoms: C_17  and  N_18
REMARK    4  A    between atoms: C_29  and  N_30
REMARK                            x       y       z     vdW  Elec       q    Type
REMARK                         _______ _______ _______ _____ _____    ______ ____
ROOT
ATOM      1  N   UNL     1      -0.677  12.084  18.650  0.00  0.00    +0.000 N 
ATOM      2  C   UNL     1      -0.320  10.750  19.183  0.00  0.00    +0.000 C 
ATOM      3  C   UNL     1       1.063  10.683  19.792  0.00  0.00    +0.000 C 
ATOM      4  C   UNL     1       1.152   9.418  20.650  0.00  0.00    +0.000 C 
ATOM      5  C   UNL     1       1.049   8.195  19.722  0.00  0.00    +0.000 C 
ATOM      6  O   UNL     1       2.073   8.197  18.725  0.00  0.00    +0.000 OA
ATOM      7  C   UNL     1       2.108   9.361  17.902  0.00  0.00    +0.000 C 
ATOM      8  C   UNL     1       2.206  10.619  18.746  0.00  0.00    +0.000 C 
ATOM      9  C   UNL     1       1.032  12.045  20.401  0.00  0.00    +0.000 A 
ATOM     10  N   UNL     1       2.028  12.408  21.228  0.00  0.00    +0.000 NA
ATOM     11  C   UNL     1       2.515  13.647  21.012  0.00  0.00    +0.000 A 
ATOM     12  C   UNL     1       2.169  14.509  19.954  0.00  0.00    +0.000 A 
ATOM     13  C   UNL     1       0.968  14.120  19.234  0.00  0.00    +0.000 A 
ATOM     14  C   UNL     1       0.299  12.883  19.517  0.00  0.00    +0.000 A 
ENDROOT
BRANCH   1  25
ATOM     15  C   UNL     1      -2.704  12.631  21.102  0.00  0.00    +0.000 C 
ATOM     16  C   UNL     1      -3.136  12.340  19.678  0.00  0.00    +0.000 A 
ATOM     17  C   UNL     1      -4.546  12.388  19.477  0.00  0.00    +0.000 A 
ATOM     18  N   UNL     1      -5.069  11.968  18.309  0.00  0.00    +0.000 NA
ATOM     19  C   UNL     1      -4.272  11.506  17.342  0.00  0.00    +0.000 A 
ATOM     20  C   UNL     1      -4.912  10.983  16.237  0.00  0.00    +0.000 A 
ATOM     21  N   UNL     1      -4.313  10.427  15.161  0.00  0.00    +0.000 NA
ATOM     22  C   UNL     1      -2.970  10.409  15.198  0.00  0.00    +0.000 A 
ATOM     23  C   UNL     1      -2.215  10.918  16.248  0.00  0.00    +0.000 A 
ATOM     24  C   UNL     1      -2.851  11.478  17.373  0.00  0.00    +0.000 A 
ATOM     25  C   UNL     1      -2.216  11.973  18.549  0.00  0.00    +0.000 A 
BRANCH  17  26
ATOM     26  C   UNL     1      -5.614  12.822  20.462  0.00  0.00    +0.000 A 
ATOM     27  C   UNL     1      -5.991  14.169  20.551  0.00  0.00    +0.000 A 
ATOM     28  C   UNL     1      -6.971  14.577  21.471  0.00  0.00    +0.000 A 
ATOM     29  C   UNL     1      -7.562  13.632  22.291  0.00  0.00    +0.000 A 
ATOM     30  C   UNL     1      -7.137  12.323  22.161  0.00  0.00    +0.000 A 
ATOM     31  N   UNL     1      -6.188  11.894  21.279  0.00  0.00    +0.000 NA
ENDBRANCH  17  26
ENDBRANCH   1  25
BRANCH  12  32
ATOM     32  N   UNL     1       3.002  15.637  19.720  0.00  0.00    +0.000 N 
ATOM     33  C   UNL     1       4.319  15.512  19.059  0.00  0.00    +0.000 C 
ATOM     34  C   UNL     1       4.846  16.912  18.628  0.00  0.00    +0.000 C 
ATOM     35  O   UNL     1       4.951  17.820  19.737  0.00  0.00    +0.000 OA
ATOM     36  C   UNL     1       3.661  18.009  20.325  0.00  0.00    +0.000 C 
ATOM     37  C   UNL     1       3.078  16.671  20.826  0.00  0.00    +0.000 C 
ENDBRANCH  12  32
TORSDOF 3
ENDMDL
MODEL 9
REMARK VINA RESULT:      -6.5      1.806      3.660
REMARK  Name = 
REMARK  4 active torsions:
REMARK  status: ('A' for Active; 'I' for Inactive)
REMARK    1  A    between atoms: C_1  and  C_2
REMARK    2  A    between atoms: C_3  and  C_4
REMARK    3  A    between atoms: C_17  and  N_18
REMARK    4  A    between atoms: C_29  and  N_30
REMARK                            x       y       z     vdW  Elec       q    Type
REMARK                         _______ _______ _______ _____ _____    ______ ____
ROOT
ATOM      1  N   UNL     1      -0.342  12.448  20.966  0.00  0.00    +0.000 N 
ATOM      2  C   UNL     1       0.341  13.623  20.377  0.00  0.00    +0.000 C 
ATOM      3  C   UNL     1       1.563  13.274  19.558  0.00  0.00    +0.000 C 
ATOM      4  C   UNL     1       1.923  14.484  18.692  0.00  0.00    +0.000 C 
ATOM      5  C   UNL     1       2.361  15.632  19.620  0.00  0.00    +0.000 C 
ATOM      6  O   UNL     1       3.468  15.256  20.443  0.00  0.00    +0.000 OA
ATOM      7  C   UNL     1       3.250  14.105  21.255  0.00  0.00    +0.000 C 
ATOM      8  C   UNL     1       2.810  12.922  20.410  0.00  0.00    +0.000 C 
ATOM      9  C   UNL     1       1.004  12.024  18.967  0.00  0.00    +0.000 A 
ATOM     10  N   UNL     1       1.694  11.402  17.993  0.00  0.00    +0.000 NA
ATOM     11  C   UNL     1       1.783  10.063  18.135  0.00  0.00    +0.000 A 
ATOM     12  C   UNL     1       1.342   9.307  19.237  0.00  0.00    +0.000 A 
ATOM     13  C   UNL     1       0.453  10.024  20.136  0.00  0.00    +0.000 A 
ATOM     14  C   UNL     1       0.182  11.421  19.958  0.00  0.00    +0.000 A 
ENDROOT
BRANCH   1  25
ATOM     15  C   UNL     1      -2.853  12.486  18.936  0.00  0.00    +0.000 C 
ATOM     16  C   UNL     1      -2.908  12.941  20.381  0.00  0.00    +0.000 A 
ATOM     17  C   UNL     1      -4.205  13.343  20.814  0.00  0.00    +0.000 A 
ATOM     18  N   UNL     1      -4.354  13.942  22.012  0.00  0.00    +0.000 NA
ATOM     19  C   UNL     1      -3.291  14.162  22.791  0.00  0.00    +0.000 A 
ATOM     20  C   UNL     1      -3.530  14.893  23.937  0.00  0.00    +0.000 A 
ATOM     21  N   UNL     1      -2.604  15.268  24.848  0.00  0.00    +0.000 NA
ATOM     22  C   UNL     1      -1.349  14.864  24.588  0.00  0.00    +0.000 A 
ATOM     23  C   UNL     1      -0.988  14.112  23.477  0.00  0.00    +0.000 A 
ATOM     24  C   UNL     1      -1.959  13.743  22.525  0.00  0.00    +0.000 A 
ATOM     25  C   UNL     1      -1.730  13.038  21.308  0.00  0.00    +0.000 A 
BRANCH  17  26
ATOM     26  C   UNL     1      -5.515  13.235  20.060  0.00  0.00    +0.000 A 
ATOM     27  C   UNL     1      -6.237  12.033  20.061  0.00  0.00    +0.000 A 
ATOM     28  C   UNL     1      -7.445  11.925  19.354  0.00  0.00    +0.000 A 
ATOM     29  C   UNL     1      -7.916  13.019  18.651  0.00  0.00    +0.000 A 
ATOM     30  C   UNL     1      -7.152  14.170  18.681  0.00  0.00    +0.000 A 
ATOM     31  N   UNL     1      -5.975  14.309  19.358  0.00  0.00    +0.000 NA
ENDBRANCH  17  26
ENDBRANCH   1  25
BRANCH  12  32
ATOM     32  N   UNL     1       1.793   7.963  19.341  0.00  0.00    +0.000 N 
ATOM     33  C   UNL     1       1.870   7.263  20.641  0.00  0.00    +0.000 C 
ATOM     34  C   UNL     1       2.059   5.733  20.424  0.00  0.00    +0.000 C 
ATOM     35  O   UNL     1       3.231   5.433  19.649  0.00  0.00    +0.000 OA
ATOM     36  C   UNL     1       3.119   6.039  18.358  0.00  0.00    +0.000 C 
ATOM     37  C   UNL     1       2.973   7.571  18.475  0.00  0.00    +0.000 C 
ENDBRANCH  12  32
TORSDOF 3
ENDMDL
