MODEL 1
REMARK VINA RESULT:      -7.7      0.000      0.000
REMARK  Name = 
REMARK  10 active torsions:
REMARK  status: ('A' for Active; 'I' for Inactive)
REMARK    1  A    between atoms: C_1  and  O_2
REMARK    2  A    between atoms: O_2  and  C_3
REMARK    3  A    between atoms: C_6  and  C_7
REMARK    4  A    between atoms: C_7  and  N_8
REMARK    5  A    between atoms: C_9  and  C_11
REMARK    6  A    between atoms: C_14  and  C_15
REMARK    7  A    between atoms: C_15  and  C_16
REMARK    8  A    between atoms: C_16  and  N_17
REMARK    9  A    between atoms: N_17  and  C_18
REMARK   10  A    between atoms: C_18  and  C_19
REMARK                            x       y       z     vdW  Elec       q    Type
REMARK                         _______ _______ _______ _____ _____    ______ ____
ROOT
ATOM      1  C   UNL     1       2.030   7.716  18.915  0.00  0.00    +0.000 A 
ATOM      2  C   UNL     1       1.807   7.286  20.211  0.00  0.00    +0.000 A 
ATOM      3  S   UNL     1       2.366   5.684  20.414  0.00  0.00    +0.000 S 
ATOM      4  C   UNL     1       2.880   5.663  18.771  0.00  0.00    +0.000 A 
ATOM      5  N   UNL     1       2.639   6.764  18.087  0.00  0.00    +0.000 NA
ENDROOT
BRANCH   1   7
ATOM      6  N   UNL     1       0.699   9.668  19.188  0.00  0.00    +0.000 N 
ATOM      7  C   UNL     1       1.675   9.056  18.441  0.00  0.00    +0.000 C 
ATOM      8  O   UNL     1       2.209   9.577  17.467  0.00  0.00    +0.000 OA
ATOM      9  H   UNL     1       0.352   9.170  20.002  0.00  0.00    +0.000 HD
BRANCH   6  10
ATOM     10  C   UNL     1       0.198  10.992  18.884  0.00  0.00    +0.000 C 
BRANCH  10  14
ATOM     11  C   UNL     1      -4.011  11.075  18.086  0.00  0.00    +0.000 A 
ATOM     12  C   UNL     1      -3.436  12.131  18.782  0.00  0.00    +0.000 A 
ATOM     13  C   UNL     1      -2.065  12.115  19.049  0.00  0.00    +0.000 A 
ATOM     14  C   UNL     1      -1.293  11.033  18.626  0.00  0.00    +0.000 A 
ATOM     15  N   UNL     1      -1.834   9.996  17.939  0.00  0.00    +0.000 NA
ATOM     16  C   UNL     1      -3.166  10.049  17.683  0.00  0.00    +0.000 A 
BRANCH  11  18
ATOM     17  C   UNL     1      -6.155  10.258  18.689  0.00  0.00    +0.000 C 
ATOM     18  O   UNL     1      -5.328  10.943  17.755  0.00  0.00    +0.000 OA
ENDBRANCH  11  18
ENDBRANCH  10  14
ENDBRANCH   6  10
ENDBRANCH   1   7
BRANCH   4  19
ATOM     19  C   UNL     1       3.576   4.452  18.222  0.00  0.00    +0.000 C 
BRANCH  19  20
ATOM     20  C   UNL     1       4.663   3.942  19.175  0.00  0.00    +0.000 C 
BRANCH  20  21
ATOM     21  N   UNL     1       5.922   3.707  18.451  0.00  0.00    +0.000 NA
ATOM     22  H   UNL     1       5.764   3.007  17.722  0.00  0.00    +0.000 HD
BRANCH  21  23
ATOM     23  C   UNL     1       6.370   4.935  17.780  0.00  0.00    +0.000 C 
BRANCH  23  24
ATOM     24  C   UNL     1       6.454   4.717  16.306  0.00  0.00    +0.000 A 
ATOM     25  N   UNL     1       5.728   3.893  15.578  0.00  0.00    +0.000 NA
ATOM     26  C   UNL     1       6.189   4.031  14.291  0.00  0.00    +0.000 A 
ATOM     27  C   UNL     1       5.778   3.386  13.116  0.00  0.00    +0.000 A 
ATOM     28  C   UNL     1       6.430   3.695  11.916  0.00  0.00    +0.000 A 
ATOM     29  C   UNL     1       7.468   4.629  11.886  0.00  0.00    +0.000 A 
ATOM     30  C   UNL     1       7.888   5.289  13.048  0.00  0.00    +0.000 A 
ATOM     31  C   UNL     1       7.222   4.960  14.230  0.00  0.00    +0.000 A 
ATOM     32  N   UNL     1       7.367   5.386  15.525  0.00  0.00    +0.000 N 
ATOM     33  H   UNL     1       8.051   6.043  15.870  0.00  0.00    +0.000 HD
ENDBRANCH  23  24
ENDBRANCH  21  23
ENDBRANCH  20  21
ENDBRANCH  19  20
ENDBRANCH   4  19
TORSDOF 9
ENDMDL
MODEL 2
REMARK VINA RESULT:      -7.7      2.728      3.647
REMARK  Name = 
REMARK  10 active torsions:
REMARK  status: ('A' for Active; 'I' for Inactive)
REMARK    1  A    between atoms: C_1  and  O_2
REMARK    2  A    between atoms: O_2  and  C_3
REMARK    3  A    between atoms: C_6  and  C_7
REMARK    4  A    between atoms: C_7  and  N_8
REMARK    5  A    between atoms: C_9  and  C_11
REMARK    6  A    between atoms: C_14  and  C_15
REMARK    7  A    between atoms: C_15  and  C_16
REMARK    8  A    between atoms: C_16  and  N_17
REMARK    9  A    between atoms: N_17  and  C_18
REMARK   10  A    between atoms: C_18  and  C_19
REMARK                            x       y       z     vdW  Elec       q    Type
REMARK                         _______ _______ _______ _____ _____    ______ ____
ROOT
ATOM      1  C   UNL     1       2.346   6.215  19.080  0.00  0.00    +0.000 A 
ATOM      2  C   UNL     1       2.994   5.907  20.262  0.00  0.00    +0.000 A 
ATOM      3  S   UNL     1       2.494   4.377  20.838  0.00  0.00    +0.000 S 
ATOM      4  C   UNL     1       1.454   4.214  19.475  0.00  0.00    +0.000 A 
ATOM      5  N   UNL     1       1.447   5.235  18.641  0.00  0.00    +0.000 NA
ENDROOT
BRANCH   1   7
ATOM      6  N   UNL     1       1.787   8.502  18.735  0.00  0.00    +0.000 N 
ATOM      7  C   UNL     1       2.581   7.455  18.335  0.00  0.00    +0.000 C 
ATOM      8  O   UNL     1       3.417   7.542  17.441  0.00  0.00    +0.000 OA
ATOM      9  H   UNL     1       1.158   8.339  19.515  0.00  0.00    +0.000 HD
BRANCH   6  10
ATOM     10  C   UNL     1       1.855   9.812  18.122  0.00  0.00    +0.000 C 
BRANCH  10  14
ATOM     11  C   UNL     1      -1.155  12.515  19.536  0.00  0.00    +0.000 A 
ATOM     12  C   UNL     1      -1.541  11.400  18.802  0.00  0.00    +0.000 A 
ATOM     13  C   UNL     1      -0.569  10.511  18.335  0.00  0.00    +0.000 A 
ATOM     14  C   UNL     1       0.777  10.762  18.599  0.00  0.00    +0.000 A 
ATOM     15  N   UNL     1       1.175  11.841  19.319  0.00  0.00    +0.000 NA
ATOM     16  C   UNL     1       0.205  12.677  19.771  0.00  0.00    +0.000 A 
BRANCH  11  18
ATOM     17  C   UNL     1      -3.094  13.013  20.808  0.00  0.00    +0.000 C 
ATOM     18  O   UNL     1      -1.979  13.472  20.052  0.00  0.00    +0.000 OA
ENDBRANCH  11  18
ENDBRANCH  10  14
ENDBRANCH   6  10
ENDBRANCH   1   7
BRANCH   4  19
ATOM     19  C   UNL     1       0.657   2.956  19.292  0.00  0.00    +0.000 C 
BRANCH  19  20
ATOM     20  C   UNL     1       1.453   1.885  18.536  0.00  0.00    +0.000 C 
BRANCH  20  21
ATOM     21  N   UNL     1       2.362   2.506  17.559  0.00  0.00    +0.000 NA
ATOM     22  H   UNL     1       2.324   3.523  17.664  0.00  0.00    +0.000 HD
BRANCH  21  23
ATOM     23  C   UNL     1       3.750   2.098  17.812  0.00  0.00    +0.000 C 
BRANCH  23  24
ATOM     24  C   UNL     1       4.652   3.288  17.782  0.00  0.00    +0.000 A 
ATOM     25  N   UNL     1       4.785   4.164  16.807  0.00  0.00    +0.000 NA
ATOM     26  C   UNL     1       5.742   5.052  17.236  0.00  0.00    +0.000 A 
ATOM     27  C   UNL     1       6.277   6.175  16.590  0.00  0.00    +0.000 A 
ATOM     28  C   UNL     1       7.270   6.917  17.243  0.00  0.00    +0.000 A 
ATOM     29  C   UNL     1       7.720   6.548  18.513  0.00  0.00    +0.000 A 
ATOM     30  C   UNL     1       7.193   5.432  19.176  0.00  0.00    +0.000 A 
ATOM     31  C   UNL     1       6.206   4.711  18.501  0.00  0.00    +0.000 A 
ATOM     32  N   UNL     1       5.492   3.588  18.829  0.00  0.00    +0.000 N 
ATOM     33  H   UNL     1       5.584   3.039  19.671  0.00  0.00    +0.000 HD
ENDBRANCH  23  24
ENDBRANCH  21  23
ENDBRANCH  20  21
ENDBRANCH  19  20
ENDBRANCH   4  19
TORSDOF 9
ENDMDL
MODEL 3
REMARK VINA RESULT:      -7.5      2.537      3.358
REMARK  Name = 
REMARK  10 active torsions:
REMARK  status: ('A' for Active; 'I' for Inactive)
REMARK    1  A    between atoms: C_1  and  O_2
REMARK    2  A    between atoms: O_2  and  C_3
REMARK    3  A    between atoms: C_6  and  C_7
REMARK    4  A    between atoms: C_7  and  N_8
REMARK    5  A    between atoms: C_9  and  C_11
REMARK    6  A    between atoms: C_14  and  C_15
REMARK    7  A    between atoms: C_15  and  C_16
REMARK    8  A    between atoms: C_16  and  N_17
REMARK    9  A    between atoms: N_17  and  C_18
REMARK   10  A    between atoms: C_18  and  C_19
REMARK                            x       y       z     vdW  Elec       q    Type
REMARK                         _______ _______ _______ _____ _____    ______ ____
ROOT
ATOM      1  C   UNL     1       1.577   8.005  20.503  0.00  0.00    +0.000 A 
ATOM      2  C   UNL     1       2.181   7.918  19.262  0.00  0.00    +0.000 A 
ATOM      3  S   UNL     1       2.529   6.289  18.879  0.00  0.00    +0.000 S 
ATOM      4  C   UNL     1       1.846   5.798  20.383  0.00  0.00    +0.000 A 
ATOM      5  N   UNL     1       1.400   6.774  21.148  0.00  0.00    +0.000 NA
ENDROOT
BRANCH   1   7
ATOM      6  N   UNL     1       0.696  10.192  20.180  0.00  0.00    +0.000 N 
ATOM      7  C   UNL     1       1.142   9.272  21.097  0.00  0.00    +0.000 C 
ATOM      8  O   UNL     1       1.172   9.481  22.306  0.00  0.00    +0.000 OA
ATOM      9  H   UNL     1       0.669   9.905  19.207  0.00  0.00    +0.000 HD
BRANCH   6  10
ATOM     10  C   UNL     1       0.230  11.509  20.558  0.00  0.00    +0.000 C 
BRANCH  10  14
ATOM     11  C   UNL     1      -3.831  12.270  19.421  0.00  0.00    +0.000 A 
ATOM     12  C   UNL     1      -3.379  12.727  20.653  0.00  0.00    +0.000 A 
ATOM     13  C   UNL     1      -2.057  12.485  21.035  0.00  0.00    +0.000 A 
ATOM     14  C   UNL     1      -1.212  11.775  20.182  0.00  0.00    +0.000 A 
ATOM     15  N   UNL     1      -1.632  11.326  18.972  0.00  0.00    +0.000 NA
ATOM     16  C   UNL     1      -2.917  11.591  18.625  0.00  0.00    +0.000 A 
BRANCH  11  18
ATOM     17  C   UNL     1      -5.608  11.329  18.163  0.00  0.00    +0.000 C 
ATOM     18  O   UNL     1      -5.087  12.422  18.911  0.00  0.00    +0.000 OA
ENDBRANCH  11  18
ENDBRANCH  10  14
ENDBRANCH   6  10
ENDBRANCH   1   7
BRANCH   4  19
ATOM     19  C   UNL     1       1.768   4.340  20.726  0.00  0.00    +0.000 C 
BRANCH  19  20
ATOM     20  C   UNL     1       1.782   3.461  19.470  0.00  0.00    +0.000 C 
BRANCH  20  21
ATOM     21  N   UNL     1       2.782   2.389  19.595  0.00  0.00    +0.000 NA
ATOM     22  H   UNL     1       2.304   1.503  19.777  0.00  0.00    +0.000 HD
BRANCH  21  23
ATOM     23  C   UNL     1       3.525   2.226  18.337  0.00  0.00    +0.000 C 
BRANCH  23  24
ATOM     24  C   UNL     1       4.496   3.347  18.162  0.00  0.00    +0.000 A 
ATOM     25  N   UNL     1       4.680   4.082  17.084  0.00  0.00    +0.000 NA
ATOM     26  C   UNL     1       5.689   4.959  17.401  0.00  0.00    +0.000 A 
ATOM     27  C   UNL     1       6.289   5.957  16.621  0.00  0.00    +0.000 A 
ATOM     28  C   UNL     1       7.324   6.717  17.180  0.00  0.00    +0.000 A 
ATOM     29  C   UNL     1       7.752   6.488  18.490  0.00  0.00    +0.000 A 
ATOM     30  C   UNL     1       7.161   5.499  19.287  0.00  0.00    +0.000 A 
ATOM     31  C   UNL     1       6.132   4.756  18.703  0.00  0.00    +0.000 A 
ATOM     32  N   UNL     1       5.353   3.729  19.167  0.00  0.00    +0.000 N 
ATOM     33  H   UNL     1       5.413   3.287  20.073  0.00  0.00    +0.000 HD
ENDBRANCH  23  24
ENDBRANCH  21  23
ENDBRANCH  20  21
ENDBRANCH  19  20
ENDBRANCH   4  19
TORSDOF 9
ENDMDL
MODEL 4
REMARK VINA RESULT:      -7.5      3.147      4.018
REMARK  Name = 
REMARK  10 active torsions:
REMARK  status: ('A' for Active; 'I' for Inactive)
REMARK    1  A    between atoms: C_1  and  O_2
REMARK    2  A    between atoms: O_2  and  C_3
REMARK    3  A    between atoms: C_6  and  C_7
REMARK    4  A    between atoms: C_7  and  N_8
REMARK    5  A    between atoms: C_9  and  C_11
REMARK    6  A    between atoms: C_14  and  C_15
REMARK    7  A    between atoms: C_15  and  C_16
REMARK    8  A    between atoms: C_16  and  N_17
REMARK    9  A    between atoms: N_17  and  C_18
REMARK   10  A    between atoms: C_18  and  C_19
REMARK                            x       y       z     vdW  Elec       q    Type
REMARK                         _______ _______ _______ _____ _____    ______ ____
ROOT
ATOM      1  C   UNL     1       1.546   8.256  20.701  0.00  0.00    +0.000 A 
ATOM      2  C   UNL     1       2.006   8.235  19.397  0.00  0.00    +0.000 A 
ATOM      3  S   UNL     1       2.186   6.625  18.851  0.00  0.00    +0.000 S 
ATOM      4  C   UNL     1       1.630   6.054  20.378  0.00  0.00    +0.000 A 
ATOM      5  N   UNL     1       1.345   6.989  21.263  0.00  0.00    +0.000 NA
ENDROOT
BRANCH   1   7
ATOM      6  N   UNL     1       0.891  10.542  20.639  0.00  0.00    +0.000 N 
ATOM      7  C   UNL     1       1.276   9.493  21.438  0.00  0.00    +0.000 C 
ATOM      8  O   UNL     1       1.381   9.574  22.658  0.00  0.00    +0.000 OA
ATOM      9  H   UNL     1       0.790  10.360  19.645  0.00  0.00    +0.000 HD
BRANCH   6  10
ATOM     10  C   UNL     1       0.585  11.855  21.167  0.00  0.00    +0.000 C 
BRANCH  10  14
ATOM     11  C   UNL     1      -3.538  12.410  22.195  0.00  0.00    +0.000 A 
ATOM     12  C   UNL     1      -2.615  12.182  23.208  0.00  0.00    +0.000 A 
ATOM     13  C   UNL     1      -1.268  11.999  22.886  0.00  0.00    +0.000 A 
ATOM     14  C   UNL     1      -0.869  12.033  21.550  0.00  0.00    +0.000 A 
ATOM     15  N   UNL     1      -1.753  12.260  20.546  0.00  0.00    +0.000 NA
ATOM     16  C   UNL     1      -3.051  12.449  20.894  0.00  0.00    +0.000 A 
BRANCH  11  18
ATOM     17  C   UNL     1      -5.357  12.749  23.680  0.00  0.00    +0.000 C 
ATOM     18  O   UNL     1      -4.880  12.600  22.347  0.00  0.00    +0.000 OA
ENDBRANCH  11  18
ENDBRANCH  10  14
ENDBRANCH   6  10
ENDBRANCH   1   7
BRANCH   4  19
ATOM     19  C   UNL     1       1.477   4.580  20.613  0.00  0.00    +0.000 C 
BRANCH  19  20
ATOM     20  C   UNL     1       1.544   3.788  19.302  0.00  0.00    +0.000 C 
BRANCH  20  21
ATOM     21  N   UNL     1       2.572   2.738  19.379  0.00  0.00    +0.000 NA
ATOM     22  H   UNL     1       2.115   1.830  19.498  0.00  0.00    +0.000 HD
BRANCH  21  23
ATOM     23  C   UNL     1       3.339   2.673  18.127  0.00  0.00    +0.000 C 
BRANCH  23  24
ATOM     24  C   UNL     1       4.446   3.674  18.147  0.00  0.00    +0.000 A 
ATOM     25  N   UNL     1       5.308   3.892  19.119  0.00  0.00    +0.000 NA
ATOM     26  C   UNL     1       6.110   4.917  18.680  0.00  0.00    +0.000 A 
ATOM     27  C   UNL     1       7.184   5.553  19.319  0.00  0.00    +0.000 A 
ATOM     28  C   UNL     1       7.837   6.600  18.655  0.00  0.00    +0.000 A 
ATOM     29  C   UNL     1       7.429   7.004  17.381  0.00  0.00    +0.000 A 
ATOM     30  C   UNL     1       6.363   6.376  16.725  0.00  0.00    +0.000 A 
ATOM     31  C   UNL     1       5.729   5.337  17.411  0.00  0.00    +0.000 A 
ATOM     32  N   UNL     1       4.672   4.526  17.091  0.00  0.00    +0.000 N 
ATOM     33  H   UNL     1       4.116   4.563  16.250  0.00  0.00    +0.000 HD
ENDBRANCH  23  24
ENDBRANCH  21  23
ENDBRANCH  20  21
ENDBRANCH  19  20
ENDBRANCH   4  19
TORSDOF 9
ENDMDL
MODEL 5
REMARK VINA RESULT:      -7.5      2.749      3.723
REMARK  Name = 
REMARK  10 active torsions:
REMARK  status: ('A' for Active; 'I' for Inactive)
REMARK    1  A    between atoms: C_1  and  O_2
REMARK    2  A    between atoms: O_2  and  C_3
REMARK    3  A    between atoms: C_6  and  C_7
REMARK    4  A    between atoms: C_7  and  N_8
REMARK    5  A    between atoms: C_9  and  C_11
REMARK    6  A    between atoms: C_14  and  C_15
REMARK    7  A    between atoms: C_15  and  C_16
REMARK    8  A    between atoms: C_16  and  N_17
REMARK    9  A    between atoms: N_17  and  C_18
REMARK   10  A    between atoms: C_18  and  C_19
REMARK                            x       y       z     vdW  Elec       q    Type
REMARK                         _______ _______ _______ _____ _____    ______ ____
ROOT
ATOM      1  C   UNL     1       1.420   9.103  19.168  0.00  0.00    +0.000 A 
ATOM      2  C   UNL     1       2.028   8.671  18.004  0.00  0.00    +0.000 A 
ATOM      3  S   UNL     1       2.685   7.108  18.216  0.00  0.00    +0.000 S 
ATOM      4  C   UNL     1       2.111   7.096  19.840  0.00  0.00    +0.000 A 
ATOM      5  N   UNL     1       1.486   8.190  20.228  0.00  0.00    +0.000 NA
ENDROOT
BRANCH   1   7
ATOM      6  N   UNL     1       1.119  11.113  20.404  0.00  0.00    +0.000 N 
ATOM      7  C   UNL     1       0.749  10.400  19.291  0.00  0.00    +0.000 C 
ATOM      8  O   UNL     1      -0.064  10.806  18.466  0.00  0.00    +0.000 OA
ATOM      9  H   UNL     1       1.833  10.709  21.002  0.00  0.00    +0.000 HD
BRANCH   6  10
ATOM     10  C   UNL     1       0.568  12.415  20.717  0.00  0.00    +0.000 C 
BRANCH  10  14
ATOM     11  C   UNL     1      -3.203  12.318  22.749  0.00  0.00    +0.000 A 
ATOM     12  C   UNL     1      -2.104  11.704  23.337  0.00  0.00    +0.000 A 
ATOM     13  C   UNL     1      -0.869  11.728  22.684  0.00  0.00    +0.000 A 
ATOM     14  C   UNL     1      -0.758  12.356  21.444  0.00  0.00    +0.000 A 
ATOM     15  N   UNL     1      -1.817  12.968  20.855  0.00  0.00    +0.000 NA
ATOM     16  C   UNL     1      -2.999  12.939  21.523  0.00  0.00    +0.000 A 
BRANCH  11  18
ATOM     17  C   UNL     1      -4.588  12.398  24.673  0.00  0.00    +0.000 C 
ATOM     18  O   UNL     1      -4.469  12.375  23.255  0.00  0.00    +0.000 OA
ENDBRANCH  11  18
ENDBRANCH  10  14
ENDBRANCH   6  10
ENDBRANCH   1   7
BRANCH   4  19
ATOM     19  C   UNL     1       2.318   5.881  20.696  0.00  0.00    +0.000 C 
BRANCH  19  20
ATOM     20  C   UNL     1       1.237   4.822  20.446  0.00  0.00    +0.000 C 
BRANCH  20  21
ATOM     21  N   UNL     1       1.779   3.698  19.666  0.00  0.00    +0.000 NA
ATOM     22  H   UNL     1       1.776   3.947  18.673  0.00  0.00    +0.000 HD
BRANCH  21  23
ATOM     23  C   UNL     1       3.175   3.436  20.039  0.00  0.00    +0.000 C 
BRANCH  23  24
ATOM     24  C   UNL     1       4.084   3.751  18.897  0.00  0.00    +0.000 A 
ATOM     25  N   UNL     1       3.797   3.705  17.613  0.00  0.00    +0.000 NA
ATOM     26  C   UNL     1       4.955   4.055  16.961  0.00  0.00    +0.000 A 
ATOM     27  C   UNL     1       5.216   4.159  15.588  0.00  0.00    +0.000 A 
ATOM     28  C   UNL     1       6.504   4.523  15.174  0.00  0.00    +0.000 A 
ATOM     29  C   UNL     1       7.510   4.778  16.108  0.00  0.00    +0.000 A 
ATOM     30  C   UNL     1       7.267   4.685  17.485  0.00  0.00    +0.000 A 
ATOM     31  C   UNL     1       5.975   4.319  17.869  0.00  0.00    +0.000 A 
ATOM     32  N   UNL     1       5.393   4.124  19.094  0.00  0.00    +0.000 N 
ATOM     33  H   UNL     1       5.844   4.195  19.994  0.00  0.00    +0.000 HD
ENDBRANCH  23  24
ENDBRANCH  21  23
ENDBRANCH  20  21
ENDBRANCH  19  20
ENDBRANCH   4  19
TORSDOF 9
ENDMDL
MODEL 6
REMARK VINA RESULT:      -7.4      2.373      3.260
REMARK  Name = 
REMARK  10 active torsions:
REMARK  status: ('A' for Active; 'I' for Inactive)
REMARK    1  A    between atoms: C_1  and  O_2
REMARK    2  A    between atoms: O_2  and  C_3
REMARK    3  A    between atoms: C_6  and  C_7
REMARK    4  A    between atoms: C_7  and  N_8
REMARK    5  A    between atoms: C_9  and  C_11
REMARK    6  A    between atoms: C_14  and  C_15
REMARK    7  A    between atoms: C_15  and  C_16
REMARK    8  A    between atoms: C_16  and  N_17
REMARK    9  A    between atoms: N_17  and  C_18
REMARK   10  A    between atoms: C_18  and  C_19
REMARK                            x       y       z     vdW  Elec       q    Type
REMARK                         _______ _______ _______ _____ _____    ______ ____
ROOT
ATOM      1  C   UNL     1       2.187   6.387  19.399  0.00  0.00    +0.000 A 
ATOM      2  C   UNL     1       1.897   6.225  20.742  0.00  0.00    +0.000 A 
ATOM      3  S   UNL     1       1.979   4.575  21.177  0.00  0.00    +0.000 S 
ATOM      4  C   UNL     1       2.405   4.177  19.557  0.00  0.00    +0.000 A 
ATOM      5  N   UNL     1       2.466   5.194  18.721  0.00  0.00    +0.000 NA
ENDROOT
BRANCH   1   7
ATOM      6  N   UNL     1       1.441   8.645  19.351  0.00  0.00    +0.000 N 
ATOM      7  C   UNL     1       2.215   7.693  18.735  0.00  0.00    +0.000 C 
ATOM      8  O   UNL     1       2.877   7.907  17.724  0.00  0.00    +0.000 OA
ATOM      9  H   UNL     1       0.967   8.379  20.208  0.00  0.00    +0.000 HD
BRANCH   6  10
ATOM     10  C   UNL     1       1.324   9.999  18.851  0.00  0.00    +0.000 C 
BRANCH  10  14
ATOM     11  C   UNL     1      -2.728  11.242  18.219  0.00  0.00    +0.000 A 
ATOM     12  C   UNL     1      -2.211  10.210  17.446  0.00  0.00    +0.000 A 
ATOM     13  C   UNL     1      -0.891   9.796  17.642  0.00  0.00    +0.000 A 
ATOM     14  C   UNL     1      -0.104  10.433  18.601  0.00  0.00    +0.000 A 
ATOM     15  N   UNL     1      -0.592  11.438  19.372  0.00  0.00    +0.000 NA
ATOM     16  C   UNL     1      -1.883  11.807  19.166  0.00  0.00    +0.000 A 
BRANCH  11  18
ATOM     17  C   UNL     1      -4.716  11.498  16.950  0.00  0.00    +0.000 C 
ATOM     18  O   UNL     1      -3.988  11.760  18.144  0.00  0.00    +0.000 OA
ENDBRANCH  11  18
ENDBRANCH  10  14
ENDBRANCH   6  10
ENDBRANCH   1   7
BRANCH   4  19
ATOM     19  C   UNL     1       2.702   2.752  19.192  0.00  0.00    +0.000 C 
BRANCH  19  20
ATOM     20  C   UNL     1       2.381   2.465  17.720  0.00  0.00    +0.000 C 
BRANCH  20  21
ATOM     21  N   UNL     1       3.088   3.408  16.840  0.00  0.00    +0.000 NA
ATOM     22  H   UNL     1       3.044   4.346  17.247  0.00  0.00    +0.000 HD
BRANCH  21  23
ATOM     23  C   UNL     1       4.510   3.052  16.736  0.00  0.00    +0.000 C 
BRANCH  23  24
ATOM     24  C   UNL     1       5.364   4.217  17.112  0.00  0.00    +0.000 A 
ATOM     25  N   UNL     1       5.382   5.408  16.551  0.00  0.00    +0.000 NA
ATOM     26  C   UNL     1       6.342   6.122  17.227  0.00  0.00    +0.000 A 
ATOM     27  C   UNL     1       6.779   7.441  17.037  0.00  0.00    +0.000 A 
ATOM     28  C   UNL     1       7.800   7.935  17.859  0.00  0.00    +0.000 A 
ATOM     29  C   UNL     1       8.371   7.134  18.851  0.00  0.00    +0.000 A 
ATOM     30  C   UNL     1       7.943   5.816  19.059  0.00  0.00    +0.000 A 
ATOM     31  C   UNL     1       6.926   5.349  18.224  0.00  0.00    +0.000 A 
ATOM     32  N   UNL     1       6.282   4.142  18.134  0.00  0.00    +0.000 N 
ATOM     33  H   UNL     1       6.467   3.318  18.685  0.00  0.00    +0.000 HD
ENDBRANCH  23  24
ENDBRANCH  21  23
ENDBRANCH  20  21
ENDBRANCH  19  20
ENDBRANCH   4  19
TORSDOF 9
ENDMDL
MODEL 7
REMARK VINA RESULT:      -7.4      1.399      1.922
REMARK  Name = 
REMARK  10 active torsions:
REMARK  status: ('A' for Active; 'I' for Inactive)
REMARK    1  A    between atoms: C_1  and  O_2
REMARK    2  A    between atoms: O_2  and  C_3
REMARK    3  A    between atoms: C_6  and  C_7
REMARK    4  A    between atoms: C_7  and  N_8
REMARK    5  A    between atoms: C_9  and  C_11
REMARK    6  A    between atoms: C_14  and  C_15
REMARK    7  A    between atoms: C_15  and  C_16
REMARK    8  A    between atoms: C_16  and  N_17
REMARK    9  A    between atoms: N_17  and  C_18
REMARK   10  A    between atoms: C_18  and  C_19
REMARK                            x       y       z     vdW  Elec       q    Type
REMARK                         _______ _______ _______ _____ _____    ______ ____
ROOT
ATOM      1  C   UNL     1       1.932   8.173  19.271  0.00  0.00    +0.000 A 
ATOM      2  C   UNL     1       2.392   8.580  18.032  0.00  0.00    +0.000 A 
ATOM      3  S   UNL     1       3.347   7.355  17.317  0.00  0.00    +0.000 S 
ATOM      4  C   UNL     1       3.082   6.356  18.694  0.00  0.00    +0.000 A 
ATOM      5  N   UNL     1       2.348   6.891  19.650  0.00  0.00    +0.000 NA
ENDROOT
BRANCH   1   7
ATOM      6  N   UNL     1       0.595  10.129  19.495  0.00  0.00    +0.000 N 
ATOM      7  C   UNL     1       1.071   9.002  20.119  0.00  0.00    +0.000 C 
ATOM      8  O   UNL     1       0.800   8.704  21.279  0.00  0.00    +0.000 OA
ATOM      9  H   UNL     1       0.842  10.261  18.519  0.00  0.00    +0.000 HD
BRANCH   6  10
ATOM     10  C   UNL     1      -0.265  11.085  20.159  0.00  0.00    +0.000 C 
BRANCH  10  14
ATOM     11  C   UNL     1      -4.087  11.631  18.300  0.00  0.00    +0.000 A 
ATOM     12  C   UNL     1      -3.200  10.708  17.760  0.00  0.00    +0.000 A 
ATOM     13  C   UNL     1      -1.951  10.521  18.357  0.00  0.00    +0.000 A 
ATOM     14  C   UNL     1      -1.604  11.274  19.478  0.00  0.00    +0.000 A 
ATOM     15  N   UNL     1      -2.458  12.175  20.026  0.00  0.00    +0.000 NA
ATOM     16  C   UNL     1      -3.669  12.322  19.431  0.00  0.00    +0.000 A 
BRANCH  11  18
ATOM     17  C   UNL     1      -6.382  11.039  18.197  0.00  0.00    +0.000 C 
ATOM     18  O   UNL     1      -5.334  11.929  17.832  0.00  0.00    +0.000 OA
ENDBRANCH  11  18
ENDBRANCH  10  14
ENDBRANCH   6  10
ENDBRANCH   1   7
BRANCH   4  19
ATOM     19  C   UNL     1       3.652   4.968  18.730  0.00  0.00    +0.000 C 
BRANCH  19  20
ATOM     20  C   UNL     1       4.991   4.926  19.475  0.00  0.00    +0.000 C 
BRANCH  20  21
ATOM     21  N   UNL     1       6.076   4.508  18.573  0.00  0.00    +0.000 NA
ATOM     22  H   UNL     1       5.721   3.798  17.928  0.00  0.00    +0.000 HD
BRANCH  21  23
ATOM     23  C   UNL     1       6.535   5.640  17.757  0.00  0.00    +0.000 C 
BRANCH  23  24
ATOM     24  C   UNL     1       6.640   5.235  16.324  0.00  0.00    +0.000 A 
ATOM     25  N   UNL     1       7.515   5.661  15.436  0.00  0.00    +0.000 NA
ATOM     26  C   UNL     1       7.194   5.021  14.263  0.00  0.00    +0.000 A 
ATOM     27  C   UNL     1       7.793   5.112  12.998  0.00  0.00    +0.000 A 
ATOM     28  C   UNL     1       7.258   4.358  11.946  0.00  0.00    +0.000 A 
ATOM     29  C   UNL     1       6.151   3.531  12.149  0.00  0.00    +0.000 A 
ATOM     30  C   UNL     1       5.544   3.422  13.407  0.00  0.00    +0.000 A 
ATOM     31  C   UNL     1       6.097   4.186  14.437  0.00  0.00    +0.000 A 
ATOM     32  N   UNL     1       5.766   4.335  15.759  0.00  0.00    +0.000 N 
ATOM     33  H   UNL     1       4.993   3.902  16.240  0.00  0.00    +0.000 HD
ENDBRANCH  23  24
ENDBRANCH  21  23
ENDBRANCH  20  21
ENDBRANCH  19  20
ENDBRANCH   4  19
TORSDOF 9
ENDMDL
MODEL 8
REMARK VINA RESULT:      -7.3      3.154     10.133
REMARK  Name = 
REMARK  10 active torsions:
REMARK  status: ('A' for Active; 'I' for Inactive)
REMARK    1  A    between atoms: C_1  and  O_2
REMARK    2  A    between atoms: O_2  and  C_3
REMARK    3  A    between atoms: C_6  and  C_7
REMARK    4  A    between atoms: C_7  and  N_8
REMARK    5  A    between atoms: C_9  and  C_11
REMARK    6  A    between atoms: C_14  and  C_15
REMARK    7  A    between atoms: C_15  and  C_16
REMARK    8  A    between atoms: C_16  and  N_17
REMARK    9  A    between atoms: N_17  and  C_18
REMARK   10  A    between atoms: C_18  and  C_19
REMARK                            x       y       z     vdW  Elec       q    Type
REMARK                         _______ _______ _______ _____ _____    ______ ____
ROOT
ATOM      1  C   UNL     1       4.350   4.747  19.218  0.00  0.00    +0.000 A 
ATOM      2  C   UNL     1       3.796   3.575  19.698  0.00  0.00    +0.000 A 
ATOM      3  S   UNL     1       2.327   3.896  20.510  0.00  0.00    +0.000 S 
ATOM      4  C   UNL     1       2.512   5.573  20.164  0.00  0.00    +0.000 A 
ATOM      5  N   UNL     1       3.605   5.898  19.505  0.00  0.00    +0.000 NA
ENDROOT
BRANCH   1   7
ATOM      6  N   UNL     1       5.597   5.700  17.430  0.00  0.00    +0.000 N 
ATOM      7  C   UNL     1       5.603   4.792  18.460  0.00  0.00    +0.000 C 
ATOM      8  O   UNL     1       6.567   4.083  18.732  0.00  0.00    +0.000 OA
ATOM      9  H   UNL     1       4.765   6.270  17.315  0.00  0.00    +0.000 HD
BRANCH   6  10
ATOM     10  C   UNL     1       6.733   5.895  16.553  0.00  0.00    +0.000 C 
BRANCH  10  14
ATOM     11  C   UNL     1       6.432   3.887  12.780  0.00  0.00    +0.000 A 
ATOM     12  C   UNL     1       5.424   3.711  13.720  0.00  0.00    +0.000 A 
ATOM     13  C   UNL     1       5.511   4.360  14.954  0.00  0.00    +0.000 A 
ATOM     14  C   UNL     1       6.615   5.165  15.233  0.00  0.00    +0.000 A 
ATOM     15  N   UNL     1       7.607   5.356  14.327  0.00  0.00    +0.000 NA
ATOM     16  C   UNL     1       7.485   4.723  13.132  0.00  0.00    +0.000 A 
BRANCH  11  18
ATOM     17  C   UNL     1       7.421   2.256  11.370  0.00  0.00    +0.000 C 
ATOM     18  O   UNL     1       6.494   3.321  11.540  0.00  0.00    +0.000 OA
ENDBRANCH  11  18
ENDBRANCH  10  14
ENDBRANCH   6  10
ENDBRANCH   1   7
BRANCH   4  19
ATOM     19  C   UNL     1       1.449   6.544  20.589  0.00  0.00    +0.000 C 
BRANCH  19  20
ATOM     20  C   UNL     1       1.786   7.976  20.158  0.00  0.00    +0.000 C 
BRANCH  20  21
ATOM     21  N   UNL     1       0.799   8.927  20.694  0.00  0.00    +0.000 NA
ATOM     22  H   UNL     1       1.025   9.129  21.672  0.00  0.00    +0.000 HD
BRANCH  21  23
ATOM     23  C   UNL     1       0.861  10.202  19.966  0.00  0.00    +0.000 C 
BRANCH  23  24
ATOM     24  C   UNL     1      -0.329  10.347  19.077  0.00  0.00    +0.000 A 
ATOM     25  N   UNL     1      -0.481   9.862  17.861  0.00  0.00    +0.000 NA
ATOM     26  C   UNL     1      -1.724  10.279  17.449  0.00  0.00    +0.000 A 
ATOM     27  C   UNL     1      -2.388  10.055  16.235  0.00  0.00    +0.000 A 
ATOM     28  C   UNL     1      -3.661  10.611  16.052  0.00  0.00    +0.000 A 
ATOM     29  C   UNL     1      -4.260  11.373  17.059  0.00  0.00    +0.000 A 
ATOM     30  C   UNL     1      -3.614  11.602  18.280  0.00  0.00    +0.000 A 
ATOM     31  C   UNL     1      -2.346  11.037  18.434  0.00  0.00    +0.000 A 
ATOM     32  N   UNL     1      -1.440  11.061  19.462  0.00  0.00    +0.000 N 
ATOM     33  H   UNL     1      -1.536  11.549  20.340  0.00  0.00    +0.000 HD
ENDBRANCH  23  24
ENDBRANCH  21  23
ENDBRANCH  20  21
ENDBRANCH  19  20
ENDBRANCH   4  19
TORSDOF 9
ENDMDL
MODEL 9
REMARK VINA RESULT:      -7.3      3.054      4.970
REMARK  Name = 
REMARK  10 active torsions:
REMARK  status: ('A' for Active; 'I' for Inactive)
REMARK    1  A    between atoms: C_1  and  O_2
REMARK    2  A    between atoms: O_2  and  C_3
REMARK    3  A    between atoms: C_6  and  C_7
REMARK    4  A    between atoms: C_7  and  N_8
REMARK    5  A    between atoms: C_9  and  C_11
REMARK    6  A    between atoms: C_14  and  C_15
REMARK    7  A    between atoms: C_15  and  C_16
REMARK    8  A    between atoms: C_16  and  N_17
REMARK    9  A    between atoms: N_17  and  C_18
REMARK   10  A    between atoms: C_18  and  C_19
REMARK                            x       y       z     vdW  Elec       q    Type
REMARK                         _______ _______ _______ _____ _____    ______ ____
ROOT
ATOM      1  C   UNL     1       1.548   9.194  18.735  0.00  0.00    +0.000 A 
ATOM      2  C   UNL     1       1.633   8.199  19.692  0.00  0.00    +0.000 A 
ATOM      3  S   UNL     1       2.724   6.982  19.192  0.00  0.00    +0.000 S 
ATOM      4  C   UNL     1       3.024   7.857  17.740  0.00  0.00    +0.000 A 
ATOM      5  N   UNL     1       2.346   8.980  17.604  0.00  0.00    +0.000 NA
ENDROOT
BRANCH   1   7
ATOM      6  N   UNL     1       1.213  11.316  19.758  0.00  0.00    +0.000 N 
ATOM      7  C   UNL     1       0.705  10.384  18.887  0.00  0.00    +0.000 C 
ATOM      8  O   UNL     1      -0.353  10.528  18.282  0.00  0.00    +0.000 OA
ATOM      9  H   UNL     1       2.119  11.122  20.174  0.00  0.00    +0.000 HD
BRANCH   6  10
ATOM     10  C   UNL     1       0.533  12.559  20.056  0.00  0.00    +0.000 C 
BRANCH  10  14
ATOM     11  C   UNL     1      -2.633  12.072  22.901  0.00  0.00    +0.000 A 
ATOM     12  C   UNL     1      -2.900  12.714  21.699  0.00  0.00    +0.000 A 
ATOM     13  C   UNL     1      -1.876  12.880  20.763  0.00  0.00    +0.000 A 
ATOM     14  C   UNL     1      -0.595  12.411  21.053  0.00  0.00    +0.000 A 
ATOM     15  N   UNL     1      -0.315  11.775  22.219  0.00  0.00    +0.000 NA
ATOM     16  C   UNL     1      -1.335  11.618  23.100  0.00  0.00    +0.000 A 
BRANCH  11  18
ATOM     17  C   UNL     1      -4.126  12.983  24.504  0.00  0.00    +0.000 C 
ATOM     18  O   UNL     1      -3.520  11.840  23.912  0.00  0.00    +0.000 OA
ENDBRANCH  11  18
ENDBRANCH  10  14
ENDBRANCH   6  10
ENDBRANCH   1   7
BRANCH   4  19
ATOM     19  C   UNL     1       4.023   7.337  16.748  0.00  0.00    +0.000 C 
BRANCH  19  20
ATOM     20  C   UNL     1       5.180   6.607  17.440  0.00  0.00    +0.000 C 
BRANCH  20  21
ATOM     21  N   UNL     1       5.723   5.552  16.571  0.00  0.00    +0.000 NA
ATOM     22  H   UNL     1       6.602   5.876  16.159  0.00  0.00    +0.000 HD
BRANCH  21  23
ATOM     23  C   UNL     1       6.033   4.346  17.352  0.00  0.00    +0.000 C 
BRANCH  23  24
ATOM     24  C   UNL     1       4.839   3.921  18.141  0.00  0.00    +0.000 A 
ATOM     25  N   UNL     1       4.790   3.640  19.427  0.00  0.00    +0.000 NA
ATOM     26  C   UNL     1       3.489   3.279  19.679  0.00  0.00    +0.000 A 
ATOM     27  C   UNL     1       2.885   2.876  20.878  0.00  0.00    +0.000 A 
ATOM     28  C   UNL     1       1.526   2.539  20.867  0.00  0.00    +0.000 A 
ATOM     29  C   UNL     1       0.782   2.604  19.685  0.00  0.00    +0.000 A 
ATOM     30  C   UNL     1       1.367   3.010  18.479  0.00  0.00    +0.000 A 
ATOM     31  C   UNL     1       2.723   3.339  18.519  0.00  0.00    +0.000 A 
ATOM     32  N   UNL     1       3.605   3.755  17.556  0.00  0.00    +0.000 N 
ATOM     33  H   UNL     1       3.410   3.882  16.574  0.00  0.00    +0.000 HD
ENDBRANCH  23  24
ENDBRANCH  21  23
ENDBRANCH  20  21
ENDBRANCH  19  20
ENDBRANCH   4  19
TORSDOF 9
ENDMDL
