MODEL 1
REMARK VINA RESULT:      -6.5      0.000      0.000
REMARK  Name = 
REMARK  6 active torsions:
REMARK  status: ('A' for Active; 'I' for Inactive)
REMARK    1  A    between atoms: C_1  and  C_2
REMARK    2  A    between atoms: C_2  and  C_24
REMARK    3  A    between atoms: N_3  and  N_4
REMARK    4  A    between atoms: C_7  and  C_8
REMARK    5  A    between atoms: C_9  and  C_10
REMARK    6  A    between atoms: N_17  and  C_18
REMARK                            x       y       z     vdW  Elec       q    Type
REMARK                         _______ _______ _______ _____ _____    ______ ____
ROOT
ATOM      1  N   UNL     1       1.645   9.492  20.535  0.00  0.00    +0.000 NA
ATOM      2  C   UNL     1       0.804  10.266  21.159  0.00  0.00    +0.000 A 
ATOM      3  S   UNL     1      -0.407   9.654  22.343  0.00  0.00    +0.000 S 
ATOM      4  C   UNL     1      -1.077  11.255  22.569  0.00  0.00    +0.000 A 
ATOM      5  C   UNL     1      -2.282  11.467  23.427  0.00  0.00    +0.000 C 
ATOM      6  C   UNL     1      -0.410  12.172  21.835  0.00  0.00    +0.000 A 
ATOM      7  N   UNL     1       0.655  11.667  21.053  0.00  0.00    +0.000 N 
ENDROOT
BRANCH   6   8
ATOM      8  C   UNL     1      -0.862  13.569  21.794  0.00  0.00    +0.000 A 
ATOM      9  C   UNL     1      -1.773  13.992  20.811  0.00  0.00    +0.000 A 
ATOM     10  C   UNL     1      -2.276  15.295  20.828  0.00  0.00    +0.000 A 
ATOM     11  C   UNL     1      -1.829  16.194  21.794  0.00  0.00    +0.000 A 
ATOM     12 BR   UNL     1      -2.524  17.952  21.828  0.00  0.00    +0.000 Br
ATOM     13  C   UNL     1      -0.882  15.805  22.740  0.00  0.00    +0.000 A 
ATOM     14  C   UNL     1      -0.404  14.493  22.744  0.00  0.00    +0.000 A 
ENDBRANCH   6   8
BRANCH   7  15
ATOM     15  C   UNL     1       1.454  12.450  20.151  0.00  0.00    +0.000 A 
ATOM     16  C   UNL     1       1.324  12.356  18.755  0.00  0.00    +0.000 A 
ATOM     17  C   UNL     1       2.170  13.045  17.879  0.00  0.00    +0.000 A 
ATOM     18  C   UNL     1       3.125  13.918  18.380  0.00  0.00    +0.000 A 
ATOM     19  C   UNL     1       3.233  14.092  19.755  0.00  0.00    +0.000 A 
ATOM     20  C   UNL     1       2.423  13.350  20.622  0.00  0.00    +0.000 A 
ENDBRANCH   7  15
BRANCH   1  23
ATOM     21  C   UNL     1       2.608   7.910  18.520  0.00  0.00    +0.000 C 
ATOM     22  C   UNL     1       2.080   7.380  19.839  0.00  0.00    +0.000 C 
ATOM     23  N   UNL     1       1.584   8.123  20.794  0.00  0.00    +0.000 NA
BRANCH  22  24
ATOM     24  C   UNL     1       2.159   5.892  20.000  0.00  0.00    +0.000 A 
ATOM     25  C   UNL     1       1.092   5.173  20.530  0.00  0.00    +0.000 A 
ATOM     26  C   UNL     1       1.239   3.791  20.676  0.00  0.00    +0.000 A 
ATOM     27  C   UNL     1       2.429   3.180  20.286  0.00  0.00    +0.000 A 
ATOM     28  C   UNL     1       3.435   3.975  19.760  0.00  0.00    +0.000 A 
ATOM     29  N   UNL     1       3.322   5.311  19.607  0.00  0.00    +0.000 NA
ENDBRANCH  22  24
ENDBRANCH   1  23
TORSDOF 4
ENDMDL
MODEL 2
REMARK VINA RESULT:      -6.5      2.105      3.827
REMARK  Name = 
REMARK  6 active torsions:
REMARK  status: ('A' for Active; 'I' for Inactive)
REMARK    1  A    between atoms: C_1  and  C_2
REMARK    2  A    between atoms: C_2  and  C_24
REMARK    3  A    between atoms: N_3  and  N_4
REMARK    4  A    between atoms: C_7  and  C_8
REMARK    5  A    between atoms: C_9  and  C_10
REMARK    6  A    between atoms: N_17  and  C_18
REMARK                            x       y       z     vdW  Elec       q    Type
REMARK                         _______ _______ _______ _____ _____    ______ ____
ROOT
ATOM      1  N   UNL     1       0.830   9.944  19.238  0.00  0.00    +0.000 NA
ATOM      2  C   UNL     1       1.122  11.211  19.159  0.00  0.00    +0.000 A 
ATOM      3  S   UNL     1       2.394  11.863  18.064  0.00  0.00    +0.000 S 
ATOM      4  C   UNL     1       2.149  13.491  18.659  0.00  0.00    +0.000 A 
ATOM      5  C   UNL     1       3.021  14.614  18.200  0.00  0.00    +0.000 C 
ATOM      6  C   UNL     1       1.162  13.531  19.579  0.00  0.00    +0.000 A 
ATOM      7  N   UNL     1       0.552  12.288  19.872  0.00  0.00    +0.000 N 
ENDROOT
BRANCH   6   8
ATOM      8  C   UNL     1       0.850  14.780  20.288  0.00  0.00    +0.000 A 
ATOM      9  C   UNL     1      -0.053  15.704  19.735  0.00  0.00    +0.000 A 
ATOM     10  C   UNL     1      -0.423  16.845  20.450  0.00  0.00    +0.000 A 
ATOM     11  C   UNL     1       0.151  17.094  21.696  0.00  0.00    +0.000 A 
ATOM     12 BR   UNL     1      -0.363  18.630  22.672  0.00  0.00    +0.000 Br
ATOM     13  C   UNL     1       1.092  16.215  22.231  0.00  0.00    +0.000 A 
ATOM     14  C   UNL     1       1.436  15.057  21.531  0.00  0.00    +0.000 A 
ENDBRANCH   6   8
BRANCH   7  15
ATOM     15  C   UNL     1      -0.470  12.089  20.863  0.00  0.00    +0.000 A 
ATOM     16  C   UNL     1      -1.777  12.580  20.705  0.00  0.00    +0.000 A 
ATOM     17  C   UNL     1      -2.741  12.470  21.713  0.00  0.00    +0.000 A 
ATOM     18  C   UNL     1      -2.446  11.788  22.884  0.00  0.00    +0.000 A 
ATOM     19  C   UNL     1      -1.186  11.224  23.044  0.00  0.00    +0.000 A 
ATOM     20  C   UNL     1      -0.210  11.395  22.055  0.00  0.00    +0.000 A 
ENDBRANCH   7  15
BRANCH   1  23
ATOM     21  C   UNL     1       1.806   7.757  20.562  0.00  0.00    +0.000 C 
ATOM     22  C   UNL     1       1.985   8.001  19.077  0.00  0.00    +0.000 C 
ATOM     23  N   UNL     1       1.555   9.059  18.439  0.00  0.00    +0.000 NA
BRANCH  22  24
ATOM     24  C   UNL     1       2.715   6.918  18.340  0.00  0.00    +0.000 A 
ATOM     25  C   UNL     1       2.253   5.605  18.357  0.00  0.00    +0.000 A 
ATOM     26  C   UNL     1       2.993   4.640  17.669  0.00  0.00    +0.000 A 
ATOM     27  C   UNL     1       4.150   5.014  16.991  0.00  0.00    +0.000 A 
ATOM     28  C   UNL     1       4.530   6.347  17.021  0.00  0.00    +0.000 A 
ATOM     29  N   UNL     1       3.836   7.301  17.677  0.00  0.00    +0.000 NA
ENDBRANCH  22  24
ENDBRANCH   1  23
TORSDOF 4
ENDMDL
MODEL 3
REMARK VINA RESULT:      -6.4      0.655      1.247
REMARK  Name = 
REMARK  6 active torsions:
REMARK  status: ('A' for Active; 'I' for Inactive)
REMARK    1  A    between atoms: C_1  and  C_2
REMARK    2  A    between atoms: C_2  and  C_24
REMARK    3  A    between atoms: N_3  and  N_4
REMARK    4  A    between atoms: C_7  and  C_8
REMARK    5  A    between atoms: C_9  and  C_10
REMARK    6  A    between atoms: N_17  and  C_18
REMARK                            x       y       z     vdW  Elec       q    Type
REMARK                         _______ _______ _______ _____ _____    ______ ____
ROOT
ATOM      1  N   UNL     1       1.612   9.687  20.337  0.00  0.00    +0.000 NA
ATOM      2  C   UNL     1       0.790  10.442  21.008  0.00  0.00    +0.000 A 
ATOM      3  S   UNL     1      -0.430   9.790  22.161  0.00  0.00    +0.000 S 
ATOM      4  C   UNL     1      -1.064  11.390  22.479  0.00  0.00    +0.000 A 
ATOM      5  C   UNL     1      -2.261  11.579  23.354  0.00  0.00    +0.000 C 
ATOM      6  C   UNL     1      -0.380  12.332  21.796  0.00  0.00    +0.000 A 
ATOM      7  N   UNL     1       0.671  11.849  20.981  0.00  0.00    +0.000 N 
ENDROOT
BRANCH   6   8
ATOM      8  C   UNL     1      -0.803  13.739  21.834  0.00  0.00    +0.000 A 
ATOM      9  C   UNL     1      -0.312  14.601  22.829  0.00  0.00    +0.000 A 
ATOM     10  C   UNL     1      -0.637  15.959  22.811  0.00  0.00    +0.000 A 
ATOM     11  C   UNL     1      -1.498  16.448  21.830  0.00  0.00    +0.000 A 
ATOM     12 BR   UNL     1      -1.924  18.291  21.794  0.00  0.00    +0.000 Br
ATOM     13  C   UNL     1      -2.038  15.594  20.870  0.00  0.00    +0.000 A 
ATOM     14  C   UNL     1      -1.686  14.242  20.869  0.00  0.00    +0.000 A 
ENDBRANCH   6   8
BRANCH   7  15
ATOM     15  C   UNL     1       1.484  12.665  20.121  0.00  0.00    +0.000 A 
ATOM     16  C   UNL     1       1.288  12.719  18.730  0.00  0.00    +0.000 A 
ATOM     17  C   UNL     1       2.142  13.436  17.885  0.00  0.00    +0.000 A 
ATOM     18  C   UNL     1       3.176  14.190  18.420  0.00  0.00    +0.000 A 
ATOM     19  C   UNL     1       3.354  14.219  19.798  0.00  0.00    +0.000 A 
ATOM     20  C   UNL     1       2.532  13.448  20.628  0.00  0.00    +0.000 A 
ENDBRANCH   7  15
BRANCH   1  23
ATOM     21  C   UNL     1       2.549   8.200  18.239  0.00  0.00    +0.000 C 
ATOM     22  C   UNL     1       2.006   7.609  19.525  0.00  0.00    +0.000 C 
ATOM     23  N   UNL     1       1.523   8.306  20.520  0.00  0.00    +0.000 NA
BRANCH  22  24
ATOM     24  C   UNL     1       2.054   6.112  19.603  0.00  0.00    +0.000 A 
ATOM     25  C   UNL     1       2.302   5.344  18.470  0.00  0.00    +0.000 A 
ATOM     26  C   UNL     1       2.309   3.954  18.608  0.00  0.00    +0.000 A 
ATOM     27  C   UNL     1       2.078   3.384  19.857  0.00  0.00    +0.000 A 
ATOM     28  C   UNL     1       1.848   4.228  20.933  0.00  0.00    +0.000 A 
ATOM     29  N   UNL     1       1.835   5.573  20.830  0.00  0.00    +0.000 NA
ENDBRANCH  22  24
ENDBRANCH   1  23
TORSDOF 4
ENDMDL
MODEL 4
REMARK VINA RESULT:      -6.4      0.488      1.353
REMARK  Name = 
REMARK  6 active torsions:
REMARK  status: ('A' for Active; 'I' for Inactive)
REMARK    1  A    between atoms: C_1  and  C_2
REMARK    2  A    between atoms: C_2  and  C_24
REMARK    3  A    between atoms: N_3  and  N_4
REMARK    4  A    between atoms: C_7  and  C_8
REMARK    5  A    between atoms: C_9  and  C_10
REMARK    6  A    between atoms: N_17  and  C_18
REMARK                            x       y       z     vdW  Elec       q    Type
REMARK                         _______ _______ _______ _____ _____    ______ ____
ROOT
ATOM      1  N   UNL     1       1.663   9.650  20.396  0.00  0.00    +0.000 NA
ATOM      2  C   UNL     1       0.830  10.417  21.039  0.00  0.00    +0.000 A 
ATOM      3  S   UNL     1      -0.412   9.786  22.180  0.00  0.00    +0.000 S 
ATOM      4  C   UNL     1      -1.050  11.391  22.461  0.00  0.00    +0.000 A 
ATOM      5  C   UNL     1      -2.262  11.597  23.310  0.00  0.00    +0.000 C 
ATOM      6  C   UNL     1      -0.352  12.322  21.774  0.00  0.00    +0.000 A 
ATOM      7  N   UNL     1       0.713  11.824  20.987  0.00  0.00    +0.000 N 
ENDROOT
BRANCH   6   8
ATOM      8  C   UNL     1      -0.773  13.729  21.782  0.00  0.00    +0.000 A 
ATOM      9  C   UNL     1      -0.276  14.614  22.752  0.00  0.00    +0.000 A 
ATOM     10  C   UNL     1      -0.600  15.972  22.703  0.00  0.00    +0.000 A 
ATOM     11  C   UNL     1      -1.467  16.438  21.717  0.00  0.00    +0.000 A 
ATOM     12 BR   UNL     1      -1.892  18.279  21.639  0.00  0.00    +0.000 Br
ATOM     13  C   UNL     1      -2.014  15.561  20.782  0.00  0.00    +0.000 A 
ATOM     14  C   UNL     1      -1.663  14.209  20.811  0.00  0.00    +0.000 A 
ENDBRANCH   6   8
BRANCH   7  15
ATOM     15  C   UNL     1       1.542  12.624  20.128  0.00  0.00    +0.000 A 
ATOM     16  C   UNL     1       2.579  13.433  20.623  0.00  0.00    +0.000 A 
ATOM     17  C   UNL     1       3.320  14.285  19.797  0.00  0.00    +0.000 A 
ATOM     18  C   UNL     1       3.095  14.291  18.428  0.00  0.00    +0.000 A 
ATOM     19  C   UNL     1       2.127  13.450  17.893  0.00  0.00    +0.000 A 
ATOM     20  C   UNL     1       1.351  12.648  18.737  0.00  0.00    +0.000 A 
ENDBRANCH   7  15
BRANCH   1  23
ATOM     21  C   UNL     1       2.520   8.128  18.289  0.00  0.00    +0.000 C 
ATOM     22  C   UNL     1       2.014   7.558  19.599  0.00  0.00    +0.000 C 
ATOM     23  N   UNL     1       1.568   8.273  20.600  0.00  0.00    +0.000 NA
BRANCH  22  24
ATOM     24  C   UNL     1       2.052   6.062  19.696  0.00  0.00    +0.000 A 
ATOM     25  C   UNL     1       1.628   5.409  20.849  0.00  0.00    +0.000 A 
ATOM     26  C   UNL     1       1.712   4.015  20.883  0.00  0.00    +0.000 A 
ATOM     27  C   UNL     1       2.204   3.328  19.776  0.00  0.00    +0.000 A 
ATOM     28  C   UNL     1       2.596   4.061  18.666  0.00  0.00    +0.000 A 
ATOM     29  N   UNL     1       2.526   5.407  18.605  0.00  0.00    +0.000 NA
ENDBRANCH  22  24
ENDBRANCH   1  23
TORSDOF 4
ENDMDL
MODEL 5
REMARK VINA RESULT:      -6.1      2.039      3.922
REMARK  Name = 
REMARK  6 active torsions:
REMARK  status: ('A' for Active; 'I' for Inactive)
REMARK    1  A    between atoms: C_1  and  C_2
REMARK    2  A    between atoms: C_2  and  C_24
REMARK    3  A    between atoms: N_3  and  N_4
REMARK    4  A    between atoms: C_7  and  C_8
REMARK    5  A    between atoms: C_9  and  C_10
REMARK    6  A    between atoms: N_17  and  C_18
REMARK                            x       y       z     vdW  Elec       q    Type
REMARK                         _______ _______ _______ _____ _____    ______ ____
ROOT
ATOM      1  N   UNL     1       0.948   9.891  19.353  0.00  0.00    +0.000 NA
ATOM      2  C   UNL     1       1.191  11.165  19.224  0.00  0.00    +0.000 A 
ATOM      3  S   UNL     1       2.384  11.828  18.050  0.00  0.00    +0.000 S 
ATOM      4  C   UNL     1       2.108  13.463  18.611  0.00  0.00    +0.000 A 
ATOM      5  C   UNL     1       2.917  14.602  18.078  0.00  0.00    +0.000 C 
ATOM      6  C   UNL     1       1.166  13.497  19.577  0.00  0.00    +0.000 A 
ATOM      7  N   UNL     1       0.616  12.243  19.934  0.00  0.00    +0.000 N 
ENDROOT
BRANCH   6   8
ATOM      8  C   UNL     1       0.844  14.755  20.264  0.00  0.00    +0.000 A 
ATOM      9  C   UNL     1      -0.095  15.644  19.716  0.00  0.00    +0.000 A 
ATOM     10  C   UNL     1      -0.473  16.793  20.414  0.00  0.00    +0.000 A 
ATOM     11  C   UNL     1       0.128  17.084  21.637  0.00  0.00    +0.000 A 
ATOM     12 BR   UNL     1      -0.396  18.630  22.592  0.00  0.00    +0.000 Br
ATOM     13  C   UNL     1       1.103  16.241  22.167  0.00  0.00    +0.000 A 
ATOM     14  C   UNL     1       1.456  15.075  21.484  0.00  0.00    +0.000 A 
ENDBRANCH   6   8
BRANCH   7  15
ATOM     15  C   UNL     1      -0.349  12.037  20.979  0.00  0.00    +0.000 A 
ATOM     16  C   UNL     1      -0.083  11.234  22.101  0.00  0.00    +0.000 A 
ATOM     17  C   UNL     1      -1.058  10.957  23.066  0.00  0.00    +0.000 A 
ATOM     18  C   UNL     1      -2.311  11.545  22.976  0.00  0.00    +0.000 A 
ATOM     19  C   UNL     1      -2.585  12.404  21.919  0.00  0.00    +0.000 A 
ATOM     20  C   UNL     1      -1.623  12.624  20.926  0.00  0.00    +0.000 A 
ENDBRANCH   7  15
BRANCH   1  23
ATOM     21  C   UNL     1       1.806   7.626  20.626  0.00  0.00    +0.000 C 
ATOM     22  C   UNL     1       2.039   7.915  19.156  0.00  0.00    +0.000 C 
ATOM     23  N   UNL     1       1.666   9.009  18.544  0.00  0.00    +0.000 NA
BRANCH  22  24
ATOM     24  C   UNL     1       2.752   6.832  18.403  0.00  0.00    +0.000 A 
ATOM     25  C   UNL     1       3.866   7.120  17.621  0.00  0.00    +0.000 A 
ATOM     26  C   UNL     1       4.469   6.068  16.926  0.00  0.00    +0.000 A 
ATOM     27  C   UNL     1       3.951   4.781  17.039  0.00  0.00    +0.000 A 
ATOM     28  C   UNL     1       2.842   4.586  17.849  0.00  0.00    +0.000 A 
ATOM     29  N   UNL     1       2.239   5.581  18.531  0.00  0.00    +0.000 NA
ENDBRANCH  22  24
ENDBRANCH   1  23
TORSDOF 4
ENDMDL
MODEL 6
REMARK VINA RESULT:      -6.0      3.773      7.114
REMARK  Name = 
REMARK  6 active torsions:
REMARK  status: ('A' for Active; 'I' for Inactive)
REMARK    1  A    between atoms: C_1  and  C_2
REMARK    2  A    between atoms: C_2  and  C_24
REMARK    3  A    between atoms: N_3  and  N_4
REMARK    4  A    between atoms: C_7  and  C_8
REMARK    5  A    between atoms: C_9  and  C_10
REMARK    6  A    between atoms: N_17  and  C_18
REMARK                            x       y       z     vdW  Elec       q    Type
REMARK                         _______ _______ _______ _____ _____    ______ ____
ROOT
ATOM      1  N   UNL     1       2.097  13.300  21.247  0.00  0.00    +0.000 NA
ATOM      2  C   UNL     1       0.935  13.823  21.517  0.00  0.00    +0.000 A 
ATOM      3  S   UNL     1       0.667  15.595  21.690  0.00  0.00    +0.000 S 
ATOM      4  C   UNL     1      -1.018  15.356  22.098  0.00  0.00    +0.000 A 
ATOM      5  C   UNL     1      -1.883  16.510  22.489  0.00  0.00    +0.000 C 
ATOM      6  C   UNL     1      -1.348  14.047  22.067  0.00  0.00    +0.000 A 
ATOM      7  N   UNL     1      -0.296  13.163  21.729  0.00  0.00    +0.000 N 
ENDROOT
BRANCH   6   8
ATOM      8  C   UNL     1      -2.689  13.603  22.473  0.00  0.00    +0.000 A 
ATOM      9  C   UNL     1      -2.999  13.430  23.831  0.00  0.00    +0.000 A 
ATOM     10  C   UNL     1      -4.298  13.100  24.224  0.00  0.00    +0.000 A 
ATOM     11  C   UNL     1      -5.278  12.889  23.255  0.00  0.00    +0.000 A 
ATOM     12 BR   UNL     1      -7.042  12.462  23.786  0.00  0.00    +0.000 Br
ATOM     13  C   UNL     1      -4.970  13.002  21.900  0.00  0.00    +0.000 A 
ATOM     14  C   UNL     1      -3.679  13.364  21.509  0.00  0.00    +0.000 A 
ENDBRANCH   6   8
BRANCH   7  15
ATOM     15  C   UNL     1      -0.405  11.730  21.700  0.00  0.00    +0.000 A 
ATOM     16  C   UNL     1      -0.571  10.964  22.867  0.00  0.00    +0.000 A 
ATOM     17  C   UNL     1      -0.579   9.565  22.845  0.00  0.00    +0.000 A 
ATOM     18  C   UNL     1      -0.500   8.890  21.636  0.00  0.00    +0.000 A 
ATOM     19  C   UNL     1      -0.409   9.617  20.456  0.00  0.00    +0.000 A 
ATOM     20  C   UNL     1      -0.340  11.014  20.495  0.00  0.00    +0.000 A 
ENDBRANCH   7  15
BRANCH   1  23
ATOM     21  C   UNL     1       2.915  13.668  18.662  0.00  0.00    +0.000 C 
ATOM     22  C   UNL     1       3.538  14.361  19.857  0.00  0.00    +0.000 C 
ATOM     23  N   UNL     1       3.181  14.167  21.100  0.00  0.00    +0.000 NA
BRANCH  22  24
ATOM     24  C   UNL     1       4.638  15.326  19.528  0.00  0.00    +0.000 A 
ATOM     25  C   UNL     1       4.641  16.613  20.057  0.00  0.00    +0.000 A 
ATOM     26  C   UNL     1       5.683  17.470  19.691  0.00  0.00    +0.000 A 
ATOM     27  C   UNL     1       6.676  17.017  18.827  0.00  0.00    +0.000 A 
ATOM     28  C   UNL     1       6.596  15.715  18.356  0.00  0.00    +0.000 A 
ATOM     29  N   UNL     1       5.603  14.866  18.692  0.00  0.00    +0.000 NA
ENDBRANCH  22  24
ENDBRANCH   1  23
TORSDOF 4
ENDMDL
MODEL 7
REMARK VINA RESULT:      -5.9      3.968      7.981
REMARK  Name = 
REMARK  6 active torsions:
REMARK  status: ('A' for Active; 'I' for Inactive)
REMARK    1  A    between atoms: C_1  and  C_2
REMARK    2  A    between atoms: C_2  and  C_24
REMARK    3  A    between atoms: N_3  and  N_4
REMARK    4  A    between atoms: C_7  and  C_8
REMARK    5  A    between atoms: C_9  and  C_10
REMARK    6  A    between atoms: N_17  and  C_18
REMARK                            x       y       z     vdW  Elec       q    Type
REMARK                         _______ _______ _______ _____ _____    ______ ____
ROOT
ATOM      1  N   UNL     1      -2.697  12.674  20.943  0.00  0.00    +0.000 NA
ATOM      2  C   UNL     1      -1.742  13.544  20.773  0.00  0.00    +0.000 A 
ATOM      3  S   UNL     1      -1.978  15.318  20.966  0.00  0.00    +0.000 S 
ATOM      4  C   UNL     1      -0.324  15.645  20.498  0.00  0.00    +0.000 A 
ATOM      5  C   UNL     1       0.166  17.048  20.344  0.00  0.00    +0.000 C 
ATOM      6  C   UNL     1       0.351  14.501  20.255  0.00  0.00    +0.000 A 
ATOM      7  N   UNL     1      -0.395  13.309  20.415  0.00  0.00    +0.000 N 
ENDROOT
BRANCH   6   8
ATOM      8  C   UNL     1       1.731  14.538  19.751  0.00  0.00    +0.000 A 
ATOM      9  C   UNL     1       1.981  14.645  18.373  0.00  0.00    +0.000 A 
ATOM     10  C   UNL     1       3.289  14.776  17.900  0.00  0.00    +0.000 A 
ATOM     11  C   UNL     1       4.353  14.746  18.800  0.00  0.00    +0.000 A 
ATOM     12 BR   UNL     1       6.123  14.943  18.163  0.00  0.00    +0.000 Br
ATOM     13  C   UNL     1       4.123  14.583  20.165  0.00  0.00    +0.000 A 
ATOM     14  C   UNL     1       2.813  14.485  20.641  0.00  0.00    +0.000 A 
ENDBRANCH   6   8
BRANCH   7  15
ATOM     15  C   UNL     1       0.101  11.987  20.146  0.00  0.00    +0.000 A 
ATOM     16  C   UNL     1       0.157  11.455  18.847  0.00  0.00    +0.000 A 
ATOM     17  C   UNL     1       0.548  10.134  18.600  0.00  0.00    +0.000 A 
ATOM     18  C   UNL     1       0.974   9.329  19.647  0.00  0.00    +0.000 A 
ATOM     19  C   UNL     1       1.001   9.847  20.936  0.00  0.00    +0.000 A 
ATOM     20  C   UNL     1       0.549  11.149  21.179  0.00  0.00    +0.000 A 
ENDBRANCH   7  15
BRANCH   1  23
ATOM     21  C   UNL     1      -3.384  12.331  23.569  0.00  0.00    +0.000 C 
ATOM     22  C   UNL     1      -4.264  13.018  22.542  0.00  0.00    +0.000 C 
ATOM     23  N   UNL     1      -3.962  13.156  21.277  0.00  0.00    +0.000 NA
BRANCH  22  24
ATOM     24  C   UNL     1      -5.558  13.557  23.075  0.00  0.00    +0.000 A 
ATOM     25  C   UNL     1      -6.391  12.768  23.862  0.00  0.00    +0.000 A 
ATOM     26  C   UNL     1      -7.593  13.323  24.306  0.00  0.00    +0.000 A 
ATOM     27  C   UNL     1      -7.917  14.633  23.960  0.00  0.00    +0.000 A 
ATOM     28  C   UNL     1      -7.021  15.347  23.179  0.00  0.00    +0.000 A 
ATOM     29  N   UNL     1      -5.854  14.838  22.736  0.00  0.00    +0.000 NA
ENDBRANCH  22  24
ENDBRANCH   1  23
TORSDOF 4
ENDMDL
MODEL 8
REMARK VINA RESULT:      -5.9      3.927      7.433
REMARK  Name = 
REMARK  6 active torsions:
REMARK  status: ('A' for Active; 'I' for Inactive)
REMARK    1  A    between atoms: C_1  and  C_2
REMARK    2  A    between atoms: C_2  and  C_24
REMARK    3  A    between atoms: N_3  and  N_4
REMARK    4  A    between atoms: C_7  and  C_8
REMARK    5  A    between atoms: C_9  and  C_10
REMARK    6  A    between atoms: N_17  and  C_18
REMARK                            x       y       z     vdW  Elec       q    Type
REMARK                         _______ _______ _______ _____ _____    ______ ____
ROOT
ATOM      1  N   UNL     1       1.708  13.564  21.523  0.00  0.00    +0.000 NA
ATOM      2  C   UNL     1       0.478  13.932  21.307  0.00  0.00    +0.000 A 
ATOM      3  S   UNL     1      -0.001  15.640  20.993  0.00  0.00    +0.000 S 
ATOM      4  C   UNL     1      -1.695  15.208  20.916  0.00  0.00    +0.000 A 
ATOM      5  C   UNL     1      -2.747  16.259  20.762  0.00  0.00    +0.000 C 
ATOM      6  C   UNL     1      -1.869  13.879  21.078  0.00  0.00    +0.000 A 
ATOM      7  N   UNL     1      -0.685  13.131  21.279  0.00  0.00    +0.000 N 
ENDROOT
BRANCH   6   8
ATOM      8  C   UNL     1      -3.220  13.305  21.149  0.00  0.00    +0.000 A 
ATOM      9  C   UNL     1      -3.920  13.284  22.366  0.00  0.00    +0.000 A 
ATOM     10  C   UNL     1      -5.239  12.825  22.415  0.00  0.00    +0.000 A 
ATOM     11  C   UNL     1      -5.841  12.336  21.258  0.00  0.00    +0.000 A 
ATOM     12 BR   UNL     1      -7.633  11.733  21.320  0.00  0.00    +0.000 Br
ATOM     13  C   UNL     1      -5.139  12.298  20.054  0.00  0.00    +0.000 A 
ATOM     14  C   UNL     1      -3.832  12.787  19.999  0.00  0.00    +0.000 A 
ENDBRANCH   6   8
BRANCH   7  15
ATOM     15  C   UNL     1      -0.641  11.718  21.537  0.00  0.00    +0.000 A 
ATOM     16  C   UNL     1      -0.806  11.183  22.826  0.00  0.00    +0.000 A 
ATOM     17  C   UNL     1      -0.665   9.816  23.090  0.00  0.00    +0.000 A 
ATOM     18  C   UNL     1      -0.433   8.929  22.048  0.00  0.00    +0.000 A 
ATOM     19  C   UNL     1      -0.338   9.415  20.750  0.00  0.00    +0.000 A 
ATOM     20  C   UNL     1      -0.419  10.791  20.507  0.00  0.00    +0.000 A 
ENDBRANCH   7  15
BRANCH   1  23
ATOM     21  C   UNL     1       3.108  13.770  19.181  0.00  0.00    +0.000 C 
ATOM     22  C   UNL     1       3.329  14.665  20.384  0.00  0.00    +0.000 C 
ATOM     23  N   UNL     1       2.692  14.554  21.521  0.00  0.00    +0.000 NA
BRANCH  22  24
ATOM     24  C   UNL     1       4.363  15.735  20.198  0.00  0.00    +0.000 A 
ATOM     25  C   UNL     1       5.190  15.743  19.079  0.00  0.00    +0.000 A 
ATOM     26  C   UNL     1       6.148  16.755  18.978  0.00  0.00    +0.000 A 
ATOM     27  C   UNL     1       6.243  17.716  19.981  0.00  0.00    +0.000 A 
ATOM     28  C   UNL     1       5.371  17.634  21.056  0.00  0.00    +0.000 A 
ATOM     29  N   UNL     1       4.436  16.669  21.180  0.00  0.00    +0.000 NA
ENDBRANCH  22  24
ENDBRANCH   1  23
TORSDOF 4
ENDMDL
MODEL 9
REMARK VINA RESULT:      -5.9      4.110      7.069
REMARK  Name = 
REMARK  6 active torsions:
REMARK  status: ('A' for Active; 'I' for Inactive)
REMARK    1  A    between atoms: C_1  and  C_2
REMARK    2  A    between atoms: C_2  and  C_24
REMARK    3  A    between atoms: N_3  and  N_4
REMARK    4  A    between atoms: C_7  and  C_8
REMARK    5  A    between atoms: C_9  and  C_10
REMARK    6  A    between atoms: N_17  and  C_18
REMARK                            x       y       z     vdW  Elec       q    Type
REMARK                         _______ _______ _______ _____ _____    ______ ____
ROOT
ATOM      1  N   UNL     1       2.293  13.590  19.904  0.00  0.00    +0.000 NA
ATOM      2  C   UNL     1       1.361  14.016  20.709  0.00  0.00    +0.000 A 
ATOM      3  S   UNL     1       1.623  15.330  21.912  0.00  0.00    +0.000 S 
ATOM      4  C   UNL     1      -0.006  15.164  22.529  0.00  0.00    +0.000 A 
ATOM      5  C   UNL     1      -0.463  15.960  23.709  0.00  0.00    +0.000 C 
ATOM      6  C   UNL     1      -0.692  14.219  21.852  0.00  0.00    +0.000 A 
ATOM      7  N   UNL     1       0.026  13.570  20.819  0.00  0.00    +0.000 N 
ENDROOT
BRANCH   6   8
ATOM      8  C   UNL     1      -2.050  13.841  22.264  0.00  0.00    +0.000 A 
ATOM      9  C   UNL     1      -2.247  12.838  23.228  0.00  0.00    +0.000 A 
ATOM     10  C   UNL     1      -3.532  12.544  23.690  0.00  0.00    +0.000 A 
ATOM     11  C   UNL     1      -4.628  13.213  23.149  0.00  0.00    +0.000 A 
ATOM     12 BR   UNL     1      -6.367  12.828  23.788  0.00  0.00    +0.000 Br
ATOM     13  C   UNL     1      -4.454  14.170  22.151  0.00  0.00    +0.000 A 
ATOM     14  C   UNL     1      -3.166  14.487  21.713  0.00  0.00    +0.000 A 
ENDBRANCH   6   8
BRANCH   7  15
ATOM     15  C   UNL     1      -0.485  12.492  20.017  0.00  0.00    +0.000 A 
ATOM     16  C   UNL     1      -0.329  11.144  20.382  0.00  0.00    +0.000 A 
ATOM     17  C   UNL     1      -0.740  10.095  19.552  0.00  0.00    +0.000 A 
ATOM     18  C   UNL     1      -1.395  10.369  18.360  0.00  0.00    +0.000 A 
ATOM     19  C   UNL     1      -1.632  11.691  18.003  0.00  0.00    +0.000 A 
ATOM     20  C   UNL     1      -1.162  12.732  18.811  0.00  0.00    +0.000 A 
ENDBRANCH   7  15
BRANCH   1  23
ATOM     21  C   UNL     1       3.096  14.921  17.652  0.00  0.00    +0.000 C 
ATOM     22  C   UNL     1       3.910  14.842  18.929  0.00  0.00    +0.000 C 
ATOM     23  N   UNL     1       3.554  14.179  19.999  0.00  0.00    +0.000 NA
BRANCH  22  24
ATOM     24  C   UNL     1       5.205  15.597  18.903  0.00  0.00    +0.000 A 
ATOM     25  C   UNL     1       5.330  16.824  19.548  0.00  0.00    +0.000 A 
ATOM     26  C   UNL     1       6.558  17.486  19.465  0.00  0.00    +0.000 A 
ATOM     27  C   UNL     1       7.607  16.907  18.756  0.00  0.00    +0.000 A 
ATOM     28  C   UNL     1       7.393  15.677  18.152  0.00  0.00    +0.000 A 
ATOM     29  N   UNL     1       6.220  15.014  18.215  0.00  0.00    +0.000 NA
ENDBRANCH  22  24
ENDBRANCH   1  23
TORSDOF 4
ENDMDL
