MODEL 1
REMARK VINA RESULT:     -10.8      0.000      0.000
REMARK  Name = 
REMARK  4 active torsions:
REMARK  status: ('A' for Active; 'I' for Inactive)
REMARK    1  A    between atoms: C_1  and  O_2
REMARK    2  A    between atoms: O_2  and  C_3
REMARK    3  A    between atoms: C_6  and  C_7
REMARK    4  A    between atoms: C_20  and  C_21
REMARK                            x       y       z     vdW  Elec       q    Type
REMARK                         _______ _______ _______ _____ _____    ______ ____
ROOT
ATOM      1  C   UNL     1       2.767   6.820  18.684  0.00  0.00    +0.000 C 
ATOM      2  C   UNL     1       1.749   5.668  18.483  0.00  0.00    +0.000 C 
ATOM      3  C   UNL     1       2.454   4.340  18.349  0.00  0.00    +0.000 A 
ATOM      4  C   UNL     1       2.097   3.404  17.380  0.00  0.00    +0.000 A 
ATOM      5  C   UNL     1       2.838   2.230  17.243  0.00  0.00    +0.000 A 
ATOM      6  C   UNL     1       3.860   1.934  18.145  0.00  0.00    +0.000 A 
ATOM      7  C   UNL     1       4.220   2.858  19.125  0.00  0.00    +0.000 A 
ATOM      8  C   UNL     1       3.593   4.116  19.150  0.00  0.00    +0.000 A 
ATOM      9  C   UNL     1       4.428   5.360  19.524  0.00  0.00    +0.000 C 
ATOM     10  O   UNL     1       3.614   6.506  19.803  0.00  0.00    +0.000 OA
ATOM     11  C   UNL     1       5.237   5.647  18.295  0.00  0.00    +0.000 A 
ATOM     12  C   UNL     1       4.685   6.367  17.311  0.00  0.00    +0.000 A 
ATOM     13  C   UNL     1       5.111   6.169  15.950  0.00  0.00    +0.000 A 
ATOM     14  C   UNL     1       5.993   5.193  15.676  0.00  0.00    +0.000 A 
ATOM     15  O   UNL     1       6.677   4.520  16.722  0.00  0.00    +0.000 OA
ATOM     16  C   UNL     1       6.412   4.801  18.032  0.00  0.00    +0.000 A 
ATOM     17  O   UNL     1       7.063   4.309  18.948  0.00  0.00    +0.000 OA
ATOM     18  O   UNL     1       3.497   7.053  17.449  0.00  0.00    +0.000 OA
ENDROOT
BRANCH   1  22
ATOM     19  C   UNL     1       0.345  10.374  19.519  0.00  0.00    +0.000 A 
ATOM     20  C   UNL     1       0.656   9.474  20.545  0.00  0.00    +0.000 A 
ATOM     21  C   UNL     1       1.460   8.354  20.283  0.00  0.00    +0.000 A 
ATOM     22  C   UNL     1       1.959   8.095  18.996  0.00  0.00    +0.000 A 
ATOM     23  C   UNL     1       1.614   9.001  17.973  0.00  0.00    +0.000 A 
ATOM     24  C   UNL     1       0.819  10.128  18.232  0.00  0.00    +0.000 A 
BRANCH  19  26
ATOM     25  C   UNL     1      -1.438  11.805  18.898  0.00  0.00    +0.000 C 
ATOM     26  O   UNL     1      -0.475  11.406  19.877  0.00  0.00    +0.000 OA
ENDBRANCH  19  26
ENDBRANCH   1  22
BRANCH  14  27
ATOM     27  C   UNL     1       6.333   4.708  14.320  0.00  0.00    +0.000 A 
ATOM     28  C   UNL     1       5.490   3.793  13.668  0.00  0.00    +0.000 A 
ATOM     29  C   UNL     1       5.779   3.333  12.380  0.00  0.00    +0.000 A 
ATOM     30  C   UNL     1       6.910   3.791  11.713  0.00  0.00    +0.000 A 
ATOM     31  C   UNL     1       7.743   4.723  12.326  0.00  0.00    +0.000 A 
ATOM     32  C   UNL     1       7.452   5.184  13.617  0.00  0.00    +0.000 A 
ENDBRANCH  14  27
TORSDOF 3
ENDMDL
MODEL 2
REMARK VINA RESULT:     -10.7      0.173      1.215
REMARK  Name = 
REMARK  4 active torsions:
REMARK  status: ('A' for Active; 'I' for Inactive)
REMARK    1  A    between atoms: C_1  and  O_2
REMARK    2  A    between atoms: O_2  and  C_3
REMARK    3  A    between atoms: C_6  and  C_7
REMARK    4  A    between atoms: C_20  and  C_21
REMARK                            x       y       z     vdW  Elec       q    Type
REMARK                         _______ _______ _______ _____ _____    ______ ____
ROOT
ATOM      1  C   UNL     1       2.751   6.791  18.699  0.00  0.00    +0.000 C 
ATOM      2  C   UNL     1       1.734   5.636  18.513  0.00  0.00    +0.000 C 
ATOM      3  C   UNL     1       2.442   4.311  18.366  0.00  0.00    +0.000 A 
ATOM      4  C   UNL     1       2.073   3.375  17.401  0.00  0.00    +0.000 A 
ATOM      5  C   UNL     1       2.815   2.204  17.251  0.00  0.00    +0.000 A 
ATOM      6  C   UNL     1       3.853   1.910  18.136  0.00  0.00    +0.000 A 
ATOM      7  C   UNL     1       4.225   2.834  19.111  0.00  0.00    +0.000 A 
ATOM      8  C   UNL     1       3.594   4.090  19.148  0.00  0.00    +0.000 A 
ATOM      9  C   UNL     1       4.430   5.336  19.511  0.00  0.00    +0.000 C 
ATOM     10  O   UNL     1       3.617   6.479  19.805  0.00  0.00    +0.000 OA
ATOM     11  C   UNL     1       5.219   5.627  18.270  0.00  0.00    +0.000 A 
ATOM     12  C   UNL     1       4.649   6.347  17.296  0.00  0.00    +0.000 A 
ATOM     13  C   UNL     1       5.054   6.152  15.927  0.00  0.00    +0.000 A 
ATOM     14  C   UNL     1       5.935   5.180  15.638  0.00  0.00    +0.000 A 
ATOM     15  O   UNL     1       6.637   4.508  16.672  0.00  0.00    +0.000 OA
ATOM     16  C   UNL     1       6.392   4.786  17.987  0.00  0.00    +0.000 A 
ATOM     17  O   UNL     1       7.059   4.295  18.891  0.00  0.00    +0.000 OA
ATOM     18  O   UNL     1       3.461   7.029  17.453  0.00  0.00    +0.000 OA
ENDROOT
BRANCH   1  22
ATOM     19  C   UNL     1       0.586  10.470  19.684  0.00  0.00    +0.000 A 
ATOM     20  C   UNL     1       1.043  10.247  18.380  0.00  0.00    +0.000 A 
ATOM     21  C   UNL     1       1.706   9.054  18.058  0.00  0.00    +0.000 A 
ATOM     22  C   UNL     1       1.945   8.063  19.026  0.00  0.00    +0.000 A 
ATOM     23  C   UNL     1       1.496   8.319  20.338  0.00  0.00    +0.000 A 
ATOM     24  C   UNL     1       0.823   9.507  20.662  0.00  0.00    +0.000 A 
BRANCH  19  26
ATOM     25  C   UNL     1      -0.924  12.109  18.880  0.00  0.00    +0.000 C 
ATOM     26  O   UNL     1      -0.012  11.681  19.894  0.00  0.00    +0.000 OA
ENDBRANCH  19  26
ENDBRANCH   1  22
BRANCH  14  27
ATOM     27  C   UNL     1       6.255   4.698  14.276  0.00  0.00    +0.000 A 
ATOM     28  C   UNL     1       7.398   5.172  13.613  0.00  0.00    +0.000 A 
ATOM     29  C   UNL     1       7.733   4.719  12.333  0.00  0.00    +0.000 A 
ATOM     30  C   UNL     1       6.938   3.771  11.699  0.00  0.00    +0.000 A 
ATOM     31  C   UNL     1       5.818   3.262  12.350  0.00  0.00    +0.000 A 
ATOM     32  C   UNL     1       5.484   3.716  13.632  0.00  0.00    +0.000 A 
ENDBRANCH  14  27
TORSDOF 3
ENDMDL
