MODEL 1
REMARK VINA RESULT:      -9.6      0.000      0.000
REMARK  Name = 
REMARK  6 active torsions:
REMARK  status: ('A' for Active; 'I' for Inactive)
REMARK    1  A    between atoms: C_1  and  C_2
REMARK    2  A    between atoms: C_2  and  C_3
REMARK    3  A    between atoms: N_7  and  C_8
REMARK    4  A    between atoms: C_11  and  N_12
REMARK    5  A    between atoms: C_13  and  C_15
REMARK    6  A    between atoms: C_26  and  C_27
REMARK                            x       y       z     vdW  Elec       q    Type
REMARK                         _______ _______ _______ _____ _____    ______ ____
ROOT
ATOM      1  C   UNL     1       2.662   6.407  19.353  0.00  0.00    +0.000 C 
ATOM      2  C   UNL     1       2.367   6.860  17.921  0.00  0.00    +0.000 C 
ATOM      3  C   UNL     1       2.383   8.387  17.831  0.00  0.00    +0.000 C 
ATOM      4  C   UNL     1       1.402   9.043  18.815  0.00  0.00    +0.000 C 
ATOM      5  C   UNL     1       1.562   8.511  20.249  0.00  0.00    +0.000 C 
ATOM      6  C   UNL     1       1.591   6.981  20.298  0.00  0.00    +0.000 C 
ENDROOT
BRANCH   1  13
ATOM      7  C   UNL     1       3.466   1.535  18.291  0.00  0.00    +0.000 C 
ATOM      8  C   UNL     1       2.671   2.731  18.813  0.00  0.00    +0.000 C 
ATOM      9  C   UNL     1       1.168   2.455  18.611  0.00  0.00    +0.000 C 
ATOM     10  O   UNL     1       2.870   2.852  20.237  0.00  0.00    +0.000 OA
ATOM     11  C   UNL     1       2.717   4.173  20.569  0.00  0.00    +0.000 C 
ATOM     12  O   UNL     1       2.540   4.551  21.716  0.00  0.00    +0.000 OA
ATOM     13  N   UNL     1       2.812   4.952  19.442  0.00  0.00    +0.000 N 
ATOM     14  C   UNL     1       3.075   4.122  18.278  0.00  0.00    +0.000 C 
BRANCH  14  15
ATOM     15  C   UNL     1       4.514   4.275  17.796  0.00  0.00    +0.000 A 
ATOM     16  C   UNL     1       5.570   4.528  18.689  0.00  0.00    +0.000 A 
ATOM     17  C   UNL     1       6.869   4.739  18.229  0.00  0.00    +0.000 A 
ATOM     18  C   UNL     1       7.145   4.674  16.868  0.00  0.00    +0.000 A 
ATOM     19  C   UNL     1       6.122   4.385  15.967  0.00  0.00    +0.000 A 
ATOM     20  C   UNL     1       4.815   4.187  16.426  0.00  0.00    +0.000 A 
ENDBRANCH  14  15
ENDBRANCH   1  13
BRANCH   4  21
ATOM     21  N   UNL     1       1.466  10.500  18.751  0.00  0.00    +0.000 N 
ATOM     22  C   UNL     1       0.402  11.353  18.971  0.00  0.00    +0.000 C 
ATOM     23  O   UNL     1      -0.749  10.979  19.168  0.00  0.00    +0.000 OA
ATOM     24  H   UNL     1       2.367  10.954  18.618  0.00  0.00    +0.000 HD
BRANCH  22  25
ATOM     25  C   UNL     1       0.754  12.818  18.981  0.00  0.00    +0.000 A 
ATOM     26  C   UNL     1       2.091  13.183  19.135  0.00  0.00    +0.000 A 
ATOM     27  C   UNL     1       2.434  14.534  19.117  0.00  0.00    +0.000 A 
ATOM     28  C   UNL     1       1.398  15.464  18.938  0.00  0.00    +0.000 A 
ATOM     29  C   UNL     1       1.315  16.880  18.854  0.00  0.00    +0.000 A 
ATOM     30  C   UNL     1      -0.013  17.207  18.666  0.00  0.00    +0.000 A 
ATOM     31  N   UNL     1      -0.734  16.041  18.637  0.00  0.00    +0.000 N 
ATOM     32  C   UNL     1       0.105  14.969  18.798  0.00  0.00    +0.000 A 
ATOM     33  N   UNL     1      -0.292  13.681  18.808  0.00  0.00    +0.000 NA
ATOM     34  H   UNL     1      -1.732  15.957  18.510  0.00  0.00    +0.000 HD
ENDBRANCH  22  25
ENDBRANCH   4  21
TORSDOF 4
ENDMDL
MODEL 2
REMARK VINA RESULT:      -9.6      1.071      1.367
REMARK  Name = 
REMARK  6 active torsions:
REMARK  status: ('A' for Active; 'I' for Inactive)
REMARK    1  A    between atoms: C_1  and  C_2
REMARK    2  A    between atoms: C_2  and  C_3
REMARK    3  A    between atoms: N_7  and  C_8
REMARK    4  A    between atoms: C_11  and  N_12
REMARK    5  A    between atoms: C_13  and  C_15
REMARK    6  A    between atoms: C_26  and  C_27
REMARK                            x       y       z     vdW  Elec       q    Type
REMARK                         _______ _______ _______ _____ _____    ______ ____
ROOT
ATOM      1  C   UNL     1       2.694   6.451  19.220  0.00  0.00    +0.000 C 
ATOM      2  C   UNL     1       2.395   6.852  17.773  0.00  0.00    +0.000 C 
ATOM      3  C   UNL     1       2.434   8.373  17.623  0.00  0.00    +0.000 C 
ATOM      4  C   UNL     1       1.471   9.084  18.588  0.00  0.00    +0.000 C 
ATOM      5  C   UNL     1       1.636   8.606  20.040  0.00  0.00    +0.000 C 
ATOM      6  C   UNL     1       1.641   7.079  20.149  0.00  0.00    +0.000 C 
ENDROOT
BRANCH   1  13
ATOM      7  C   UNL     1       3.443   1.532  18.351  0.00  0.00    +0.000 C 
ATOM      8  C   UNL     1       2.658   2.758  18.816  0.00  0.00    +0.000 C 
ATOM      9  C   UNL     1       1.154   2.496  18.603  0.00  0.00    +0.000 C 
ATOM     10  O   UNL     1       2.839   2.928  20.238  0.00  0.00    +0.000 OA
ATOM     11  C   UNL     1       2.700   4.263  20.518  0.00  0.00    +0.000 C 
ATOM     12  O   UNL     1       2.512   4.686  21.648  0.00  0.00    +0.000 OA
ATOM     13  N   UNL     1       2.822   4.998  19.364  0.00  0.00    +0.000 N 
ATOM     14  C   UNL     1       3.089   4.122  18.236  0.00  0.00    +0.000 C 
BRANCH  14  15
ATOM     15  C   UNL     1       4.537   4.236  17.769  0.00  0.00    +0.000 A 
ATOM     16  C   UNL     1       5.582   4.520  18.665  0.00  0.00    +0.000 A 
ATOM     17  C   UNL     1       6.891   4.696  18.217  0.00  0.00    +0.000 A 
ATOM     18  C   UNL     1       7.186   4.563  16.864  0.00  0.00    +0.000 A 
ATOM     19  C   UNL     1       6.173   4.243  15.963  0.00  0.00    +0.000 A 
ATOM     20  C   UNL     1       4.857   4.080  16.410  0.00  0.00    +0.000 A 
ENDBRANCH  14  15
ENDBRANCH   1  13
BRANCH   4  21
ATOM     21  N   UNL     1       1.559  10.536  18.466  0.00  0.00    +0.000 N 
ATOM     22  C   UNL     1       0.583  11.427  18.867  0.00  0.00    +0.000 C 
ATOM     23  O   UNL     1      -0.514  11.094  19.304  0.00  0.00    +0.000 OA
ATOM     24  H   UNL     1       2.425  10.958  18.140  0.00  0.00    +0.000 HD
BRANCH  22  25
ATOM     25  C   UNL     1       0.966  12.880  18.761  0.00  0.00    +0.000 A 
ATOM     26  C   UNL     1       0.092  13.841  19.271  0.00  0.00    +0.000 A 
ATOM     27  C   UNL     1       0.449  15.187  19.206  0.00  0.00    +0.000 A 
ATOM     28  C   UNL     1       1.687  15.503  18.626  0.00  0.00    +0.000 A 
ATOM     29  C   UNL     1       2.411  16.701  18.378  0.00  0.00    +0.000 A 
ATOM     30  C   UNL     1       3.598  16.350  17.769  0.00  0.00    +0.000 A 
ATOM     31  N   UNL     1       3.617  14.985  17.637  0.00  0.00    +0.000 N 
ATOM     32  C   UNL     1       2.466  14.451  18.155  0.00  0.00    +0.000 A 
ATOM     33  N   UNL     1       2.180  13.134  18.185  0.00  0.00    +0.000 NA
ATOM     34  H   UNL     1       4.358  14.433  17.231  0.00  0.00    +0.000 HD
ENDBRANCH  22  25
ENDBRANCH   4  21
TORSDOF 4
ENDMDL
MODEL 3
REMARK VINA RESULT:      -9.3      2.995      4.023
REMARK  Name = 
REMARK  6 active torsions:
REMARK  status: ('A' for Active; 'I' for Inactive)
REMARK    1  A    between atoms: C_1  and  C_2
REMARK    2  A    between atoms: C_2  and  C_3
REMARK    3  A    between atoms: N_7  and  C_8
REMARK    4  A    between atoms: C_11  and  N_12
REMARK    5  A    between atoms: C_13  and  C_15
REMARK    6  A    between atoms: C_26  and  C_27
REMARK                            x       y       z     vdW  Elec       q    Type
REMARK                         _______ _______ _______ _____ _____    ______ ____
ROOT
ATOM      1  C   UNL     1       3.072   6.113  17.890  0.00  0.00    +0.000 C 
ATOM      2  C   UNL     1       3.082   5.992  19.416  0.00  0.00    +0.000 C 
ATOM      3  C   UNL     1       1.971   6.847  20.026  0.00  0.00    +0.000 C 
ATOM      4  C   UNL     1       2.065   8.322  19.604  0.00  0.00    +0.000 C 
ATOM      5  C   UNL     1       2.204   8.489  18.081  0.00  0.00    +0.000 C 
ATOM      6  C   UNL     1       3.291   7.585  17.496  0.00  0.00    +0.000 C 
ENDROOT
BRANCH   1  13
ATOM      7  C   UNL     1       7.012   4.109  15.447  0.00  0.00    +0.000 C 
ATOM      8  C   UNL     1       5.531   4.370  15.718  0.00  0.00    +0.000 C 
ATOM      9  C   UNL     1       4.764   4.317  14.382  0.00  0.00    +0.000 C 
ATOM     10  O   UNL     1       5.000   3.302  16.530  0.00  0.00    +0.000 OA
ATOM     11  C   UNL     1       3.957   3.813  17.258  0.00  0.00    +0.000 C 
ATOM     12  O   UNL     1       3.129   3.107  17.814  0.00  0.00    +0.000 OA
ATOM     13  N   UNL     1       4.019   5.185  17.265  0.00  0.00    +0.000 N 
ATOM     14  C   UNL     1       5.184   5.639  16.526  0.00  0.00    +0.000 C 
BRANCH  14  15
ATOM     15  C   UNL     1       6.268   6.168  17.460  0.00  0.00    +0.000 A 
ATOM     16  C   UNL     1       6.926   7.386  17.215  0.00  0.00    +0.000 A 
ATOM     17  C   UNL     1       7.966   7.823  18.034  0.00  0.00    +0.000 A 
ATOM     18  C   UNL     1       8.352   7.064  19.133  0.00  0.00    +0.000 A 
ATOM     19  C   UNL     1       7.689   5.873  19.419  0.00  0.00    +0.000 A 
ATOM     20  C   UNL     1       6.654   5.426  18.589  0.00  0.00    +0.000 A 
ENDBRANCH  14  15
ENDBRANCH   1  13
BRANCH   4  21
ATOM     21  N   UNL     1       0.969   9.112  20.154  0.00  0.00    +0.000 N 
ATOM     22  C   UNL     1       0.940   9.653  21.425  0.00  0.00    +0.000 C 
ATOM     23  O   UNL     1       1.806   9.463  22.273  0.00  0.00    +0.000 OA
ATOM     24  H   UNL     1       0.190   9.370  19.554  0.00  0.00    +0.000 HD
BRANCH  22  25
ATOM     25  C   UNL     1      -0.241  10.543  21.710  0.00  0.00    +0.000 A 
ATOM     26  C   UNL     1      -0.768  10.562  23.002  0.00  0.00    +0.000 A 
ATOM     27  C   UNL     1      -1.842  11.404  23.286  0.00  0.00    +0.000 A 
ATOM     28  C   UNL     1      -2.338  12.199  22.241  0.00  0.00    +0.000 A 
ATOM     29  C   UNL     1      -3.375  13.162  22.108  0.00  0.00    +0.000 A 
ATOM     30  C   UNL     1      -3.364  13.605  20.802  0.00  0.00    +0.000 A 
ATOM     31  N   UNL     1      -2.362  12.943  20.140  0.00  0.00    +0.000 N 
ATOM     32  C   UNL     1      -1.724  12.085  20.998  0.00  0.00    +0.000 A 
ATOM     33  N   UNL     1      -0.688  11.293  20.658  0.00  0.00    +0.000 NA
ATOM     34  H   UNL     1      -2.108  13.057  19.170  0.00  0.00    +0.000 HD
ENDBRANCH  22  25
ENDBRANCH   4  21
TORSDOF 4
ENDMDL
MODEL 4
REMARK VINA RESULT:      -9.1      1.108      1.617
REMARK  Name = 
REMARK  6 active torsions:
REMARK  status: ('A' for Active; 'I' for Inactive)
REMARK    1  A    between atoms: C_1  and  C_2
REMARK    2  A    between atoms: C_2  and  C_3
REMARK    3  A    between atoms: N_7  and  C_8
REMARK    4  A    between atoms: C_11  and  N_12
REMARK    5  A    between atoms: C_13  and  C_15
REMARK    6  A    between atoms: C_26  and  C_27
REMARK                            x       y       z     vdW  Elec       q    Type
REMARK                         _______ _______ _______ _____ _____    ______ ____
ROOT
ATOM      1  C   UNL     1       2.593   6.352  19.543  0.00  0.00    +0.000 C 
ATOM      2  C   UNL     1       2.294   6.906  18.147  0.00  0.00    +0.000 C 
ATOM      3  C   UNL     1       2.269   8.434  18.174  0.00  0.00    +0.000 C 
ATOM      4  C   UNL     1       1.265   8.987  19.198  0.00  0.00    +0.000 C 
ATOM      5  C   UNL     1       1.433   8.351  20.588  0.00  0.00    +0.000 C 
ATOM      6  C   UNL     1       1.502   6.824  20.521  0.00  0.00    +0.000 C 
ENDROOT
BRANCH   1  13
ATOM      7  C   UNL     1       3.508   1.595  18.112  0.00  0.00    +0.000 C 
ATOM      8  C   UNL     1       2.690   2.728  18.731  0.00  0.00    +0.000 C 
ATOM      9  C   UNL     1       1.192   2.427  18.527  0.00  0.00    +0.000 C 
ATOM     10  O   UNL     1       2.906   2.748  20.157  0.00  0.00    +0.000 OA
ATOM     11  C   UNL     1       2.723   4.036  20.588  0.00  0.00    +0.000 C 
ATOM     12  O   UNL     1       2.552   4.323  21.763  0.00  0.00    +0.000 OA
ATOM     13  N   UNL     1       2.782   4.899  19.521  0.00  0.00    +0.000 N 
ATOM     14  C   UNL     1       3.050   4.165  18.296  0.00  0.00    +0.000 C 
BRANCH  14  15
ATOM     15  C   UNL     1       4.478   4.391  17.809  0.00  0.00    +0.000 A 
ATOM     16  C   UNL     1       4.805   4.362  16.442  0.00  0.00    +0.000 A 
ATOM     17  C   UNL     1       6.126   4.496  16.013  0.00  0.00    +0.000 A 
ATOM     18  C   UNL     1       7.142   4.688  16.941  0.00  0.00    +0.000 A 
ATOM     19  C   UNL     1       6.836   4.760  18.299  0.00  0.00    +0.000 A 
ATOM     20  C   UNL     1       5.514   4.612  18.731  0.00  0.00    +0.000 A 
ENDBRANCH  14  15
ENDBRANCH   1  13
BRANCH   4  21
ATOM     21  N   UNL     1       1.291  10.446  19.246  0.00  0.00    +0.000 N 
ATOM     22  C   UNL     1       0.175  11.259  19.298  0.00  0.00    +0.000 C 
ATOM     23  O   UNL     1      -0.978  10.848  19.229  0.00  0.00    +0.000 OA
ATOM     24  H   UNL     1       2.184  10.926  19.331  0.00  0.00    +0.000 HD
BRANCH  22  25
ATOM     25  C   UNL     1       0.466  12.726  19.478  0.00  0.00    +0.000 A 
ATOM     26  C   UNL     1      -0.165  13.641  18.635  0.00  0.00    +0.000 A 
ATOM     27  C   UNL     1       0.072  15.004  18.811  0.00  0.00    +0.000 A 
ATOM     28  C   UNL     1       0.943  15.383  19.845  0.00  0.00    +0.000 A 
ATOM     29  C   UNL     1       1.432  16.616  20.352  0.00  0.00    +0.000 A 
ATOM     30  C   UNL     1       2.274  16.326  21.406  0.00  0.00    +0.000 A 
ATOM     31  N   UNL     1       2.314  14.963  21.552  0.00  0.00    +0.000 N 
ATOM     32  C   UNL     1       1.509  14.371  20.614  0.00  0.00    +0.000 A 
ATOM     33  N   UNL     1       1.324  13.041  20.495  0.00  0.00    +0.000 NA
ATOM     34  H   UNL     1       2.842  14.450  22.242  0.00  0.00    +0.000 HD
ENDBRANCH  22  25
ENDBRANCH   4  21
TORSDOF 4
ENDMDL
MODEL 5
REMARK VINA RESULT:      -8.8      0.872      1.224
REMARK  Name = 
REMARK  6 active torsions:
REMARK  status: ('A' for Active; 'I' for Inactive)
REMARK    1  A    between atoms: C_1  and  C_2
REMARK    2  A    between atoms: C_2  and  C_3
REMARK    3  A    between atoms: N_7  and  C_8
REMARK    4  A    between atoms: C_11  and  N_12
REMARK    5  A    between atoms: C_13  and  C_15
REMARK    6  A    between atoms: C_26  and  C_27
REMARK                            x       y       z     vdW  Elec       q    Type
REMARK                         _______ _______ _______ _____ _____    ______ ____
ROOT
ATOM      1  C   UNL     1       2.561   6.394  19.569  0.00  0.00    +0.000 C 
ATOM      2  C   UNL     1       2.250   6.949  18.176  0.00  0.00    +0.000 C 
ATOM      3  C   UNL     1       2.233   8.477  18.203  0.00  0.00    +0.000 C 
ATOM      4  C   UNL     1       1.244   9.036  19.238  0.00  0.00    +0.000 C 
ATOM      5  C   UNL     1       1.423   8.400  20.626  0.00  0.00    +0.000 C 
ATOM      6  C   UNL     1       1.484   6.872  20.558  0.00  0.00    +0.000 C 
ENDROOT
BRANCH   1  13
ATOM      7  C   UNL     1       3.452   1.634  18.134  0.00  0.00    +0.000 C 
ATOM      8  C   UNL     1       2.639   2.770  18.753  0.00  0.00    +0.000 C 
ATOM      9  C   UNL     1       1.140   2.478  18.546  0.00  0.00    +0.000 C 
ATOM     10  O   UNL     1       2.853   2.787  20.180  0.00  0.00    +0.000 OA
ATOM     11  C   UNL     1       2.677   4.076  20.612  0.00  0.00    +0.000 C 
ATOM     12  O   UNL     1       2.506   4.363  21.786  0.00  0.00    +0.000 OA
ATOM     13  N   UNL     1       2.742   4.940  19.546  0.00  0.00    +0.000 N 
ATOM     14  C   UNL     1       3.007   4.206  18.320  0.00  0.00    +0.000 C 
BRANCH  14  15
ATOM     15  C   UNL     1       4.437   4.425  17.835  0.00  0.00    +0.000 A 
ATOM     16  C   UNL     1       4.767   4.398  16.469  0.00  0.00    +0.000 A 
ATOM     17  C   UNL     1       6.088   4.524  16.042  0.00  0.00    +0.000 A 
ATOM     18  C   UNL     1       7.105   4.709  16.972  0.00  0.00    +0.000 A 
ATOM     19  C   UNL     1       6.798   4.778  18.329  0.00  0.00    +0.000 A 
ATOM     20  C   UNL     1       5.474   4.637  18.760  0.00  0.00    +0.000 A 
ENDBRANCH  14  15
ENDBRANCH   1  13
BRANCH   4  21
ATOM     21  N   UNL     1       1.278  10.495  19.284  0.00  0.00    +0.000 N 
ATOM     22  C   UNL     1       1.914  11.303  18.362  0.00  0.00    +0.000 C 
ATOM     23  O   UNL     1       2.597  10.884  17.435  0.00  0.00    +0.000 OA
ATOM     24  H   UNL     1       0.732  10.984  19.990  0.00  0.00    +0.000 HD
BRANCH  22  25
ATOM     25  C   UNL     1       1.690  12.781  18.553  0.00  0.00    +0.000 A 
ATOM     26  C   UNL     1       2.787  13.639  18.476  0.00  0.00    +0.000 A 
ATOM     27  C   UNL     1       2.589  15.012  18.620  0.00  0.00    +0.000 A 
ATOM     28  C   UNL     1       1.276  15.459  18.833  0.00  0.00    +0.000 A 
ATOM     29  C   UNL     1       0.657  16.725  19.017  0.00  0.00    +0.000 A 
ATOM     30  C   UNL     1      -0.696  16.505  19.179  0.00  0.00    +0.000 A 
ATOM     31  N   UNL     1      -0.916  15.154  19.103  0.00  0.00    +0.000 N 
ATOM     32  C   UNL     1       0.270  14.500  18.891  0.00  0.00    +0.000 A 
ATOM     33  N   UNL     1       0.394  13.164  18.762  0.00  0.00    +0.000 NA
ATOM     34  H   UNL     1      -1.807  14.687  19.181  0.00  0.00    +0.000 HD
ENDBRANCH  22  25
ENDBRANCH   4  21
TORSDOF 4
ENDMDL
MODEL 6
REMARK VINA RESULT:      -8.7      1.435      1.644
REMARK  Name = 
REMARK  6 active torsions:
REMARK  status: ('A' for Active; 'I' for Inactive)
REMARK    1  A    between atoms: C_1  and  C_2
REMARK    2  A    between atoms: C_2  and  C_3
REMARK    3  A    between atoms: N_7  and  C_8
REMARK    4  A    between atoms: C_11  and  N_12
REMARK    5  A    between atoms: C_13  and  C_15
REMARK    6  A    between atoms: C_26  and  C_27
REMARK                            x       y       z     vdW  Elec       q    Type
REMARK                         _______ _______ _______ _____ _____    ______ ____
ROOT
ATOM      1  C   UNL     1       2.440   7.537  19.218  0.00  0.00    +0.000 C 
ATOM      2  C   UNL     1       1.963   8.072  17.865  0.00  0.00    +0.000 C 
ATOM      3  C   UNL     1       1.833   9.595  17.911  0.00  0.00    +0.000 C 
ATOM      4  C   UNL     1       0.901  10.072  19.037  0.00  0.00    +0.000 C 
ATOM      5  C   UNL     1       1.253   9.445  20.396  0.00  0.00    +0.000 C 
ATOM      6  C   UNL     1       1.423   7.926  20.306  0.00  0.00    +0.000 C 
ENDROOT
BRANCH   1  13
ATOM      7  C   UNL     1       4.126   2.972  17.867  0.00  0.00    +0.000 C 
ATOM      8  C   UNL     1       3.067   4.008  18.240  0.00  0.00    +0.000 C 
ATOM      9  C   UNL     1       1.755   3.664  17.507  0.00  0.00    +0.000 C 
ATOM     10  O   UNL     1       2.779   3.909  19.650  0.00  0.00    +0.000 OA
ATOM     11  C   UNL     1       2.368   5.144  20.079  0.00  0.00    +0.000 C 
ATOM     12  O   UNL     1       1.785   5.317  21.138  0.00  0.00    +0.000 OA
ATOM     13  N   UNL     1       2.728   6.101  19.162  0.00  0.00    +0.000 N 
ATOM     14  C   UNL     1       3.451   5.493  18.058  0.00  0.00    +0.000 C 
BRANCH  14  15
ATOM     15  C   UNL     1       4.939   5.822  18.114  0.00  0.00    +0.000 A 
ATOM     16  C   UNL     1       5.769   5.320  19.132  0.00  0.00    +0.000 A 
ATOM     17  C   UNL     1       7.112   5.688  19.216  0.00  0.00    +0.000 A 
ATOM     18  C   UNL     1       7.659   6.544  18.268  0.00  0.00    +0.000 A 
ATOM     19  C   UNL     1       6.865   7.023  17.227  0.00  0.00    +0.000 A 
ATOM     20  C   UNL     1       5.515   6.666  17.150  0.00  0.00    +0.000 A 
ENDBRANCH  14  15
ENDBRANCH   1  13
BRANCH   4  21
ATOM     21  N   UNL     1       0.829  11.529  19.096  0.00  0.00    +0.000 N 
ATOM     22  C   UNL     1       1.767  12.392  18.566  0.00  0.00    +0.000 C 
ATOM     23  O   UNL     1       2.819  12.032  18.050  0.00  0.00    +0.000 OA
ATOM     24  H   UNL     1      -0.004  11.971  19.477  0.00  0.00    +0.000 HD
BRANCH  22  25
ATOM     25  C   UNL     1       1.398  13.851  18.637  0.00  0.00    +0.000 A 
ATOM     26  C   UNL     1       2.379  14.803  18.355  0.00  0.00    +0.000 A 
ATOM     27  C   UNL     1       2.044  16.156  18.387  0.00  0.00    +0.000 A 
ATOM     28  C   UNL     1       0.717  16.488  18.701  0.00  0.00    +0.000 A 
ATOM     29  C   UNL     1      -0.019  17.697  18.830  0.00  0.00    +0.000 A 
ATOM     30  C   UNL     1      -1.315  17.360  19.163  0.00  0.00    +0.000 A 
ATOM     31  N   UNL     1      -1.388  15.993  19.243  0.00  0.00    +0.000 N 
ATOM     32  C   UNL     1      -0.164  15.444  18.964  0.00  0.00    +0.000 A 
ATOM     33  N   UNL     1       0.096  14.121  18.951  0.00  0.00    +0.000 NA
ATOM     34  H   UNL     1      -2.209  15.450  19.465  0.00  0.00    +0.000 HD
ENDBRANCH  22  25
ENDBRANCH   4  21
TORSDOF 4
ENDMDL
MODEL 7
REMARK VINA RESULT:      -8.7      1.117      1.343
REMARK  Name = 
REMARK  6 active torsions:
REMARK  status: ('A' for Active; 'I' for Inactive)
REMARK    1  A    between atoms: C_1  and  C_2
REMARK    2  A    between atoms: C_2  and  C_3
REMARK    3  A    between atoms: N_7  and  C_8
REMARK    4  A    between atoms: C_11  and  N_12
REMARK    5  A    between atoms: C_13  and  C_15
REMARK    6  A    between atoms: C_26  and  C_27
REMARK                            x       y       z     vdW  Elec       q    Type
REMARK                         _______ _______ _______ _____ _____    ______ ____
ROOT
ATOM      1  C   UNL     1       2.459   6.951  19.531  0.00  0.00    +0.000 C 
ATOM      2  C   UNL     1       2.101   7.546  18.166  0.00  0.00    +0.000 C 
ATOM      3  C   UNL     1       1.997   9.068  18.260  0.00  0.00    +0.000 C 
ATOM      4  C   UNL     1       0.988   9.524  19.326  0.00  0.00    +0.000 C 
ATOM      5  C   UNL     1       1.218   8.839  20.684  0.00  0.00    +0.000 C 
ATOM      6  C   UNL     1       1.366   7.322  20.549  0.00  0.00    +0.000 C 
ENDROOT
BRANCH   1  13
ATOM      7  C   UNL     1       3.759   2.342  17.924  0.00  0.00    +0.000 C 
ATOM      8  C   UNL     1       2.825   3.394  18.518  0.00  0.00    +0.000 C 
ATOM      9  C   UNL     1       1.373   3.042  18.137  0.00  0.00    +0.000 C 
ATOM     10  O   UNL     1       2.889   3.331  19.958  0.00  0.00    +0.000 OA
ATOM     11  C   UNL     1       2.597   4.579  20.443  0.00  0.00    +0.000 C 
ATOM     12  O   UNL     1       2.291   4.782  21.608  0.00  0.00    +0.000 OA
ATOM     13  N   UNL     1       2.723   5.511  19.443  0.00  0.00    +0.000 N 
ATOM     14  C   UNL     1       3.154   4.871  18.211  0.00  0.00    +0.000 C 
BRANCH  14  15
ATOM     15  C   UNL     1       4.611   5.192  17.894  0.00  0.00    +0.000 A 
ATOM     16  C   UNL     1       5.595   5.227  18.898  0.00  0.00    +0.000 A 
ATOM     17  C   UNL     1       6.910   5.594  18.609  0.00  0.00    +0.000 A 
ATOM     18  C   UNL     1       7.273   5.906  17.303  0.00  0.00    +0.000 A 
ATOM     19  C   UNL     1       6.324   5.839  16.285  0.00  0.00    +0.000 A 
ATOM     20  C   UNL     1       5.002   5.485  16.577  0.00  0.00    +0.000 A 
ENDBRANCH  14  15
ENDBRANCH   1  13
BRANCH   4  21
ATOM     21  N   UNL     1       0.939  10.978  19.436  0.00  0.00    +0.000 N 
ATOM     22  C   UNL     1      -0.063  11.780  18.924  0.00  0.00    +0.000 C 
ATOM     23  O   UNL     1      -0.994  11.365  18.242  0.00  0.00    +0.000 OA
ATOM     24  H   UNL     1       1.637  11.460  19.998  0.00  0.00    +0.000 HD
BRANCH  22  25
ATOM     25  C   UNL     1       0.042  13.238  19.287  0.00  0.00    +0.000 A 
ATOM     26  C   UNL     1      -0.796  13.741  20.282  0.00  0.00    +0.000 A 
ATOM     27  C   UNL     1      -0.688  15.082  20.649  0.00  0.00    +0.000 A 
ATOM     28  C   UNL     1       0.276  15.860  19.988  0.00  0.00    +0.000 A 
ATOM     29  C   UNL     1       0.704  17.213  20.058  0.00  0.00    +0.000 A 
ATOM     30  C   UNL     1       1.715  17.377  19.134  0.00  0.00    +0.000 A 
ATOM     31  N   UNL     1       1.911  16.174  18.506  0.00  0.00    +0.000 N 
ATOM     32  C   UNL     1       1.048  15.238  19.012  0.00  0.00    +0.000 A 
ATOM     33  N   UNL     1       0.992  13.952  18.611  0.00  0.00    +0.000 NA
ATOM     34  H   UNL     1       2.587  15.979  17.782  0.00  0.00    +0.000 HD
ENDBRANCH  22  25
ENDBRANCH   4  21
TORSDOF 4
ENDMDL
MODEL 8
REMARK VINA RESULT:      -8.6      1.243      1.346
REMARK  Name = 
REMARK  6 active torsions:
REMARK  status: ('A' for Active; 'I' for Inactive)
REMARK    1  A    between atoms: C_1  and  C_2
REMARK    2  A    between atoms: C_2  and  C_3
REMARK    3  A    between atoms: N_7  and  C_8
REMARK    4  A    between atoms: C_11  and  N_12
REMARK    5  A    between atoms: C_13  and  C_15
REMARK    6  A    between atoms: C_26  and  C_27
REMARK                            x       y       z     vdW  Elec       q    Type
REMARK                         _______ _______ _______ _____ _____    ______ ____
ROOT
ATOM      1  C   UNL     1       2.499   7.481  19.201  0.00  0.00    +0.000 C 
ATOM      2  C   UNL     1       2.093   8.006  17.821  0.00  0.00    +0.000 C 
ATOM      3  C   UNL     1       2.036   9.533  17.828  0.00  0.00    +0.000 C 
ATOM      4  C   UNL     1       1.092  10.081  18.911  0.00  0.00    +0.000 C 
ATOM      5  C   UNL     1       1.368   9.471  20.295  0.00  0.00    +0.000 C 
ATOM      6  C   UNL     1       1.467   7.944  20.244  0.00  0.00    +0.000 C 
ENDROOT
BRANCH   1  13
ATOM      7  C   UNL     1       3.957   2.802  17.979  0.00  0.00    +0.000 C 
ATOM      8  C   UNL     1       2.951   3.898  18.326  0.00  0.00    +0.000 C 
ATOM      9  C   UNL     1       1.619   3.594  17.612  0.00  0.00    +0.000 C 
ATOM     10  O   UNL     1       2.669   3.855  19.741  0.00  0.00    +0.000 OA
ATOM     11  C   UNL     1       2.320   5.120  20.134  0.00  0.00    +0.000 C 
ATOM     12  O   UNL     1       1.753   5.352  21.191  0.00  0.00    +0.000 OA
ATOM     13  N   UNL     1       2.718   6.031  19.187  0.00  0.00    +0.000 N 
ATOM     14  C   UNL     1       3.403   5.356  18.098  0.00  0.00    +0.000 C 
BRANCH  14  15
ATOM     15  C   UNL     1       4.906   5.617  18.135  0.00  0.00    +0.000 A 
ATOM     16  C   UNL     1       5.697   5.223  19.229  0.00  0.00    +0.000 A 
ATOM     17  C   UNL     1       7.056   5.532  19.287  0.00  0.00    +0.000 A 
ATOM     18  C   UNL     1       7.658   6.217  18.238  0.00  0.00    +0.000 A 
ATOM     19  C   UNL     1       6.902   6.583  17.125  0.00  0.00    +0.000 A 
ATOM     20  C   UNL     1       5.536   6.286  17.073  0.00  0.00    +0.000 A 
ENDBRANCH  14  15
ENDBRANCH   1  13
BRANCH   4  21
ATOM     21  N   UNL     1       1.089  11.541  18.936  0.00  0.00    +0.000 N 
ATOM     22  C   UNL     1       0.003  12.327  19.270  0.00  0.00    +0.000 C 
ATOM     23  O   UNL     1      -1.117  11.887  19.508  0.00  0.00    +0.000 OA
ATOM     24  H   UNL     1       1.959  12.044  18.781  0.00  0.00    +0.000 HD
BRANCH  22  25
ATOM     25  C   UNL     1       0.289  13.803  19.354  0.00  0.00    +0.000 A 
ATOM     26  C   UNL     1       1.532  14.216  19.836  0.00  0.00    +0.000 A 
ATOM     27  C   UNL     1       1.822  15.579  19.890  0.00  0.00    +0.000 A 
ATOM     28  C   UNL     1       0.833  16.471  19.447  0.00  0.00    +0.000 A 
ATOM     29  C   UNL     1       0.724  17.883  19.330  0.00  0.00    +0.000 A 
ATOM     30  C   UNL     1      -0.524  18.161  18.811  0.00  0.00    +0.000 A 
ATOM     31  N   UNL     1      -1.173  16.970  18.613  0.00  0.00    +0.000 N 
ATOM     32  C   UNL     1      -0.365  15.930  18.991  0.00  0.00    +0.000 A 
ATOM     33  N   UNL     1      -0.708  14.628  18.914  0.00  0.00    +0.000 NA
ATOM     34  H   UNL     1      -2.103  16.851  18.239  0.00  0.00    +0.000 HD
ENDBRANCH  22  25
ENDBRANCH   4  21
TORSDOF 4
ENDMDL
MODEL 9
REMARK VINA RESULT:      -8.6      3.034      4.202
REMARK  Name = 
REMARK  6 active torsions:
REMARK  status: ('A' for Active; 'I' for Inactive)
REMARK    1  A    between atoms: C_1  and  C_2
REMARK    2  A    between atoms: C_2  and  C_3
REMARK    3  A    between atoms: N_7  and  C_8
REMARK    4  A    between atoms: C_11  and  N_12
REMARK    5  A    between atoms: C_13  and  C_15
REMARK    6  A    between atoms: C_26  and  C_27
REMARK                            x       y       z     vdW  Elec       q    Type
REMARK                         _______ _______ _______ _____ _____    ______ ____
ROOT
ATOM      1  C   UNL     1       3.104   6.250  17.760  0.00  0.00    +0.000 C 
ATOM      2  C   UNL     1       3.050   6.176  19.289  0.00  0.00    +0.000 C 
ATOM      3  C   UNL     1       1.925   7.062  19.825  0.00  0.00    +0.000 C 
ATOM      4  C   UNL     1       2.054   8.522  19.361  0.00  0.00    +0.000 C 
ATOM      5  C   UNL     1       2.256   8.640  17.842  0.00  0.00    +0.000 C 
ATOM      6  C   UNL     1       3.356   7.706  17.330  0.00  0.00    +0.000 C 
ENDROOT
BRANCH   1  13
ATOM      7  C   UNL     1       7.097   4.130  15.508  0.00  0.00    +0.000 C 
ATOM      8  C   UNL     1       5.611   4.403  15.733  0.00  0.00    +0.000 C 
ATOM      9  C   UNL     1       4.873   4.281  14.385  0.00  0.00    +0.000 C 
ATOM     10  O   UNL     1       5.062   3.377  16.586  0.00  0.00    +0.000 OA
ATOM     11  C   UNL     1       4.003   3.922  17.265  0.00  0.00    +0.000 C 
ATOM     12  O   UNL     1       3.163   3.244  17.837  0.00  0.00    +0.000 OA
ATOM     13  N   UNL     1       4.064   5.292  17.204  0.00  0.00    +0.000 N 
ATOM     14  C   UNL     1       5.246   5.710  16.469  0.00  0.00    +0.000 C 
BRANCH  14  15
ATOM     15  C   UNL     1       6.309   6.287  17.399  0.00  0.00    +0.000 A 
ATOM     16  C   UNL     1       6.930   7.520  17.136  0.00  0.00    +0.000 A 
ATOM     17  C   UNL     1       7.954   8.002  17.952  0.00  0.00    +0.000 A 
ATOM     18  C   UNL     1       8.357   7.273  19.065  0.00  0.00    +0.000 A 
ATOM     19  C   UNL     1       7.728   6.067  19.368  0.00  0.00    +0.000 A 
ATOM     20  C   UNL     1       6.712   5.576  18.542  0.00  0.00    +0.000 A 
ENDBRANCH  14  15
ENDBRANCH   1  13
BRANCH   4  21
ATOM     21  N   UNL     1       0.945   9.340  19.842  0.00  0.00    +0.000 N 
ATOM     22  C   UNL     1       0.866   9.911  21.097  0.00  0.00    +0.000 C 
ATOM     23  O   UNL     1       1.687   9.729  21.989  0.00  0.00    +0.000 OA
ATOM     24  H   UNL     1       0.200   9.596  19.199  0.00  0.00    +0.000 HD
BRANCH  22  25
ATOM     25  C   UNL     1      -0.314  10.825  21.306  0.00  0.00    +0.000 A 
ATOM     26  C   UNL     1      -0.795  11.554  20.218  0.00  0.00    +0.000 A 
ATOM     27  C   UNL     1      -1.905  12.380  20.390  0.00  0.00    +0.000 A 
ATOM     28  C   UNL     1      -2.486  12.429  21.667  0.00  0.00    +0.000 A 
ATOM     29  C   UNL     1      -3.590  13.108  22.250  0.00  0.00    +0.000 A 
ATOM     30  C   UNL     1      -3.655  12.732  23.576  0.00  0.00    +0.000 A 
ATOM     31  N   UNL     1      -2.629  11.853  23.816  0.00  0.00    +0.000 N 
ATOM     32  C   UNL     1      -1.908  11.654  22.668  0.00  0.00    +0.000 A 
ATOM     33  N   UNL     1      -0.839  10.839  22.568  0.00  0.00    +0.000 NA
ATOM     34  H   UNL     1      -2.421  11.403  24.694  0.00  0.00    +0.000 HD
ENDBRANCH  22  25
ENDBRANCH   4  21
TORSDOF 4
ENDMDL
