MODEL 1
REMARK VINA RESULT:      -5.7      0.000      0.000
REMARK  Name = 
REMARK  7 active torsions:
REMARK  status: ('A' for Active; 'I' for Inactive)
REMARK    1  A    between atoms: C_1  and  C_2
REMARK    2  A    between atoms: C_5  and  O_6
REMARK    3  A    between atoms: O_6  and  C_7
REMARK    4  A    between atoms: C_7  and  C_8
REMARK    5  A    between atoms: C_8  and  C_9
REMARK    6  A    between atoms: C_9  and  N_10
REMARK    7  A    between atoms: C_11  and  N_12
REMARK                            x       y       z     vdW  Elec       q    Type
REMARK                         _______ _______ _______ _____ _____    ______ ____
ROOT
ATOM      1  C   UNL     1       5.811   4.652  14.572  0.00  0.00    +0.000 C 
ATOM      2  C   UNL     1       5.227   4.871  15.935  0.00  0.00    +0.000 A 
ATOM      3  C   UNL     1       4.960   6.162  16.375  0.00  0.00    +0.000 A 
ATOM      4  C   UNL     1       4.428   6.375  17.632  0.00  0.00    +0.000 A 
ATOM      5  C   UNL     1       4.140   5.303  18.517  0.00  0.00    +0.000 A 
ATOM      6  C   UNL     1       4.418   3.973  18.075  0.00  0.00    +0.000 A 
ATOM      7  C   UNL     1       4.955   3.786  16.772  0.00  0.00    +0.000 A 
ENDROOT
BRANCH   6   8
ATOM      8  N   UNL     1       4.179   2.819  18.889  0.00  0.00    +0.000 N 
ATOM      9  O   UNL     1       3.275   2.078  18.652  0.00  0.00    +0.000 OA
ATOM     10  O   UNL     1       4.947   2.568  19.927  0.00  0.00    +0.000 OA
ENDBRANCH   6   8
BRANCH   5  11
ATOM     11  O   UNL     1       3.610   5.568  19.759  0.00  0.00    +0.000 OA
BRANCH  11  12
ATOM     12  C   UNL     1       2.239   5.745  19.931  0.00  0.00    +0.000 C 
BRANCH  12  13
ATOM     13  C   UNL     1       1.461   4.533  20.445  0.00  0.00    +0.000 C 
BRANCH  13  14
ATOM     14  C   UNL     1       2.216   3.940  21.660  0.00  0.00    +0.000 C 
BRANCH  14  15
ATOM     15  N   UNL     1       2.130   2.480  21.677  0.00  0.00    +0.000 NA
ATOM     16  H   UNL     1       2.298   2.109  20.713  0.00  0.00    +0.000 HD
ATOM     17  H   UNL     1       1.172   2.191  21.982  0.00  0.00    +0.000 HD
ENDBRANCH  14  15
ENDBRANCH  13  14
ENDBRANCH  12  13
ENDBRANCH  11  12
ENDBRANCH   5  11
TORSDOF 6
ENDMDL
MODEL 2
REMARK VINA RESULT:      -5.7      1.457      1.789
REMARK  Name = 
REMARK  7 active torsions:
REMARK  status: ('A' for Active; 'I' for Inactive)
REMARK    1  A    between atoms: C_1  and  C_2
REMARK    2  A    between atoms: C_5  and  O_6
REMARK    3  A    between atoms: O_6  and  C_7
REMARK    4  A    between atoms: C_7  and  C_8
REMARK    5  A    between atoms: C_8  and  C_9
REMARK    6  A    between atoms: C_9  and  N_10
REMARK    7  A    between atoms: C_11  and  N_12
REMARK                            x       y       z     vdW  Elec       q    Type
REMARK                         _______ _______ _______ _____ _____    ______ ____
ROOT
ATOM      1  C   UNL     1       6.773   4.957  15.458  0.00  0.00    +0.000 C 
ATOM      2  C   UNL     1       5.915   4.717  16.664  0.00  0.00    +0.000 A 
ATOM      3  C   UNL     1       6.329   5.172  17.909  0.00  0.00    +0.000 A 
ATOM      4  C   UNL     1       5.548   4.951  19.028  0.00  0.00    +0.000 A 
ATOM      5  C   UNL     1       4.312   4.257  18.955  0.00  0.00    +0.000 A 
ATOM      6  C   UNL     1       3.883   3.781  17.678  0.00  0.00    +0.000 A 
ATOM      7  C   UNL     1       4.703   4.033  16.545  0.00  0.00    +0.000 A 
ENDROOT
BRANCH   6   8
ATOM      8  N   UNL     1       2.660   3.058  17.491  0.00  0.00    +0.000 N 
ATOM      9  O   UNL     1       2.614   1.877  17.655  0.00  0.00    +0.000 OA
ATOM     10  O   UNL     1       1.567   3.687  17.115  0.00  0.00    +0.000 OA
ENDBRANCH   6   8
BRANCH   5  11
ATOM     11  O   UNL     1       3.570   4.063  20.098  0.00  0.00    +0.000 OA
BRANCH  11  12
ATOM     12  C   UNL     1       2.583   4.970  20.475  0.00  0.00    +0.000 C 
BRANCH  12  13
ATOM     13  C   UNL     1       1.149   4.439  20.494  0.00  0.00    +0.000 C 
BRANCH  13  14
ATOM     14  C   UNL     1       1.179   2.952  20.924  0.00  0.00    +0.000 C 
BRANCH  14  15
ATOM     15  N   UNL     1       2.019   2.759  22.107  0.00  0.00    +0.000 NA
ATOM     16  H   UNL     1       1.602   3.269  22.919  0.00  0.00    +0.000 HD
ATOM     17  H   UNL     1       2.972   3.149  21.923  0.00  0.00    +0.000 HD
ENDBRANCH  14  15
ENDBRANCH  13  14
ENDBRANCH  12  13
ENDBRANCH  11  12
ENDBRANCH   5  11
TORSDOF 6
ENDMDL
MODEL 3
REMARK VINA RESULT:      -5.5      1.139      1.300
REMARK  Name = 
REMARK  7 active torsions:
REMARK  status: ('A' for Active; 'I' for Inactive)
REMARK    1  A    between atoms: C_1  and  C_2
REMARK    2  A    between atoms: C_5  and  O_6
REMARK    3  A    between atoms: O_6  and  C_7
REMARK    4  A    between atoms: C_7  and  C_8
REMARK    5  A    between atoms: C_8  and  C_9
REMARK    6  A    between atoms: C_9  and  N_10
REMARK    7  A    between atoms: C_11  and  N_12
REMARK                            x       y       z     vdW  Elec       q    Type
REMARK                         _______ _______ _______ _____ _____    ______ ____
ROOT
ATOM      1  C   UNL     1       6.761   4.447  15.022  0.00  0.00    +0.000 C 
ATOM      2  C   UNL     1       5.596   4.769  15.908  0.00  0.00    +0.000 A 
ATOM      3  C   UNL     1       5.297   6.092  16.206  0.00  0.00    +0.000 A 
ATOM      4  C   UNL     1       4.228   6.399  17.027  0.00  0.00    +0.000 A 
ATOM      5  C   UNL     1       3.407   5.392  17.597  0.00  0.00    +0.000 A 
ATOM      6  C   UNL     1       3.712   4.028  17.301  0.00  0.00    +0.000 A 
ATOM      7  C   UNL     1       4.811   3.745  16.445  0.00  0.00    +0.000 A 
ENDROOT
BRANCH   6   8
ATOM      8  N   UNL     1       2.958   2.931  17.833  0.00  0.00    +0.000 N 
ATOM      9  O   UNL     1       1.849   2.710  17.455  0.00  0.00    +0.000 OA
ATOM     10  O   UNL     1       3.475   2.158  18.763  0.00  0.00    +0.000 OA
ENDBRANCH   6   8
BRANCH   5  11
ATOM     11  O   UNL     1       2.354   5.749  18.408  0.00  0.00    +0.000 OA
BRANCH  11  12
ATOM     12  C   UNL     1       2.555   6.050  19.753  0.00  0.00    +0.000 C 
BRANCH  12  13
ATOM     13  C   UNL     1       2.297   4.914  20.745  0.00  0.00    +0.000 C 
BRANCH  13  14
ATOM     14  C   UNL     1       0.895   4.322  20.463  0.00  0.00    +0.000 C 
BRANCH  14  15
ATOM     15  N   UNL     1       0.891   2.867  20.627  0.00  0.00    +0.000 NA
ATOM     16  H   UNL     1       0.276   2.608  21.433  0.00  0.00    +0.000 HD
ATOM     17  H   UNL     1       1.863   2.538  20.831  0.00  0.00    +0.000 HD
ENDBRANCH  14  15
ENDBRANCH  13  14
ENDBRANCH  12  13
ENDBRANCH  11  12
ENDBRANCH   5  11
TORSDOF 6
ENDMDL
MODEL 4
REMARK VINA RESULT:      -5.4      2.418      5.366
REMARK  Name = 
REMARK  7 active torsions:
REMARK  status: ('A' for Active; 'I' for Inactive)
REMARK    1  A    between atoms: C_1  and  C_2
REMARK    2  A    between atoms: C_5  and  O_6
REMARK    3  A    between atoms: O_6  and  C_7
REMARK    4  A    between atoms: C_7  and  C_8
REMARK    5  A    between atoms: C_8  and  C_9
REMARK    6  A    between atoms: C_9  and  N_10
REMARK    7  A    between atoms: C_11  and  N_12
REMARK                            x       y       z     vdW  Elec       q    Type
REMARK                         _______ _______ _______ _____ _____    ______ ____
ROOT
ATOM      1  C   UNL     1       1.477   2.926  20.819  0.00  0.00    +0.000 C 
ATOM      2  C   UNL     1       2.287   3.329  19.623  0.00  0.00    +0.000 A 
ATOM      3  C   UNL     1       1.906   2.909  18.356  0.00  0.00    +0.000 A 
ATOM      4  C   UNL     1       2.649   3.270  17.247  0.00  0.00    +0.000 A 
ATOM      5  C   UNL     1       3.818   4.068  17.355  0.00  0.00    +0.000 A 
ATOM      6  C   UNL     1       4.220   4.499  18.657  0.00  0.00    +0.000 A 
ATOM      7  C   UNL     1       3.429   4.120  19.776  0.00  0.00    +0.000 A 
ENDROOT
BRANCH   6   8
ATOM      8  N   UNL     1       5.389   5.296  18.884  0.00  0.00    +0.000 N 
ATOM      9  O   UNL     1       5.575   6.301  18.269  0.00  0.00    +0.000 OA
ATOM     10  O   UNL     1       6.289   4.920  19.767  0.00  0.00    +0.000 OA
ENDBRANCH   6   8
BRANCH   5  11
ATOM     11  O   UNL     1       4.523   4.402  16.222  0.00  0.00    +0.000 OA
BRANCH  11  12
ATOM     12  C   UNL     1       5.634   3.662  15.825  0.00  0.00    +0.000 C 
BRANCH  12  13
ATOM     13  C   UNL     1       6.127   3.895  14.396  0.00  0.00    +0.000 C 
BRANCH  13  14
ATOM     14  C   UNL     1       7.195   5.015  14.419  0.00  0.00    +0.000 C 
BRANCH  14  15
ATOM     15  N   UNL     1       7.279   5.641  15.739  0.00  0.00    +0.000 NA
ATOM     16  H   UNL     1       6.534   6.370  15.828  0.00  0.00    +0.000 HD
ATOM     17  H   UNL     1       8.212   6.103  15.845  0.00  0.00    +0.000 HD
ENDBRANCH  14  15
ENDBRANCH  13  14
ENDBRANCH  12  13
ENDBRANCH  11  12
ENDBRANCH   5  11
TORSDOF 6
ENDMDL
MODEL 5
REMARK VINA RESULT:      -5.4      1.534      1.822
REMARK  Name = 
REMARK  7 active torsions:
REMARK  status: ('A' for Active; 'I' for Inactive)
REMARK    1  A    between atoms: C_1  and  C_2
REMARK    2  A    between atoms: C_5  and  O_6
REMARK    3  A    between atoms: O_6  and  C_7
REMARK    4  A    between atoms: C_7  and  C_8
REMARK    5  A    between atoms: C_8  and  C_9
REMARK    6  A    between atoms: C_9  and  N_10
REMARK    7  A    between atoms: C_11  and  N_12
REMARK                            x       y       z     vdW  Elec       q    Type
REMARK                         _______ _______ _______ _____ _____    ______ ____
ROOT
ATOM      1  C   UNL     1       7.343   6.356  17.599  0.00  0.00    +0.000 C 
ATOM      2  C   UNL     1       5.970   5.786  17.792  0.00  0.00    +0.000 A 
ATOM      3  C   UNL     1       4.853   6.557  17.495  0.00  0.00    +0.000 A 
ATOM      4  C   UNL     1       3.582   6.044  17.675  0.00  0.00    +0.000 A 
ATOM      5  C   UNL     1       3.367   4.730  18.168  0.00  0.00    +0.000 A 
ATOM      6  C   UNL     1       4.510   3.934  18.482  0.00  0.00    +0.000 A 
ATOM      7  C   UNL     1       5.804   4.486  18.276  0.00  0.00    +0.000 A 
ENDROOT
BRANCH   6   8
ATOM      8  N   UNL     1       4.410   2.600  18.997  0.00  0.00    +0.000 N 
ATOM      9  O   UNL     1       4.901   2.309  20.043  0.00  0.00    +0.000 OA
ATOM     10  O   UNL     1       3.785   1.668  18.310  0.00  0.00    +0.000 OA
ENDBRANCH   6   8
BRANCH   5  11
ATOM     11  O   UNL     1       2.081   4.265  18.329  0.00  0.00    +0.000 OA
BRANCH  11  12
ATOM     12  C   UNL     1       1.461   4.290  19.576  0.00  0.00    +0.000 C 
BRANCH  12  13
ATOM     13  C   UNL     1       1.005   2.939  20.131  0.00  0.00    +0.000 C 
BRANCH  13  14
ATOM     14  C   UNL     1       1.290   2.909  21.652  0.00  0.00    +0.000 C 
BRANCH  14  15
ATOM     15  N   UNL     1       2.683   2.556  21.924  0.00  0.00    +0.000 NA
ATOM     16  H   UNL     1       2.850   2.563  22.957  0.00  0.00    +0.000 HD
ATOM     17  H   UNL     1       3.314   3.262  21.480  0.00  0.00    +0.000 HD
ENDBRANCH  14  15
ENDBRANCH  13  14
ENDBRANCH  12  13
ENDBRANCH  11  12
ENDBRANCH   5  11
TORSDOF 6
ENDMDL
MODEL 6
REMARK VINA RESULT:      -5.3      2.366      2.874
REMARK  Name = 
REMARK  7 active torsions:
REMARK  status: ('A' for Active; 'I' for Inactive)
REMARK    1  A    between atoms: C_1  and  C_2
REMARK    2  A    between atoms: C_5  and  O_6
REMARK    3  A    between atoms: O_6  and  C_7
REMARK    4  A    between atoms: C_7  and  C_8
REMARK    5  A    between atoms: C_8  and  C_9
REMARK    6  A    between atoms: C_9  and  N_10
REMARK    7  A    between atoms: C_11  and  N_12
REMARK                            x       y       z     vdW  Elec       q    Type
REMARK                         _______ _______ _______ _____ _____    ______ ____
ROOT
ATOM      1  C   UNL     1       6.497   4.060  14.020  0.00  0.00    +0.000 C 
ATOM      2  C   UNL     1       6.095   4.334  15.439  0.00  0.00    +0.000 A 
ATOM      3  C   UNL     1       4.790   4.093  15.848  0.00  0.00    +0.000 A 
ATOM      4  C   UNL     1       4.408   4.347  17.152  0.00  0.00    +0.000 A 
ATOM      5  C   UNL     1       5.317   4.863  18.112  0.00  0.00    +0.000 A 
ATOM      6  C   UNL     1       6.660   5.120  17.697  0.00  0.00    +0.000 A 
ATOM      7  C   UNL     1       7.024   4.838  16.353  0.00  0.00    +0.000 A 
ENDROOT
BRANCH   6   8
ATOM      8  N   UNL     1       7.656   5.653  18.579  0.00  0.00    +0.000 N 
ATOM      9  O   UNL     1       8.210   4.954  19.371  0.00  0.00    +0.000 OA
ATOM     10  O   UNL     1       7.963   6.932  18.541  0.00  0.00    +0.000 OA
ENDBRANCH   6   8
BRANCH   5  11
ATOM     11  O   UNL     1       4.888   5.099  19.399  0.00  0.00    +0.000 OA
BRANCH  11  12
ATOM     12  C   UNL     1       3.613   5.601  19.649  0.00  0.00    +0.000 C 
BRANCH  12  13
ATOM     13  C   UNL     1       2.691   4.715  20.487  0.00  0.00    +0.000 C 
BRANCH  13  14
ATOM     14  C   UNL     1       1.518   4.240  19.595  0.00  0.00    +0.000 C 
BRANCH  14  15
ATOM     15  N   UNL     1       0.584   3.401  20.347  0.00  0.00    +0.000 NA
ATOM     16  H   UNL     1       0.976   3.209  21.298  0.00  0.00    +0.000 HD
ATOM     17  H   UNL     1       0.457   2.490  19.850  0.00  0.00    +0.000 HD
ENDBRANCH  14  15
ENDBRANCH  13  14
ENDBRANCH  12  13
ENDBRANCH  11  12
ENDBRANCH   5  11
TORSDOF 6
ENDMDL
MODEL 7
REMARK VINA RESULT:      -5.2      1.975      4.464
REMARK  Name = 
REMARK  7 active torsions:
REMARK  status: ('A' for Active; 'I' for Inactive)
REMARK    1  A    between atoms: C_1  and  C_2
REMARK    2  A    between atoms: C_5  and  O_6
REMARK    3  A    between atoms: O_6  and  C_7
REMARK    4  A    between atoms: C_7  and  C_8
REMARK    5  A    between atoms: C_8  and  C_9
REMARK    6  A    between atoms: C_9  and  N_10
REMARK    7  A    between atoms: C_11  and  N_12
REMARK                            x       y       z     vdW  Elec       q    Type
REMARK                         _______ _______ _______ _____ _____    ______ ____
ROOT
ATOM      1  C   UNL     1       1.434   6.942  20.788  0.00  0.00    +0.000 C 
ATOM      2  C   UNL     1       2.353   6.486  19.694  0.00  0.00    +0.000 A 
ATOM      3  C   UNL     1       2.619   7.324  18.620  0.00  0.00    +0.000 A 
ATOM      4  C   UNL     1       3.461   6.912  17.603  0.00  0.00    +0.000 A 
ATOM      5  C   UNL     1       4.074   5.632  17.611  0.00  0.00    +0.000 A 
ATOM      6  C   UNL     1       3.799   4.761  18.710  0.00  0.00    +0.000 A 
ATOM      7  C   UNL     1       2.939   5.219  19.744  0.00  0.00    +0.000 A 
ENDROOT
BRANCH   6   8
ATOM      8  N   UNL     1       4.354   3.444  18.813  0.00  0.00    +0.000 N 
ATOM      9  O   UNL     1       5.256   3.215  19.558  0.00  0.00    +0.000 OA
ATOM     10  O   UNL     1       3.884   2.464  18.071  0.00  0.00    +0.000 OA
ENDBRANCH   6   8
BRANCH   5  11
ATOM     11  O   UNL     1       4.904   5.267  16.575  0.00  0.00    +0.000 OA
BRANCH  11  12
ATOM     12  C   UNL     1       6.180   5.812  16.453  0.00  0.00    +0.000 C 
BRANCH  12  13
ATOM     13  C   UNL     1       6.775   6.429  17.720  0.00  0.00    +0.000 C 
BRANCH  13  14
ATOM     14  C   UNL     1       7.655   5.366  18.420  0.00  0.00    +0.000 C 
BRANCH  14  15
ATOM     15  N   UNL     1       7.620   4.091  17.702  0.00  0.00    +0.000 NA
ATOM     16  H   UNL     1       6.988   3.425  18.203  0.00  0.00    +0.000 HD
ATOM     17  H   UNL     1       8.582   3.681  17.675  0.00  0.00    +0.000 HD
ENDBRANCH  14  15
ENDBRANCH  13  14
ENDBRANCH  12  13
ENDBRANCH  11  12
ENDBRANCH   5  11
TORSDOF 6
ENDMDL
MODEL 8
REMARK VINA RESULT:      -5.2      2.457      3.029
REMARK  Name = 
REMARK  7 active torsions:
REMARK  status: ('A' for Active; 'I' for Inactive)
REMARK    1  A    between atoms: C_1  and  C_2
REMARK    2  A    between atoms: C_5  and  O_6
REMARK    3  A    between atoms: O_6  and  C_7
REMARK    4  A    between atoms: C_7  and  C_8
REMARK    5  A    between atoms: C_8  and  C_9
REMARK    6  A    between atoms: C_9  and  N_10
REMARK    7  A    between atoms: C_11  and  N_12
REMARK                            x       y       z     vdW  Elec       q    Type
REMARK                         _______ _______ _______ _____ _____    ______ ____
ROOT
ATOM      1  C   UNL     1       7.016   4.791  14.100  0.00  0.00    +0.000 C 
ATOM      2  C   UNL     1       6.440   4.703  15.482  0.00  0.00    +0.000 A 
ATOM      3  C   UNL     1       5.197   4.115  15.678  0.00  0.00    +0.000 A 
ATOM      4  C   UNL     1       4.655   4.033  16.946  0.00  0.00    +0.000 A 
ATOM      5  C   UNL     1       5.330   4.545  18.085  0.00  0.00    +0.000 A 
ATOM      6  C   UNL     1       6.606   5.158  17.891  0.00  0.00    +0.000 A 
ATOM      7  C   UNL     1       7.142   5.216  16.576  0.00  0.00    +0.000 A 
ENDROOT
BRANCH   6   8
ATOM      8  N   UNL     1       7.370   5.718  18.967  0.00  0.00    +0.000 N 
ATOM      9  O   UNL     1       7.361   5.219  20.050  0.00  0.00    +0.000 OA
ATOM     10  O   UNL     1       8.082   6.808  18.779  0.00  0.00    +0.000 OA
ENDBRANCH   6   8
BRANCH   5  11
ATOM     11  O   UNL     1       4.748   4.439  19.328  0.00  0.00    +0.000 OA
BRANCH  11  12
ATOM     12  C   UNL     1       4.101   3.271  19.720  0.00  0.00    +0.000 C 
BRANCH  12  13
ATOM     13  C   UNL     1       2.786   3.449  20.480  0.00  0.00    +0.000 C 
BRANCH  13  14
ATOM     14  C   UNL     1       2.037   4.670  19.893  0.00  0.00    +0.000 C 
BRANCH  14  15
ATOM     15  N   UNL     1       2.408   5.904  20.588  0.00  0.00    +0.000 NA
ATOM     16  H   UNL     1       2.078   6.728  20.035  0.00  0.00    +0.000 HD
ATOM     17  H   UNL     1       3.449   5.955  20.672  0.00  0.00    +0.000 HD
ENDBRANCH  14  15
ENDBRANCH  13  14
ENDBRANCH  12  13
ENDBRANCH  11  12
ENDBRANCH   5  11
TORSDOF 6
ENDMDL
MODEL 9
REMARK VINA RESULT:      -5.2      1.481      2.098
REMARK  Name = 
REMARK  7 active torsions:
REMARK  status: ('A' for Active; 'I' for Inactive)
REMARK    1  A    between atoms: C_1  and  C_2
REMARK    2  A    between atoms: C_5  and  O_6
REMARK    3  A    between atoms: O_6  and  C_7
REMARK    4  A    between atoms: C_7  and  C_8
REMARK    5  A    between atoms: C_8  and  C_9
REMARK    6  A    between atoms: C_9  and  N_10
REMARK    7  A    between atoms: C_11  and  N_12
REMARK                            x       y       z     vdW  Elec       q    Type
REMARK                         _______ _______ _______ _____ _____    ______ ____
ROOT
ATOM      1  C   UNL     1       5.249   6.178  15.714  0.00  0.00    +0.000 C 
ATOM      2  C   UNL     1       4.988   5.342  16.931  0.00  0.00    +0.000 A 
ATOM      3  C   UNL     1       5.494   5.737  18.163  0.00  0.00    +0.000 A 
ATOM      4  C   UNL     1       5.264   4.971  19.290  0.00  0.00    +0.000 A 
ATOM      5  C   UNL     1       4.518   3.764  19.238  0.00  0.00    +0.000 A 
ATOM      6  C   UNL     1       4.000   3.348  17.973  0.00  0.00    +0.000 A 
ATOM      7  C   UNL     1       4.244   4.163  16.835  0.00  0.00    +0.000 A 
ENDROOT
BRANCH   6   8
ATOM      8  N   UNL     1       3.245   2.143  17.802  0.00  0.00    +0.000 N 
ATOM      9  O   UNL     1       3.760   1.074  17.920  0.00  0.00    +0.000 OA
ATOM     10  O   UNL     1       1.967   2.197  17.494  0.00  0.00    +0.000 OA
ENDBRANCH   6   8
BRANCH   5  11
ATOM     11  O   UNL     1       4.316   3.036  20.389  0.00  0.00    +0.000 OA
BRANCH  11  12
ATOM     12  C   UNL     1       3.033   2.813  20.880  0.00  0.00    +0.000 C 
BRANCH  12  13
ATOM     13  C   UNL     1       2.286   4.041  21.403  0.00  0.00    +0.000 C 
BRANCH  13  14
ATOM     14  C   UNL     1       1.120   4.360  20.436  0.00  0.00    +0.000 C 
BRANCH  14  15
ATOM     15  N   UNL     1       0.417   3.141  20.034  0.00  0.00    +0.000 NA
ATOM     16  H   UNL     1       0.444   3.050  18.993  0.00  0.00    +0.000 HD
ATOM     17  H   UNL     1      -0.582   3.201  20.338  0.00  0.00    +0.000 HD
ENDBRANCH  14  15
ENDBRANCH  13  14
ENDBRANCH  12  13
ENDBRANCH  11  12
ENDBRANCH   5  11
TORSDOF 6
ENDMDL
