MODEL 1
REMARK VINA RESULT:      -8.2      0.000      0.000
REMARK  Name = 
REMARK  13 active torsions:
REMARK  status: ('A' for Active; 'I' for Inactive)
REMARK    1  A    between atoms: C_1  and  C_2
REMARK    2  A    between atoms: C_4  and  C_5
REMARK    3  A    between atoms: C_7  and  O_8
REMARK    4  A    between atoms: O_8  and  C_9
REMARK    5  A    between atoms: C_9  and  C_10
REMARK    6  A    between atoms: C_9  and  C_13
REMARK    7  A    between atoms: C_10  and  O_12
REMARK    8  A    between atoms: C_13  and  C_14
REMARK    9  A    between atoms: C_13  and  C_24
REMARK   10  A    between atoms: C_13  and  C_30
REMARK   11  A    between atoms: C_14  and  O_15
REMARK   12  A    between atoms: O_15  and  C_16
REMARK   13  A    between atoms: C_16  and  C_18
REMARK                            x       y       z     vdW  Elec       q    Type
REMARK                         _______ _______ _______ _____ _____    ______ ____
ROOT
ATOM      1  C   UNL     1       4.103   5.223  17.806  0.00  0.00    +0.000 C 
ENDROOT
BRANCH   1   2
ATOM      2  C   UNL     1       3.484   4.572  19.087  0.00  0.00    +0.000 A 
ATOM      3  C   UNL     1       2.235   4.999  19.584  0.00  0.00    +0.000 A 
ATOM      4  C   UNL     1       1.643   4.394  20.697  0.00  0.00    +0.000 A 
ATOM      5  C   UNL     1       2.301   3.370  21.366  0.00  0.00    +0.000 A 
ATOM      6  C   UNL     1       3.550   2.951  20.923  0.00  0.00    +0.000 A 
ATOM      7  C   UNL     1       4.135   3.545  19.798  0.00  0.00    +0.000 A 
ENDBRANCH   1   2
BRANCH   1   8
ATOM      8  C   UNL     1       5.545   5.792  18.114  0.00  0.00    +0.000 A 
ATOM      9  C   UNL     1       6.369   5.290  19.142  0.00  0.00    +0.000 A 
ATOM     10  C   UNL     1       7.621   5.849  19.417  0.00  0.00    +0.000 A 
ATOM     11  C   UNL     1       8.095   6.914  18.661  0.00  0.00    +0.000 A 
ATOM     12  C   UNL     1       7.325   7.406  17.614  0.00  0.00    +0.000 A 
ATOM     13  C   UNL     1       6.070   6.849  17.339  0.00  0.00    +0.000 A 
ENDBRANCH   1   8
BRANCH   1  14
ATOM     14  C   UNL     1       4.138   4.164  16.626  0.00  0.00    +0.000 C 
BRANCH  14  15
ATOM     15  C   UNL     1       3.398   2.867  16.965  0.00  0.00    +0.000 C 
ATOM     16  O   UNL     1       2.180   2.752  16.975  0.00  0.00    +0.000 OA
BRANCH  15  17
ATOM     17  O   UNL     1       4.213   1.833  17.291  0.00  0.00    +0.000 OA
ATOM     18  H   UNL     1       3.741   0.972  17.246  0.00  0.00    +0.000 HD
ENDBRANCH  15  17
ENDBRANCH  14  15
BRANCH  14  19
ATOM     19  O   UNL     1       5.498   3.821  16.297  0.00  0.00    +0.000 OA
BRANCH  19  26
ATOM     20  C   UNL     1       8.594   5.669  13.294  0.00  0.00    +0.000 C 
ATOM     21  C   UNL     1       7.351   4.859  13.503  0.00  0.00    +0.000 A 
ATOM     22  C   UNL     1       6.638   4.358  12.431  0.00  0.00    +0.000 A 
ATOM     23  C   UNL     1       5.484   3.654  12.729  0.00  0.00    +0.000 A 
ATOM     24  C   UNL     1       4.638   3.080  11.631  0.00  0.00    +0.000 C 
ATOM     25  N   UNL     1       5.071   3.453  14.001  0.00  0.00    +0.000 NA
ATOM     26  C   UNL     1       5.835   3.978  14.965  0.00  0.00    +0.000 A 
ATOM     27  N   UNL     1       6.965   4.668  14.779  0.00  0.00    +0.000 NA
ENDBRANCH  19  26
ENDBRANCH  14  19
ENDBRANCH   1  14
BRANCH   1  28
ATOM     28  C   UNL     1       3.241   6.460  17.346  0.00  0.00    +0.000 C 
BRANCH  28  29
ATOM     29  O   UNL     1       2.975   7.320  18.463  0.00  0.00    +0.000 OA
BRANCH  29  30
ATOM     30  C   UNL     1       2.417   8.521  18.193  0.00  0.00    +0.000 C 
ATOM     31  O   UNL     1       2.450   9.147  17.153  0.00  0.00    +0.000 OA
BRANCH  30  32
ATOM     32  C   UNL     1       1.557   8.839  19.350  0.00  0.00    +0.000 A 
ATOM     33  C   UNL     1       0.559   9.797  19.194  0.00  0.00    +0.000 A 
ATOM     34  C   UNL     1      -0.286  10.011  20.264  0.00  0.00    +0.000 A 
ATOM     35  N   UNL     1      -0.189   9.354  21.442  0.00  0.00    +0.000 NA
ATOM     36  C   UNL     1       0.796   8.436  21.560  0.00  0.00    +0.000 A 
ATOM     37  C   UNL     1       1.686   8.139  20.551  0.00  0.00    +0.000 A 
ENDBRANCH  30  32
ENDBRANCH  29  30
ENDBRANCH  28  29
ENDBRANCH   1  28
TORSDOF 11
ENDMDL
MODEL 2
REMARK VINA RESULT:      -8.2      0.178      1.819
REMARK  Name = 
REMARK  13 active torsions:
REMARK  status: ('A' for Active; 'I' for Inactive)
REMARK    1  A    between atoms: C_1  and  C_2
REMARK    2  A    between atoms: C_4  and  C_5
REMARK    3  A    between atoms: C_7  and  O_8
REMARK    4  A    between atoms: O_8  and  C_9
REMARK    5  A    between atoms: C_9  and  C_10
REMARK    6  A    between atoms: C_9  and  C_13
REMARK    7  A    between atoms: C_10  and  O_12
REMARK    8  A    between atoms: C_13  and  C_14
REMARK    9  A    between atoms: C_13  and  C_24
REMARK   10  A    between atoms: C_13  and  C_30
REMARK   11  A    between atoms: C_14  and  O_15
REMARK   12  A    between atoms: O_15  and  C_16
REMARK   13  A    between atoms: C_16  and  C_18
REMARK                            x       y       z     vdW  Elec       q    Type
REMARK                         _______ _______ _______ _____ _____    ______ ____
ROOT
ATOM      1  C   UNL     1       4.125   5.132  17.839  0.00  0.00    +0.000 C 
ENDROOT
BRANCH   1   2
ATOM      2  C   UNL     1       3.587   4.424  19.126  0.00  0.00    +0.000 A 
ATOM      3  C   UNL     1       2.389   4.847  19.738  0.00  0.00    +0.000 A 
ATOM      4  C   UNL     1       1.867   4.193  20.859  0.00  0.00    +0.000 A 
ATOM      5  C   UNL     1       2.549   3.121  21.420  0.00  0.00    +0.000 A 
ATOM      6  C   UNL     1       3.751   2.704  20.863  0.00  0.00    +0.000 A 
ATOM      7  C   UNL     1       4.264   3.347  19.730  0.00  0.00    +0.000 A 
ENDBRANCH   1   2
BRANCH   1   8
ATOM      8  C   UNL     1       5.525   5.808  18.120  0.00  0.00    +0.000 A 
ATOM      9  C   UNL     1       6.028   6.884  17.361  0.00  0.00    +0.000 A 
ATOM     10  C   UNL     1       7.294   7.428  17.607  0.00  0.00    +0.000 A 
ATOM     11  C   UNL     1       8.086   6.924  18.632  0.00  0.00    +0.000 A 
ATOM     12  C   UNL     1       7.603   5.891  19.425  0.00  0.00    +0.000 A 
ATOM     13  C   UNL     1       6.336   5.344  19.178  0.00  0.00    +0.000 A 
ENDBRANCH   1   8
BRANCH   1  14
ATOM     14  C   UNL     1       4.214   4.089  16.646  0.00  0.00    +0.000 C 
BRANCH  14  15
ATOM     15  C   UNL     1       3.442   2.796  16.925  0.00  0.00    +0.000 C 
ATOM     16  O   UNL     1       2.221   2.711  16.928  0.00  0.00    +0.000 OA
BRANCH  15  17
ATOM     17  O   UNL     1       4.231   1.729  17.204  0.00  0.00    +0.000 OA
ATOM     18  H   UNL     1       5.062   2.000  17.652  0.00  0.00    +0.000 HD
ENDBRANCH  15  17
ENDBRANCH  14  15
BRANCH  14  19
ATOM     19  O   UNL     1       5.586   3.736  16.388  0.00  0.00    +0.000 OA
BRANCH  19  26
ATOM     20  C   UNL     1       4.741   3.102  11.816  0.00  0.00    +0.000 C 
ATOM     21  C   UNL     1       5.606   3.709  12.879  0.00  0.00    +0.000 A 
ATOM     22  C   UNL     1       6.733   4.436  12.551  0.00  0.00    +0.000 A 
ATOM     23  C   UNL     1       7.484   4.924  13.606  0.00  0.00    +0.000 A 
ATOM     24  C   UNL     1       8.732   5.717  13.349  0.00  0.00    +0.000 C 
ATOM     25  N   UNL     1       7.137   4.713  14.895  0.00  0.00    +0.000 NA
ATOM     26  C   UNL     1       6.026   3.998  15.104  0.00  0.00    +0.000 A 
ATOM     27  N   UNL     1       5.234   3.489  14.155  0.00  0.00    +0.000 NA
ENDBRANCH  19  26
ENDBRANCH  14  19
ENDBRANCH   1  14
BRANCH   1  28
ATOM     28  C   UNL     1       3.160   6.303  17.411  0.00  0.00    +0.000 C 
BRANCH  28  29
ATOM     29  O   UNL     1       3.110   7.303  18.440  0.00  0.00    +0.000 OA
BRANCH  29  30
ATOM     30  C   UNL     1       2.484   8.461  18.139  0.00  0.00    +0.000 C 
ATOM     31  O   UNL     1       2.505   9.077  17.092  0.00  0.00    +0.000 OA
BRANCH  30  32
ATOM     32  C   UNL     1       1.573   8.736  19.268  0.00  0.00    +0.000 A 
ATOM     33  C   UNL     1       1.741   8.018  20.448  0.00  0.00    +0.000 A 
ATOM     34  C   UNL     1       0.934   8.355  21.516  0.00  0.00    +0.000 A 
ATOM     35  N   UNL     1      -0.006   9.327  21.469  0.00  0.00    +0.000 NA
ATOM     36  C   UNL     1      -0.146   9.999  20.305  0.00  0.00    +0.000 A 
ATOM     37  C   UNL     1       0.615   9.748  19.184  0.00  0.00    +0.000 A 
ENDBRANCH  30  32
ENDBRANCH  29  30
ENDBRANCH  28  29
ENDBRANCH   1  28
TORSDOF 11
ENDMDL
MODEL 3
REMARK VINA RESULT:      -8.0      0.255      1.397
REMARK  Name = 
REMARK  13 active torsions:
REMARK  status: ('A' for Active; 'I' for Inactive)
REMARK    1  A    between atoms: C_1  and  C_2
REMARK    2  A    between atoms: C_4  and  C_5
REMARK    3  A    between atoms: C_7  and  O_8
REMARK    4  A    between atoms: O_8  and  C_9
REMARK    5  A    between atoms: C_9  and  C_10
REMARK    6  A    between atoms: C_9  and  C_13
REMARK    7  A    between atoms: C_10  and  O_12
REMARK    8  A    between atoms: C_13  and  C_14
REMARK    9  A    between atoms: C_13  and  C_24
REMARK   10  A    between atoms: C_13  and  C_30
REMARK   11  A    between atoms: C_14  and  O_15
REMARK   12  A    between atoms: O_15  and  C_16
REMARK   13  A    between atoms: C_16  and  C_18
REMARK                            x       y       z     vdW  Elec       q    Type
REMARK                         _______ _______ _______ _____ _____    ______ ____
ROOT
ATOM      1  C   UNL     1       4.168   5.445  17.735  0.00  0.00    +0.000 C 
ENDROOT
BRANCH   1   2
ATOM      2  C   UNL     1       3.440   4.792  18.955  0.00  0.00    +0.000 A 
ATOM      3  C   UNL     1       4.108   3.869  19.787  0.00  0.00    +0.000 A 
ATOM      4  C   UNL     1       3.489   3.315  20.911  0.00  0.00    +0.000 A 
ATOM      5  C   UNL     1       2.172   3.639  21.214  0.00  0.00    +0.000 A 
ATOM      6  C   UNL     1       1.475   4.516  20.392  0.00  0.00    +0.000 A 
ATOM      7  C   UNL     1       2.101   5.085  19.276  0.00  0.00    +0.000 A 
ENDBRANCH   1   2
BRANCH   1   8
ATOM      8  C   UNL     1       5.613   5.937  18.147  0.00  0.00    +0.000 A 
ATOM      9  C   UNL     1       6.298   6.968  17.473  0.00  0.00    +0.000 A 
ATOM     10  C   UNL     1       7.595   7.346  17.835  0.00  0.00    +0.000 A 
ATOM     11  C   UNL     1       8.239   6.717  18.894  0.00  0.00    +0.000 A 
ATOM     12  C   UNL     1       7.576   5.724  19.605  0.00  0.00    +0.000 A 
ATOM     13  C   UNL     1       6.277   5.343  19.242  0.00  0.00    +0.000 A 
ENDBRANCH   1   8
BRANCH   1  14
ATOM     14  C   UNL     1       4.229   4.417  16.528  0.00  0.00    +0.000 C 
BRANCH  14  15
ATOM     15  C   UNL     1       3.486   3.110  16.820  0.00  0.00    +0.000 C 
ATOM     16  O   UNL     1       2.275   2.970  16.719  0.00  0.00    +0.000 OA
BRANCH  15  17
ATOM     17  O   UNL     1       4.287   2.098  17.236  0.00  0.00    +0.000 OA
ATOM     18  H   UNL     1       3.974   1.228  16.905  0.00  0.00    +0.000 HD
ENDBRANCH  15  17
ENDBRANCH  14  15
BRANCH  14  19
ATOM     19  O   UNL     1       5.596   4.086  16.217  0.00  0.00    +0.000 OA
BRANCH  19  26
ATOM     20  C   UNL     1       8.624   5.805  13.071  0.00  0.00    +0.000 C 
ATOM     21  C   UNL     1       7.407   4.975  13.345  0.00  0.00    +0.000 A 
ATOM     22  C   UNL     1       6.706   4.376  12.316  0.00  0.00    +0.000 A 
ATOM     23  C   UNL     1       5.576   3.661  12.670  0.00  0.00    +0.000 A 
ATOM     24  C   UNL     1       4.744   2.983  11.621  0.00  0.00    +0.000 C 
ATOM     25  N   UNL     1       5.173   3.540  13.956  0.00  0.00    +0.000 NA
ATOM     26  C   UNL     1       5.924   4.157  14.875  0.00  0.00    +0.000 A 
ATOM     27  N   UNL     1       7.031   4.866  14.634  0.00  0.00    +0.000 NA
ENDBRANCH  19  26
ENDBRANCH  14  19
ENDBRANCH   1  14
BRANCH   1  28
ATOM     28  C   UNL     1       3.396   6.734  17.257  0.00  0.00    +0.000 C 
BRANCH  28  29
ATOM     29  O   UNL     1       2.974   7.505  18.392  0.00  0.00    +0.000 OA
BRANCH  29  30
ATOM     30  C   UNL     1       2.311   8.655  18.139  0.00  0.00    +0.000 C 
ATOM     31  O   UNL     1       2.265   9.283  17.101  0.00  0.00    +0.000 OA
BRANCH  30  32
ATOM     32  C   UNL     1       1.455   8.898  19.318  0.00  0.00    +0.000 A 
ATOM     33  C   UNL     1       1.696   8.167  20.478  0.00  0.00    +0.000 A 
ATOM     34  C   UNL     1       0.940   8.475  21.590  0.00  0.00    +0.000 A 
ATOM     35  N   UNL     1      -0.017   9.430  21.606  0.00  0.00    +0.000 NA
ATOM     36  C   UNL     1      -0.230  10.115  20.460  0.00  0.00    +0.000 A 
ATOM     37  C   UNL     1       0.477   9.893  19.299  0.00  0.00    +0.000 A 
ENDBRANCH  30  32
ENDBRANCH  29  30
ENDBRANCH  28  29
ENDBRANCH   1  28
TORSDOF 11
ENDMDL
MODEL 4
REMARK VINA RESULT:      -8.0      0.296      1.649
REMARK  Name = 
REMARK  13 active torsions:
REMARK  status: ('A' for Active; 'I' for Inactive)
REMARK    1  A    between atoms: C_1  and  C_2
REMARK    2  A    between atoms: C_4  and  C_5
REMARK    3  A    between atoms: C_7  and  O_8
REMARK    4  A    between atoms: O_8  and  C_9
REMARK    5  A    between atoms: C_9  and  C_10
REMARK    6  A    between atoms: C_9  and  C_13
REMARK    7  A    between atoms: C_10  and  O_12
REMARK    8  A    between atoms: C_13  and  C_14
REMARK    9  A    between atoms: C_13  and  C_24
REMARK   10  A    between atoms: C_13  and  C_30
REMARK   11  A    between atoms: C_14  and  O_15
REMARK   12  A    between atoms: O_15  and  C_16
REMARK   13  A    between atoms: C_16  and  C_18
REMARK                            x       y       z     vdW  Elec       q    Type
REMARK                         _______ _______ _______ _____ _____    ______ ____
ROOT
ATOM      1  C   UNL     1       4.262   5.424  17.718  0.00  0.00    +0.000 C 
ENDROOT
BRANCH   1   2
ATOM      2  C   UNL     1       3.506   4.781  18.927  0.00  0.00    +0.000 A 
ATOM      3  C   UNL     1       4.169   3.907  19.814  0.00  0.00    +0.000 A 
ATOM      4  C   UNL     1       3.522   3.364  20.928  0.00  0.00    +0.000 A 
ATOM      5  C   UNL     1       2.185   3.650  21.166  0.00  0.00    +0.000 A 
ATOM      6  C   UNL     1       1.493   4.478  20.291  0.00  0.00    +0.000 A 
ATOM      7  C   UNL     1       2.145   5.036  19.184  0.00  0.00    +0.000 A 
ENDBRANCH   1   2
BRANCH   1   8
ATOM      8  C   UNL     1       5.705   5.899  18.154  0.00  0.00    +0.000 A 
ATOM      9  C   UNL     1       6.419   5.316  19.221  0.00  0.00    +0.000 A 
ATOM     10  C   UNL     1       7.675   5.793  19.611  0.00  0.00    +0.000 A 
ATOM     11  C   UNL     1       8.263   6.855  18.933  0.00  0.00    +0.000 A 
ATOM     12  C   UNL     1       7.604   7.425  17.852  0.00  0.00    +0.000 A 
ATOM     13  C   UNL     1       6.345   6.950  17.461  0.00  0.00    +0.000 A 
ENDBRANCH   1   8
BRANCH   1  14
ATOM     14  C   UNL     1       4.332   4.393  16.514  0.00  0.00    +0.000 C 
BRANCH  14  15
ATOM     15  C   UNL     1       3.522   3.119  16.772  0.00  0.00    +0.000 C 
ATOM     16  O   UNL     1       2.315   3.023  16.596  0.00  0.00    +0.000 OA
BRANCH  15  17
ATOM     17  O   UNL     1       4.255   2.083  17.251  0.00  0.00    +0.000 OA
ATOM     18  H   UNL     1       4.509   2.223  18.190  0.00  0.00    +0.000 HD
ENDBRANCH  15  17
ENDBRANCH  14  15
BRANCH  14  19
ATOM     19  O   UNL     1       5.696   4.003  16.262  0.00  0.00    +0.000 OA
BRANCH  19  26
ATOM     20  C   UNL     1       4.890   2.937  11.765  0.00  0.00    +0.000 C 
ATOM     21  C   UNL     1       5.720   3.678  12.768  0.00  0.00    +0.000 A 
ATOM     22  C   UNL     1       6.808   4.432  12.375  0.00  0.00    +0.000 A 
ATOM     23  C   UNL     1       7.532   5.048  13.382  0.00  0.00    +0.000 A 
ATOM     24  C   UNL     1       8.736   5.880  13.054  0.00  0.00    +0.000 C 
ATOM     25  N   UNL     1       7.194   4.930  14.686  0.00  0.00    +0.000 NA
ATOM     26  C   UNL     1       6.122   4.178  14.959  0.00  0.00    +0.000 A 
ATOM     27  N   UNL     1       5.359   3.549  14.060  0.00  0.00    +0.000 NA
ENDBRANCH  19  26
ENDBRANCH  14  19
ENDBRANCH   1  14
BRANCH   1  28
ATOM     28  C   UNL     1       3.513   6.720  17.226  0.00  0.00    +0.000 C 
BRANCH  28  29
ATOM     29  O   UNL     1       3.138   7.531  18.350  0.00  0.00    +0.000 OA
BRANCH  29  30
ATOM     30  C   UNL     1       2.392   8.627  18.093  0.00  0.00    +0.000 C 
ATOM     31  O   UNL     1       2.259   9.215  17.038  0.00  0.00    +0.000 OA
BRANCH  30  32
ATOM     32  C   UNL     1       1.577   8.857  19.302  0.00  0.00    +0.000 A 
ATOM     33  C   UNL     1       0.584   9.832  19.261  0.00  0.00    +0.000 A 
ATOM     34  C   UNL     1      -0.220   9.966  20.374  0.00  0.00    +0.000 A 
ATOM     35  N   UNL     1      -0.087   9.215  21.491  0.00  0.00    +0.000 NA
ATOM     36  C   UNL     1       0.892   8.283  21.499  0.00  0.00    +0.000 A 
ATOM     37  C   UNL     1       1.741   8.062  20.437  0.00  0.00    +0.000 A 
ENDBRANCH  30  32
ENDBRANCH  29  30
ENDBRANCH  28  29
ENDBRANCH   1  28
TORSDOF 11
ENDMDL
MODEL 5
REMARK VINA RESULT:      -7.8      4.172      8.596
REMARK  Name = 
REMARK  13 active torsions:
REMARK  status: ('A' for Active; 'I' for Inactive)
REMARK    1  A    between atoms: C_1  and  C_2
REMARK    2  A    between atoms: C_4  and  C_5
REMARK    3  A    between atoms: C_7  and  O_8
REMARK    4  A    between atoms: O_8  and  C_9
REMARK    5  A    between atoms: C_9  and  C_10
REMARK    6  A    between atoms: C_9  and  C_13
REMARK    7  A    between atoms: C_10  and  O_12
REMARK    8  A    between atoms: C_13  and  C_14
REMARK    9  A    between atoms: C_13  and  C_24
REMARK   10  A    between atoms: C_13  and  C_30
REMARK   11  A    between atoms: C_14  and  O_15
REMARK   12  A    between atoms: O_15  and  C_16
REMARK   13  A    between atoms: C_16  and  C_18
REMARK                            x       y       z     vdW  Elec       q    Type
REMARK                         _______ _______ _______ _____ _____    ______ ____
ROOT
ATOM      1  C   UNL     1      -0.577  10.920  20.144  0.00  0.00    +0.000 C 
ENDROOT
BRANCH   1   2
ATOM      2  C   UNL     1       0.536  11.985  19.872  0.00  0.00    +0.000 A 
ATOM      3  C   UNL     1       0.704  12.545  18.589  0.00  0.00    +0.000 A 
ATOM      4  C   UNL     1       1.659  13.535  18.341  0.00  0.00    +0.000 A 
ATOM      5  C   UNL     1       2.497  13.967  19.360  0.00  0.00    +0.000 A 
ATOM      6  C   UNL     1       2.381  13.409  20.627  0.00  0.00    +0.000 A 
ATOM      7  C   UNL     1       1.413  12.430  20.881  0.00  0.00    +0.000 A 
ENDBRANCH   1   2
BRANCH   1   8
ATOM      8  C   UNL     1      -1.554  10.809  18.907  0.00  0.00    +0.000 A 
ATOM      9  C   UNL     1      -1.319   9.952  17.813  0.00  0.00    +0.000 A 
ATOM     10  C   UNL     1      -2.182   9.914  16.712  0.00  0.00    +0.000 A 
ATOM     11  C   UNL     1      -3.315  10.718  16.681  0.00  0.00    +0.000 A 
ATOM     12  C   UNL     1      -3.597  11.544  17.762  0.00  0.00    +0.000 A 
ATOM     13  C   UNL     1      -2.733  11.585  18.864  0.00  0.00    +0.000 A 
ENDBRANCH   1   8
BRANCH   1  14
ATOM     14  C   UNL     1       0.088   9.520  20.484  0.00  0.00    +0.000 C 
BRANCH  14  15
ATOM     15  C   UNL     1       0.140   9.233  21.987  0.00  0.00    +0.000 C 
ATOM     16  O   UNL     1       0.955   9.730  22.754  0.00  0.00    +0.000 OA
BRANCH  15  17
ATOM     17  O   UNL     1      -0.789   8.344  22.415  0.00  0.00    +0.000 OA
ATOM     18  H   UNL     1      -1.702   8.682  22.285  0.00  0.00    +0.000 HD
ENDBRANCH  15  17
ENDBRANCH  14  15
BRANCH  14  19
ATOM     19  O   UNL     1       1.436   9.466  19.979  0.00  0.00    +0.000 OA
BRANCH  19  26
ATOM     20  C   UNL     1       3.962   6.913  16.960  0.00  0.00    +0.000 C 
ATOM     21  C   UNL     1       3.138   6.958  18.211  0.00  0.00    +0.000 A 
ATOM     22  C   UNL     1       2.876   5.811  18.933  0.00  0.00    +0.000 A 
ATOM     23  C   UNL     1       2.076   5.953  20.053  0.00  0.00    +0.000 A 
ATOM     24  C   UNL     1       1.728   4.762  20.896  0.00  0.00    +0.000 C 
ATOM     25  N   UNL     1       1.577   7.151  20.434  0.00  0.00    +0.000 NA
ATOM     26  C   UNL     1       1.893   8.199  19.666  0.00  0.00    +0.000 A 
ATOM     27  N   UNL     1       2.659   8.164  18.572  0.00  0.00    +0.000 NA
ENDBRANCH  19  26
ENDBRANCH  14  19
ENDBRANCH   1  14
BRANCH   1  28
ATOM     28  C   UNL     1      -1.474  11.359  21.364  0.00  0.00    +0.000 C 
BRANCH  28  29
ATOM     29  O   UNL     1      -1.557  12.790  21.426  0.00  0.00    +0.000 OA
BRANCH  29  30
ATOM     30  C   UNL     1      -1.758  13.340  22.644  0.00  0.00    +0.000 C 
ATOM     31  O   UNL     1      -0.996  14.030  23.291  0.00  0.00    +0.000 OA
BRANCH  30  32
ATOM     32  C   UNL     1      -3.185  13.127  22.955  0.00  0.00    +0.000 A 
ATOM     33  C   UNL     1      -4.120  13.295  21.938  0.00  0.00    +0.000 A 
ATOM     34  C   UNL     1      -5.437  13.005  22.233  0.00  0.00    +0.000 A 
ATOM     35  N   UNL     1      -5.859  12.582  23.447  0.00  0.00    +0.000 NA
ATOM     36  C   UNL     1      -4.925  12.437  24.412  0.00  0.00    +0.000 A 
ATOM     37  C   UNL     1      -3.584  12.690  24.219  0.00  0.00    +0.000 A 
ENDBRANCH  30  32
ENDBRANCH  29  30
ENDBRANCH  28  29
ENDBRANCH   1  28
TORSDOF 11
ENDMDL
MODEL 6
REMARK VINA RESULT:      -7.8      5.404     11.555
REMARK  Name = 
REMARK  13 active torsions:
REMARK  status: ('A' for Active; 'I' for Inactive)
REMARK    1  A    between atoms: C_1  and  C_2
REMARK    2  A    between atoms: C_4  and  C_5
REMARK    3  A    between atoms: C_7  and  O_8
REMARK    4  A    between atoms: O_8  and  C_9
REMARK    5  A    between atoms: C_9  and  C_10
REMARK    6  A    between atoms: C_9  and  C_13
REMARK    7  A    between atoms: C_10  and  O_12
REMARK    8  A    between atoms: C_13  and  C_14
REMARK    9  A    between atoms: C_13  and  C_24
REMARK   10  A    between atoms: C_13  and  C_30
REMARK   11  A    between atoms: C_14  and  O_15
REMARK   12  A    between atoms: O_15  and  C_16
REMARK   13  A    between atoms: C_16  and  C_18
REMARK                            x       y       z     vdW  Elec       q    Type
REMARK                         _______ _______ _______ _____ _____    ______ ____
ROOT
ATOM      1  C   UNL     1      -1.318  12.157  20.179  0.00  0.00    +0.000 C 
ENDROOT
BRANCH   1   2
ATOM      2  C   UNL     1      -1.973  11.439  18.954  0.00  0.00    +0.000 A 
ATOM      3  C   UNL     1      -1.223  10.557  18.147  0.00  0.00    +0.000 A 
ATOM      4  C   UNL     1      -1.806   9.867  17.079  0.00  0.00    +0.000 A 
ATOM      5  C   UNL     1      -3.143  10.068  16.765  0.00  0.00    +0.000 A 
ATOM      6  C   UNL     1      -3.899  10.959  17.518  0.00  0.00    +0.000 A 
ATOM      7  C   UNL     1      -3.321  11.636  18.599  0.00  0.00    +0.000 A 
ENDBRANCH   1   2
BRANCH   1   8
ATOM      8  C   UNL     1       0.091  12.755  19.786  0.00  0.00    +0.000 A 
ATOM      9  C   UNL     1       0.403  13.201  18.485  0.00  0.00    +0.000 A 
ATOM     10  C   UNL     1       1.677  13.681  18.161  0.00  0.00    +0.000 A 
ATOM     11  C   UNL     1       2.670  13.747  19.130  0.00  0.00    +0.000 A 
ATOM     12  C   UNL     1       2.383  13.353  20.431  0.00  0.00    +0.000 A 
ATOM     13  C   UNL     1       1.108  12.870  20.758  0.00  0.00    +0.000 A 
ENDBRANCH   1   8
BRANCH   1  14
ATOM     14  C   UNL     1      -2.292  13.283  20.729  0.00  0.00    +0.000 C 
BRANCH  14  15
ATOM     15  C   UNL     1      -1.602  14.641  20.892  0.00  0.00    +0.000 C 
ATOM     16  O   UNL     1      -1.015  14.996  21.906  0.00  0.00    +0.000 OA
BRANCH  15  17
ATOM     17  O   UNL     1      -1.716  15.454  19.814  0.00  0.00    +0.000 OA
ATOM     18  H   UNL     1      -2.655  15.600  19.567  0.00  0.00    +0.000 HD
ENDBRANCH  15  17
ENDBRANCH  14  15
BRANCH  14  19
ATOM     19  O   UNL     1      -2.827  12.904  22.011  0.00  0.00    +0.000 OA
BRANCH  19  26
ATOM     20  C   UNL     1      -7.273  11.713  21.099  0.00  0.00    +0.000 C 
ATOM     21  C   UNL     1      -6.320  12.644  21.785  0.00  0.00    +0.000 A 
ATOM     22  C   UNL     1      -6.778  13.722  22.516  0.00  0.00    +0.000 A 
ATOM     23  C   UNL     1      -5.816  14.542  23.080  0.00  0.00    +0.000 A 
ATOM     24  C   UNL     1      -6.217  15.744  23.884  0.00  0.00    +0.000 C 
ATOM     25  N   UNL     1      -4.493  14.305  22.935  0.00  0.00    +0.000 NA
ATOM     26  C   UNL     1      -4.156  13.233  22.210  0.00  0.00    +0.000 A 
ATOM     27  N   UNL     1      -5.008  12.382  21.630  0.00  0.00    +0.000 NA
ENDBRANCH  19  26
ENDBRANCH  14  19
ENDBRANCH   1  14
BRANCH   1  28
ATOM     28  C   UNL     1      -1.039  11.126  21.339  0.00  0.00    +0.000 C 
BRANCH  28  29
ATOM     29  O   UNL     1      -0.466   9.924  20.803  0.00  0.00    +0.000 OA
BRANCH  29  30
ATOM     30  C   UNL     1       0.678   9.485  21.371  0.00  0.00    +0.000 C 
ATOM     31  O   UNL     1       1.006   9.538  22.539  0.00  0.00    +0.000 OA
BRANCH  30  32
ATOM     32  C   UNL     1       1.380   8.712  20.326  0.00  0.00    +0.000 A 
ATOM     33  C   UNL     1       1.769   7.407  20.613  0.00  0.00    +0.000 A 
ATOM     34  C   UNL     1       2.344   6.678  19.591  0.00  0.00    +0.000 A 
ATOM     35  N   UNL     1       2.555   7.166  18.347  0.00  0.00    +0.000 NA
ATOM     36  C   UNL     1       2.171   8.439  18.107  0.00  0.00    +0.000 A 
ATOM     37  C   UNL     1       1.579   9.247  19.053  0.00  0.00    +0.000 A 
ENDBRANCH  30  32
ENDBRANCH  29  30
ENDBRANCH  28  29
ENDBRANCH   1  28
TORSDOF 11
ENDMDL
MODEL 7
REMARK VINA RESULT:      -7.7      7.951     10.670
REMARK  Name = 
REMARK  13 active torsions:
REMARK  status: ('A' for Active; 'I' for Inactive)
REMARK    1  A    between atoms: C_1  and  C_2
REMARK    2  A    between atoms: C_4  and  C_5
REMARK    3  A    between atoms: C_7  and  O_8
REMARK    4  A    between atoms: O_8  and  C_9
REMARK    5  A    between atoms: C_9  and  C_10
REMARK    6  A    between atoms: C_9  and  C_13
REMARK    7  A    between atoms: C_10  and  O_12
REMARK    8  A    between atoms: C_13  and  C_14
REMARK    9  A    between atoms: C_13  and  C_24
REMARK   10  A    between atoms: C_13  and  C_30
REMARK   11  A    between atoms: C_14  and  O_15
REMARK   12  A    between atoms: O_15  and  C_16
REMARK   13  A    between atoms: C_16  and  C_18
REMARK                            x       y       z     vdW  Elec       q    Type
REMARK                         _______ _______ _______ _____ _____    ______ ____
ROOT
ATOM      1  C   UNL     1      -1.393  12.120  19.658  0.00  0.00    +0.000 C 
ENDROOT
BRANCH   1   2
ATOM      2  C   UNL     1      -2.039  11.355  18.456  0.00  0.00    +0.000 A 
ATOM      3  C   UNL     1      -1.921  11.845  17.139  0.00  0.00    +0.000 A 
ATOM      4  C   UNL     1      -2.447  11.147  16.048  0.00  0.00    +0.000 A 
ATOM      5  C   UNL     1      -3.138   9.959  16.247  0.00  0.00    +0.000 A 
ATOM      6  C   UNL     1      -3.303   9.469  17.536  0.00  0.00    +0.000 A 
ATOM      7  C   UNL     1      -2.761  10.158  18.628  0.00  0.00    +0.000 A 
ENDBRANCH   1   2
BRANCH   1   8
ATOM      8  C   UNL     1      -0.961  11.110  20.793  0.00  0.00    +0.000 A 
ATOM      9  C   UNL     1      -0.418   9.836  20.526  0.00  0.00    +0.000 A 
ATOM     10  C   UNL     1      -0.089   8.947  21.555  0.00  0.00    +0.000 A 
ATOM     11  C   UNL     1      -0.277   9.312  22.882  0.00  0.00    +0.000 A 
ATOM     12  C   UNL     1      -0.772  10.575  23.182  0.00  0.00    +0.000 A 
ATOM     13  C   UNL     1      -1.103  11.466  22.152  0.00  0.00    +0.000 A 
ENDBRANCH   1   8
BRANCH   1  14
ATOM     14  C   UNL     1      -0.162  12.983  19.151  0.00  0.00    +0.000 C 
BRANCH  14  15
ATOM     15  C   UNL     1       1.167  12.227  19.226  0.00  0.00    +0.000 C 
ATOM     16  O   UNL     1       1.543  11.412  18.394  0.00  0.00    +0.000 OA
BRANCH  15  17
ATOM     17  O   UNL     1       1.907  12.512  20.326  0.00  0.00    +0.000 OA
ATOM     18  H   UNL     1       2.869  12.436  20.146  0.00  0.00    +0.000 HD
ENDBRANCH  15  17
ENDBRANCH  14  15
BRANCH  14  19
ATOM     19  O   UNL     1      -0.030  14.183  19.937  0.00  0.00    +0.000 OA
BRANCH  19  26
ATOM     20  C   UNL     1       3.574  16.527  18.057  0.00  0.00    +0.000 C 
ATOM     21  C   UNL     1       2.097  16.440  18.294  0.00  0.00    +0.000 A 
ATOM     22  C   UNL     1       1.243  17.427  17.842  0.00  0.00    +0.000 A 
ATOM     23  C   UNL     1      -0.099  17.271  18.144  0.00  0.00    +0.000 A 
ATOM     24  C   UNL     1      -1.102  18.297  17.703  0.00  0.00    +0.000 C 
ATOM     25  N   UNL     1      -0.562  16.207  18.838  0.00  0.00    +0.000 NA
ATOM     26  C   UNL     1       0.348  15.308  19.227  0.00  0.00    +0.000 A 
ATOM     27  N   UNL     1       1.661  15.368  18.983  0.00  0.00    +0.000 NA
ENDBRANCH  19  26
ENDBRANCH  14  19
ENDBRANCH   1  14
BRANCH   1  28
ATOM     28  C   UNL     1      -2.445  13.089  20.323  0.00  0.00    +0.000 C 
BRANCH  28  29
ATOM     29  O   UNL     1      -3.769  12.766  19.871  0.00  0.00    +0.000 OA
BRANCH  29  30
ATOM     30  C   UNL     1      -4.791  13.448  20.432  0.00  0.00    +0.000 C 
ATOM     31  O   UNL     1      -4.931  14.651  20.525  0.00  0.00    +0.000 OA
BRANCH  30  32
ATOM     32  C   UNL     1      -5.836  12.446  20.723  0.00  0.00    +0.000 A 
ATOM     33  C   UNL     1      -6.619  12.613  21.861  0.00  0.00    +0.000 A 
ATOM     34  C   UNL     1      -7.645  11.712  22.063  0.00  0.00    +0.000 A 
ATOM     35  N   UNL     1      -7.916  10.683  21.227  0.00  0.00    +0.000 NA
ATOM     36  C   UNL     1      -7.130  10.547  20.136  0.00  0.00    +0.000 A 
ATOM     37  C   UNL     1      -6.088  11.398  19.837  0.00  0.00    +0.000 A 
ENDBRANCH  30  32
ENDBRANCH  29  30
ENDBRANCH  28  29
ENDBRANCH   1  28
TORSDOF 11
ENDMDL
MODEL 8
REMARK VINA RESULT:      -7.7      8.465     11.888
REMARK  Name = 
REMARK  13 active torsions:
REMARK  status: ('A' for Active; 'I' for Inactive)
REMARK    1  A    between atoms: C_1  and  C_2
REMARK    2  A    between atoms: C_4  and  C_5
REMARK    3  A    between atoms: C_7  and  O_8
REMARK    4  A    between atoms: O_8  and  C_9
REMARK    5  A    between atoms: C_9  and  C_10
REMARK    6  A    between atoms: C_9  and  C_13
REMARK    7  A    between atoms: C_10  and  O_12
REMARK    8  A    between atoms: C_13  and  C_14
REMARK    9  A    between atoms: C_13  and  C_24
REMARK   10  A    between atoms: C_13  and  C_30
REMARK   11  A    between atoms: C_14  and  O_15
REMARK   12  A    between atoms: O_15  and  C_16
REMARK   13  A    between atoms: C_16  and  C_18
REMARK                            x       y       z     vdW  Elec       q    Type
REMARK                         _______ _______ _______ _____ _____    ______ ____
ROOT
ATOM      1  C   UNL     1      -1.056  12.233  19.901  0.00  0.00    +0.000 C 
ENDROOT
BRANCH   1   2
ATOM      2  C   UNL     1       0.208  13.147  19.772  0.00  0.00    +0.000 A 
ATOM      3  C   UNL     1       0.334  14.059  18.704  0.00  0.00    +0.000 A 
ATOM      4  C   UNL     1       1.432  14.919  18.601  0.00  0.00    +0.000 A 
ATOM      5  C   UNL     1       2.452  14.864  19.542  0.00  0.00    +0.000 A 
ATOM      6  C   UNL     1       2.374  13.949  20.586  0.00  0.00    +0.000 A 
ATOM      7  C   UNL     1       1.267  13.101  20.699  0.00  0.00    +0.000 A 
ENDBRANCH   1   2
BRANCH   1   8
ATOM      8  C   UNL     1      -0.807  11.087  20.960  0.00  0.00    +0.000 A 
ATOM      9  C   UNL     1      -0.972  11.270  22.349  0.00  0.00    +0.000 A 
ATOM     10  C   UNL     1      -0.698  10.247  23.262  0.00  0.00    +0.000 A 
ATOM     11  C   UNL     1      -0.267   9.004  22.813  0.00  0.00    +0.000 A 
ATOM     12  C   UNL     1      -0.133   8.778  21.449  0.00  0.00    +0.000 A 
ATOM     13  C   UNL     1      -0.406   9.802  20.533  0.00  0.00    +0.000 A 
ENDBRANCH   1   8
BRANCH   1  14
ATOM     14  C   UNL     1      -2.320  13.112  20.285  0.00  0.00    +0.000 C 
BRANCH  14  15
ATOM     15  C   UNL     1      -1.947  14.416  20.995  0.00  0.00    +0.000 C 
ATOM     16  O   UNL     1      -1.494  14.477  22.130  0.00  0.00    +0.000 OA
BRANCH  15  17
ATOM     17  O   UNL     1      -2.187  15.533  20.264  0.00  0.00    +0.000 OA
ATOM     18  H   UNL     1      -2.904  15.390  19.608  0.00  0.00    +0.000 HD
ENDBRANCH  15  17
ENDBRANCH  14  15
BRANCH  14  19
ATOM     19  O   UNL     1      -3.200  12.374  21.155  0.00  0.00    +0.000 OA
BRANCH  19  26
ATOM     20  C   UNL     1      -6.252  15.483  19.412  0.00  0.00    +0.000 C 
ATOM     21  C   UNL     1      -5.988  14.350  20.356  0.00  0.00    +0.000 A 
ATOM     22  C   UNL     1      -6.976  13.881  21.199  0.00  0.00    +0.000 A 
ATOM     23  C   UNL     1      -6.622  12.856  22.059  0.00  0.00    +0.000 A 
ATOM     24  C   UNL     1      -7.625  12.287  23.019  0.00  0.00    +0.000 C 
ATOM     25  N   UNL     1      -5.378  12.327  22.075  0.00  0.00    +0.000 NA
ATOM     26  C   UNL     1      -4.496  12.852  21.217  0.00  0.00    +0.000 A 
ATOM     27  N   UNL     1      -4.743  13.838  20.348  0.00  0.00    +0.000 NA
ENDBRANCH  19  26
ENDBRANCH  14  19
ENDBRANCH   1  14
BRANCH   1  28
ATOM     28  C   UNL     1      -1.349  11.501  18.536  0.00  0.00    +0.000 C 
BRANCH  28  29
ATOM     29  O   UNL     1      -2.592  11.963  17.985  0.00  0.00    +0.000 OA
BRANCH  29  30
ATOM     30  C   UNL     1      -3.341  11.056  17.321  0.00  0.00    +0.000 C 
ATOM     31  O   UNL     1      -2.967  10.083  16.697  0.00  0.00    +0.000 OA
BRANCH  30  32
ATOM     32  C   UNL     1      -4.743  11.345  17.682  0.00  0.00    +0.000 A 
ATOM     33  C   UNL     1      -5.413  12.355  16.997  0.00  0.00    +0.000 A 
ATOM     34  C   UNL     1      -6.747  12.546  17.294  0.00  0.00    +0.000 A 
ATOM     35  N   UNL     1      -7.424  11.818  18.211  0.00  0.00    +0.000 NA
ATOM     36  C   UNL     1      -6.741  10.850  18.862  0.00  0.00    +0.000 A 
ATOM     37  C   UNL     1      -5.411  10.572  18.633  0.00  0.00    +0.000 A 
ENDBRANCH  30  32
ENDBRANCH  29  30
ENDBRANCH  28  29
ENDBRANCH   1  28
TORSDOF 11
ENDMDL
MODEL 9
REMARK VINA RESULT:      -7.7      8.060     11.300
REMARK  Name = 
REMARK  13 active torsions:
REMARK  status: ('A' for Active; 'I' for Inactive)
REMARK    1  A    between atoms: C_1  and  C_2
REMARK    2  A    between atoms: C_4  and  C_5
REMARK    3  A    between atoms: C_7  and  O_8
REMARK    4  A    between atoms: O_8  and  C_9
REMARK    5  A    between atoms: C_9  and  C_10
REMARK    6  A    between atoms: C_9  and  C_13
REMARK    7  A    between atoms: C_10  and  O_12
REMARK    8  A    between atoms: C_13  and  C_14
REMARK    9  A    between atoms: C_13  and  C_24
REMARK   10  A    between atoms: C_13  and  C_30
REMARK   11  A    between atoms: C_14  and  O_15
REMARK   12  A    between atoms: O_15  and  C_16
REMARK   13  A    between atoms: C_16  and  C_18
REMARK                            x       y       z     vdW  Elec       q    Type
REMARK                         _______ _______ _______ _____ _____    ______ ____
ROOT
ATOM      1  C   UNL     1      -1.111  13.104  21.683  0.00  0.00    +0.000 C 
ENDROOT
BRANCH   1   2
ATOM      2  C   UNL     1      -1.753  13.630  23.009  0.00  0.00    +0.000 A 
ATOM      3  C   UNL     1      -1.110  14.620  23.782  0.00  0.00    +0.000 A 
ATOM      4  C   UNL     1      -1.693  15.138  24.942  0.00  0.00    +0.000 A 
ATOM      5  C   UNL     1      -2.918  14.654  25.383  0.00  0.00    +0.000 A 
ATOM      6  C   UNL     1      -3.559  13.652  24.664  0.00  0.00    +0.000 A 
ATOM      7  C   UNL     1      -2.984  13.146  23.493  0.00  0.00    +0.000 A 
ENDBRANCH   1   2
BRANCH   1   8
ATOM      8  C   UNL     1      -0.791  11.561  21.794  0.00  0.00    +0.000 A 
ATOM      9  C   UNL     1      -0.446  10.763  20.684  0.00  0.00    +0.000 A 
ATOM     10  C   UNL     1      -0.215   9.389  20.811  0.00  0.00    +0.000 A 
ATOM     11  C   UNL     1      -0.305   8.775  22.054  0.00  0.00    +0.000 A 
ATOM     12  C   UNL     1      -0.603   9.540  23.175  0.00  0.00    +0.000 A 
ATOM     13  C   UNL     1      -0.836  10.916  23.049  0.00  0.00    +0.000 A 
ENDBRANCH   1   8
BRANCH   1  14
ATOM     14  C   UNL     1      -2.074  13.410  20.459  0.00  0.00    +0.000 C 
BRANCH  14  15
ATOM     15  C   UNL     1      -2.575  14.857  20.441  0.00  0.00    +0.000 C 
ATOM     16  O   UNL     1      -3.621  15.229  20.955  0.00  0.00    +0.000 OA
BRANCH  15  17
ATOM     17  O   UNL     1      -1.766  15.716  19.772  0.00  0.00    +0.000 OA
ATOM     18  H   UNL     1      -0.905  15.834  20.230  0.00  0.00    +0.000 HD
ENDBRANCH  15  17
ENDBRANCH  14  15
BRANCH  14  19
ATOM     19  O   UNL     1      -3.226  12.546  20.497  0.00  0.00    +0.000 OA
BRANCH  19  26
ATOM     20  C   UNL     1      -7.033  12.260  17.770  0.00  0.00    +0.000 C 
ATOM     21  C   UNL     1      -5.558  12.044  17.924  0.00  0.00    +0.000 A 
ATOM     22  C   UNL     1      -4.808  11.497  16.902  0.00  0.00    +0.000 A 
ATOM     23  C   UNL     1      -3.461  11.305  17.156  0.00  0.00    +0.000 A 
ATOM     24  C   UNL     1      -2.567  10.707  16.110  0.00  0.00    +0.000 C 
ATOM     25  N   UNL     1      -2.897  11.640  18.338  0.00  0.00    +0.000 NA
ATOM     26  C   UNL     1      -3.711  12.166  19.259  0.00  0.00    +0.000 A 
ATOM     27  N   UNL     1      -5.020  12.393  19.108  0.00  0.00    +0.000 NA
ENDBRANCH  19  26
ENDBRANCH  14  19
ENDBRANCH   1  14
BRANCH   1  28
ATOM     28  C   UNL     1       0.273  13.813  21.422  0.00  0.00    +0.000 C 
BRANCH  28  29
ATOM     29  O   UNL     1       0.485  13.978  20.012  0.00  0.00    +0.000 OA
BRANCH  29  30
ATOM     30  C   UNL     1       1.692  13.614  19.527  0.00  0.00    +0.000 C 
ATOM     31  O   UNL     1       2.098  12.495  19.285  0.00  0.00    +0.000 OA
BRANCH  30  32
ATOM     32  C   UNL     1       2.365  14.866  19.130  0.00  0.00    +0.000 A 
ATOM     33  C   UNL     1       3.740  14.972  19.318  0.00  0.00    +0.000 A 
ATOM     34  C   UNL     1       4.357  16.118  18.858  0.00  0.00    +0.000 A 
ATOM     35  N   UNL     1       3.700  17.133  18.251  0.00  0.00    +0.000 NA
ATOM     36  C   UNL     1       2.364  16.999  18.092  0.00  0.00    +0.000 A 
ATOM     37  C   UNL     1       1.655  15.893  18.506  0.00  0.00    +0.000 A 
ENDBRANCH  30  32
ENDBRANCH  29  30
ENDBRANCH  28  29
ENDBRANCH   1  28
TORSDOF 11
ENDMDL
