MODEL 1
REMARK VINA RESULT:      -9.2      0.000      0.000
REMARK  Name = 
REMARK  8 active torsions:
REMARK  status: ('A' for Active; 'I' for Inactive)
REMARK    1  A    between atoms: C_2  and  C_3
REMARK    2  A    between atoms: C_3  and  O_5
REMARK    3  A    between atoms: O_5  and  C_6
REMARK    4  A    between atoms: C_11  and  N_12
REMARK    5  A    between atoms: N_12  and  C_13
REMARK    6  A    between atoms: N_16  and  C_17
REMARK    7  A    between atoms: C_20  and  N_21
REMARK    8  A    between atoms: N_24  and  C_25
REMARK                            x       y       z     vdW  Elec       q    Type
REMARK                         _______ _______ _______ _____ _____    ______ ____
ROOT
ATOM      1  C   UNL     1       3.913   4.163  18.645  0.00  0.00    +0.000 A 
ATOM      2  N   UNL     1       3.878   5.512  18.704  0.00  0.00    +0.000 NA
ATOM      3  C   UNL     1       2.846   6.103  19.318  0.00  0.00    +0.000 A 
ATOM      4  N   UNL     1       2.812   7.494  19.233  0.00  0.00    +0.000 N 
ATOM      5  N   UNL     1       1.866   5.414  19.921  0.00  0.00    +0.000 NA
ATOM      6  C   UNL     1       1.903   4.073  19.837  0.00  0.00    +0.000 A 
ATOM      7  C   UNL     1       2.896   3.392  19.186  0.00  0.00    +0.000 A 
ATOM      8 CL   UNL     1       2.846   1.675  19.080  0.00  0.00    +0.000 Cl
ATOM      9  H   UNL     1       3.566   7.798  18.631  0.00  0.00    +0.000 HD
ENDROOT
BRANCH   4  10
ATOM     10  C   UNL     1       1.737   8.377  19.392  0.00  0.00    +0.000 A 
ATOM     11  C   UNL     1       1.184   9.101  18.339  0.00  0.00    +0.000 A 
ATOM     12  C   UNL     1       0.147  10.015  18.547  0.00  0.00    +0.000 A 
ATOM     13  C   UNL     1      -0.423  10.227  19.807  0.00  0.00    +0.000 A 
ATOM     14  C   UNL     1       0.123   9.476  20.857  0.00  0.00    +0.000 A 
ATOM     15  C   UNL     1       1.176   8.566  20.656  0.00  0.00    +0.000 A 
BRANCH  13  16
ATOM     16  N   UNL     1      -1.413  11.184  19.980  0.00  0.00    +0.000 N 
ATOM     17  C   UNL     1      -1.254  12.202  21.040  0.00  0.00    +0.000 C 
ATOM     18  C   UNL     1      -2.645  12.681  21.514  0.00  0.00    +0.000 C 
ATOM     19  N   UNL     1      -3.469  13.217  20.409  0.00  0.00    +0.000 NA
ATOM     20  C   UNL     1      -4.798  13.583  20.897  0.00  0.00    +0.000 C 
ATOM     21  C   UNL     1      -3.577  12.193  19.345  0.00  0.00    +0.000 C 
ATOM     22  C   UNL     1      -2.204  11.682  18.843  0.00  0.00    +0.000 C 
ENDBRANCH  13  16
ENDBRANCH   4  10
BRANCH   1  23
ATOM     23  N   UNL     1       4.933   3.534  17.888  0.00  0.00    +0.000 N 
ATOM     24  H   UNL     1       5.615   3.108  18.512  0.00  0.00    +0.000 HD
BRANCH  23  30
ATOM     25  C   UNL     1       6.923   4.517  16.733  0.00  0.00    +0.000 A 
ATOM     26  C   UNL     1       7.544   4.870  15.524  0.00  0.00    +0.000 A 
ATOM     27  C   UNL     1       6.840   4.806  14.326  0.00  0.00    +0.000 A 
ATOM     28  C   UNL     1       5.528   4.348  14.327  0.00  0.00    +0.000 A 
ATOM     29  C   UNL     1       4.920   3.962  15.528  0.00  0.00    +0.000 A 
ATOM     30  C   UNL     1       5.594   4.064  16.756  0.00  0.00    +0.000 A 
BRANCH  25  31
ATOM     31  O   UNL     1       7.717   4.455  17.895  0.00  0.00    +0.000 OA
BRANCH  31  32
ATOM     32  C   UNL     1       7.570   5.519  18.773  0.00  0.00    +0.000 C 
ATOM     33  O   UNL     1       7.374   5.482  19.978  0.00  0.00    +0.000 OA
BRANCH  32  35
ATOM     34  C   UNL     1       8.242   7.831  18.302  0.00  0.00    +0.000 C 
ATOM     35  C   UNL     1       7.528   6.752  17.951  0.00  0.00    +0.000 C 
ENDBRANCH  32  35
ENDBRANCH  31  32
ENDBRANCH  25  31
ENDBRANCH  23  30
ENDBRANCH   1  23
TORSDOF 7
ENDMDL
MODEL 2
REMARK VINA RESULT:      -9.2      0.602      1.020
REMARK  Name = 
REMARK  8 active torsions:
REMARK  status: ('A' for Active; 'I' for Inactive)
REMARK    1  A    between atoms: C_2  and  C_3
REMARK    2  A    between atoms: C_3  and  O_5
REMARK    3  A    between atoms: O_5  and  C_6
REMARK    4  A    between atoms: C_11  and  N_12
REMARK    5  A    between atoms: N_12  and  C_13
REMARK    6  A    between atoms: N_16  and  C_17
REMARK    7  A    between atoms: C_20  and  N_21
REMARK    8  A    between atoms: N_24  and  C_25
REMARK                            x       y       z     vdW  Elec       q    Type
REMARK                         _______ _______ _______ _____ _____    ______ ____
ROOT
ATOM      1  C   UNL     1       3.933   4.520  18.873  0.00  0.00    +0.000 A 
ATOM      2  N   UNL     1       3.814   5.843  18.632  0.00  0.00    +0.000 NA
ATOM      3  C   UNL     1       2.864   6.532  19.277  0.00  0.00    +0.000 A 
ATOM      4  N   UNL     1       2.718   7.863  18.888  0.00  0.00    +0.000 N 
ATOM      5  N   UNL     1       2.054   5.976  20.189  0.00  0.00    +0.000 NA
ATOM      6  C   UNL     1       2.170   4.654  20.404  0.00  0.00    +0.000 A 
ATOM      7  C   UNL     1       3.082   3.867  19.752  0.00  0.00    +0.000 A 
ATOM      8 CL   UNL     1       3.136   2.173  20.045  0.00  0.00    +0.000 Cl
ATOM      9  H   UNL     1       3.333   8.039  18.105  0.00  0.00    +0.000 HD
ENDROOT
BRANCH   4  10
ATOM     10  C   UNL     1       1.627   8.728  19.040  0.00  0.00    +0.000 A 
ATOM     11  C   UNL     1       1.081   9.053  20.279  0.00  0.00    +0.000 A 
ATOM     12  C   UNL     1      -0.043   9.877  20.387  0.00  0.00    +0.000 A 
ATOM     13  C   UNL     1      -0.659  10.454  19.271  0.00  0.00    +0.000 A 
ATOM     14  C   UNL     1      -0.089  10.139  18.029  0.00  0.00    +0.000 A 
ATOM     15  C   UNL     1       1.033   9.300  17.914  0.00  0.00    +0.000 A 
BRANCH  13  16
ATOM     16  N   UNL     1      -1.807  11.219  19.417  0.00  0.00    +0.000 N 
ATOM     17  C   UNL     1      -1.840  12.282  20.445  0.00  0.00    +0.000 C 
ATOM     18  C   UNL     1      -3.296  12.513  20.908  0.00  0.00    +0.000 C 
ATOM     19  N   UNL     1      -4.201  12.855  19.789  0.00  0.00    +0.000 NA
ATOM     20  C   UNL     1      -5.575  12.988  20.270  0.00  0.00    +0.000 C 
ATOM     21  C   UNL     1      -4.117  11.797  18.757  0.00  0.00    +0.000 C 
ATOM     22  C   UNL     1      -2.673  11.529  18.267  0.00  0.00    +0.000 C 
ENDBRANCH  13  16
ENDBRANCH   4  10
BRANCH   1  23
ATOM     23  N   UNL     1       4.849   3.761  18.103  0.00  0.00    +0.000 N 
ATOM     24  H   UNL     1       5.503   3.279  18.716  0.00  0.00    +0.000 HD
BRANCH  23  30
ATOM     25  C   UNL     1       6.878   4.538  16.863  0.00  0.00    +0.000 A 
ATOM     26  C   UNL     1       7.497   4.782  15.626  0.00  0.00    +0.000 A 
ATOM     27  C   UNL     1       6.766   4.705  14.446  0.00  0.00    +0.000 A 
ATOM     28  C   UNL     1       5.425   4.341  14.494  0.00  0.00    +0.000 A 
ATOM     29  C   UNL     1       4.818   4.064  15.724  0.00  0.00    +0.000 A 
ATOM     30  C   UNL     1       5.522   4.182  16.933  0.00  0.00    +0.000 A 
BRANCH  25  31
ATOM     31  O   UNL     1       7.690   4.481  18.013  0.00  0.00    +0.000 OA
BRANCH  31  32
ATOM     32  C   UNL     1       7.594   5.573  18.863  0.00  0.00    +0.000 C 
ATOM     33  O   UNL     1       7.495   5.576  20.080  0.00  0.00    +0.000 OA
BRANCH  32  35
ATOM     34  C   UNL     1       8.189   7.874  18.256  0.00  0.00    +0.000 C 
ATOM     35  C   UNL     1       7.464   6.776  18.005  0.00  0.00    +0.000 C 
ENDBRANCH  32  35
ENDBRANCH  31  32
ENDBRANCH  25  31
ENDBRANCH  23  30
ENDBRANCH   1  23
TORSDOF 7
ENDMDL
MODEL 3
REMARK VINA RESULT:      -9.1      0.991      1.442
REMARK  Name = 
REMARK  8 active torsions:
REMARK  status: ('A' for Active; 'I' for Inactive)
REMARK    1  A    between atoms: C_2  and  C_3
REMARK    2  A    between atoms: C_3  and  O_5
REMARK    3  A    between atoms: O_5  and  C_6
REMARK    4  A    between atoms: C_11  and  N_12
REMARK    5  A    between atoms: N_12  and  C_13
REMARK    6  A    between atoms: N_16  and  C_17
REMARK    7  A    between atoms: C_20  and  N_21
REMARK    8  A    between atoms: N_24  and  C_25
REMARK                            x       y       z     vdW  Elec       q    Type
REMARK                         _______ _______ _______ _____ _____    ______ ____
ROOT
ATOM      1  C   UNL     1       4.173   4.130  17.885  0.00  0.00    +0.000 A 
ATOM      2  N   UNL     1       4.178   5.463  18.099  0.00  0.00    +0.000 NA
ATOM      3  C   UNL     1       3.116   6.024  18.691  0.00  0.00    +0.000 A 
ATOM      4  N   UNL     1       3.135   7.416  18.768  0.00  0.00    +0.000 N 
ATOM      5  N   UNL     1       2.065   5.313  19.124  0.00  0.00    +0.000 NA
ATOM      6  C   UNL     1       2.065   3.990  18.886  0.00  0.00    +0.000 A 
ATOM      7  C   UNL     1       3.088   3.346  18.244  0.00  0.00    +0.000 A 
ATOM      8 CL   UNL     1       2.992   1.657  17.932  0.00  0.00    +0.000 Cl
ATOM      9  H   UNL     1       3.948   7.754  18.271  0.00  0.00    +0.000 HD
ENDROOT
BRANCH   4  10
ATOM     10  C   UNL     1       2.079   8.320  18.941  0.00  0.00    +0.000 A 
ATOM     11  C   UNL     1       1.503   8.588  20.180  0.00  0.00    +0.000 A 
ATOM     12  C   UNL     1       0.414   9.456  20.305  0.00  0.00    +0.000 A 
ATOM     13  C   UNL     1      -0.133  10.135  19.210  0.00  0.00    +0.000 A 
ATOM     14  C   UNL     1       0.469   9.877  17.971  0.00  0.00    +0.000 A 
ATOM     15  C   UNL     1       1.556   8.994  17.837  0.00  0.00    +0.000 A 
BRANCH  13  16
ATOM     16  N   UNL     1      -1.249  10.943  19.369  0.00  0.00    +0.000 N 
ATOM     17  C   UNL     1      -1.232  12.002  20.401  0.00  0.00    +0.000 C 
ATOM     18  C   UNL     1      -2.675  12.287  20.877  0.00  0.00    +0.000 C 
ATOM     19  N   UNL     1      -3.576  12.668  19.767  0.00  0.00    +0.000 NA
ATOM     20  C   UNL     1      -4.939  12.851  20.260  0.00  0.00    +0.000 C 
ATOM     21  C   UNL     1      -3.541  11.611  18.731  0.00  0.00    +0.000 C 
ATOM     22  C   UNL     1      -2.112  11.290  18.228  0.00  0.00    +0.000 C 
ENDBRANCH  13  16
ENDBRANCH   4  10
BRANCH   1  23
ATOM     23  N   UNL     1       5.234   3.549  17.146  0.00  0.00    +0.000 N 
ATOM     24  H   UNL     1       5.999   3.305  17.772  0.00  0.00    +0.000 HD
BRANCH  23  30
ATOM     25  C   UNL     1       6.901   4.812  15.774  0.00  0.00    +0.000 A 
ATOM     26  C   UNL     1       7.441   5.080  14.504  0.00  0.00    +0.000 A 
ATOM     27  C   UNL     1       6.833   4.577  13.360  0.00  0.00    +0.000 A 
ATOM     28  C   UNL     1       5.708   3.769  13.482  0.00  0.00    +0.000 A 
ATOM     29  C   UNL     1       5.191   3.474  14.749  0.00  0.00    +0.000 A 
ATOM     30  C   UNL     1       5.759   4.009  15.916  0.00  0.00    +0.000 A 
BRANCH  25  31
ATOM     31  O   UNL     1       7.634   5.217  16.907  0.00  0.00    +0.000 OA
BRANCH  31  32
ATOM     32  C   UNL     1       7.403   6.516  17.331  0.00  0.00    +0.000 C 
ATOM     33  O   UNL     1       6.964   7.455  16.685  0.00  0.00    +0.000 OA
BRANCH  32  35
ATOM     34  C   UNL     1       7.862   5.592  19.557  0.00  0.00    +0.000 C 
ATOM     35  C   UNL     1       7.949   6.624  18.706  0.00  0.00    +0.000 C 
ENDBRANCH  32  35
ENDBRANCH  31  32
ENDBRANCH  25  31
ENDBRANCH  23  30
ENDBRANCH   1  23
TORSDOF 7
ENDMDL
MODEL 4
REMARK VINA RESULT:      -8.7      1.149      1.613
REMARK  Name = 
REMARK  8 active torsions:
REMARK  status: ('A' for Active; 'I' for Inactive)
REMARK    1  A    between atoms: C_2  and  C_3
REMARK    2  A    between atoms: C_3  and  O_5
REMARK    3  A    between atoms: O_5  and  C_6
REMARK    4  A    between atoms: C_11  and  N_12
REMARK    5  A    between atoms: N_12  and  C_13
REMARK    6  A    between atoms: N_16  and  C_17
REMARK    7  A    between atoms: C_20  and  N_21
REMARK    8  A    between atoms: N_24  and  C_25
REMARK                            x       y       z     vdW  Elec       q    Type
REMARK                         _______ _______ _______ _____ _____    ______ ____
ROOT
ATOM      1  C   UNL     1       4.418   3.920  17.613  0.00  0.00    +0.000 A 
ATOM      2  N   UNL     1       4.350   5.268  17.643  0.00  0.00    +0.000 NA
ATOM      3  C   UNL     1       3.462   5.850  18.458  0.00  0.00    +0.000 A 
ATOM      4  N   UNL     1       3.362   7.236  18.347  0.00  0.00    +0.000 N 
ATOM      5  N   UNL     1       2.665   5.154  19.282  0.00  0.00    +0.000 NA
ATOM      6  C   UNL     1       2.728   3.813  19.227  0.00  0.00    +0.000 A 
ATOM      7  C   UNL     1       3.574   3.138  18.387  0.00  0.00    +0.000 A 
ATOM      8 CL   UNL     1       3.561   1.419  18.338  0.00  0.00    +0.000 Cl
ATOM      9  H   UNL     1       3.952   7.541  17.584  0.00  0.00    +0.000 HD
ENDROOT
BRANCH   4  10
ATOM     10  C   UNL     1       2.320   8.094  18.721  0.00  0.00    +0.000 A 
ATOM     11  C   UNL     1       1.678   8.946  17.826  0.00  0.00    +0.000 A 
ATOM     12  C   UNL     1       0.678   9.828  18.248  0.00  0.00    +0.000 A 
ATOM     13  C   UNL     1       0.236   9.880  19.574  0.00  0.00    +0.000 A 
ATOM     14  C   UNL     1       0.872   9.002  20.464  0.00  0.00    +0.000 A 
ATOM     15  C   UNL     1       1.887   8.123  20.047  0.00  0.00    +0.000 A 
BRANCH  13  16
ATOM     16  N   UNL     1      -0.718  10.809  19.963  0.00  0.00    +0.000 N 
ATOM     17  C   UNL     1      -1.913  11.014  19.116  0.00  0.00    +0.000 C 
ATOM     18  C   UNL     1      -2.443  12.453  19.303  0.00  0.00    +0.000 C 
ATOM     19  N   UNL     1      -2.757  12.765  20.715  0.00  0.00    +0.000 NA
ATOM     20  C   UNL     1      -3.179  14.158  20.845  0.00  0.00    +0.000 C 
ATOM     21  C   UNL     1      -1.557  12.512  21.544  0.00  0.00    +0.000 C 
ATOM     22  C   UNL     1      -0.990  11.081  21.384  0.00  0.00    +0.000 C 
ENDBRANCH  13  16
ENDBRANCH   4  10
BRANCH   1  23
ATOM     23  N   UNL     1       5.264   3.295  16.663  0.00  0.00    +0.000 N 
ATOM     24  H   UNL     1       5.965   2.734  17.140  0.00  0.00    +0.000 HD
BRANCH  23  30
ATOM     25  C   UNL     1       6.949   4.753  15.525  0.00  0.00    +0.000 A 
ATOM     26  C   UNL     1       7.548   5.166  14.324  0.00  0.00    +0.000 A 
ATOM     27  C   UNL     1       7.030   4.756  13.101  0.00  0.00    +0.000 A 
ATOM     28  C   UNL     1       5.938   3.896  13.074  0.00  0.00    +0.000 A 
ATOM     29  C   UNL     1       5.362   3.456  14.272  0.00  0.00    +0.000 A 
ATOM     30  C   UNL     1       5.837   3.895  15.518  0.00  0.00    +0.000 A 
BRANCH  25  31
ATOM     31  O   UNL     1       7.596   5.071  16.735  0.00  0.00    +0.000 OA
BRANCH  31  32
ATOM     32  C   UNL     1       7.328   6.335  17.238  0.00  0.00    +0.000 C 
ATOM     33  O   UNL     1       6.865   7.300  16.649  0.00  0.00    +0.000 OA
BRANCH  32  35
ATOM     34  C   UNL     1       7.375   5.558  19.565  0.00  0.00    +0.000 C 
ATOM     35  C   UNL     1       7.865   6.372  18.620  0.00  0.00    +0.000 C 
ENDBRANCH  32  35
ENDBRANCH  31  32
ENDBRANCH  25  31
ENDBRANCH  23  30
ENDBRANCH   1  23
TORSDOF 7
ENDMDL
MODEL 5
REMARK VINA RESULT:      -8.6      1.182      1.330
REMARK  Name = 
REMARK  8 active torsions:
REMARK  status: ('A' for Active; 'I' for Inactive)
REMARK    1  A    between atoms: C_2  and  C_3
REMARK    2  A    between atoms: C_3  and  O_5
REMARK    3  A    between atoms: O_5  and  C_6
REMARK    4  A    between atoms: C_11  and  N_12
REMARK    5  A    between atoms: N_12  and  C_13
REMARK    6  A    between atoms: N_16  and  C_17
REMARK    7  A    between atoms: C_20  and  N_21
REMARK    8  A    between atoms: N_24  and  C_25
REMARK                            x       y       z     vdW  Elec       q    Type
REMARK                         _______ _______ _______ _____ _____    ______ ____
ROOT
ATOM      1  C   UNL     1       3.417   4.450  19.226  0.00  0.00    +0.000 A 
ATOM      2  N   UNL     1       3.458   5.726  19.667  0.00  0.00    +0.000 NA
ATOM      3  C   UNL     1       2.363   6.244  20.238  0.00  0.00    +0.000 A 
ATOM      4  N   UNL     1       2.435   7.600  20.556  0.00  0.00    +0.000 N 
ATOM      5  N   UNL     1       1.241   5.538  20.436  0.00  0.00    +0.000 NA
ATOM      6  C   UNL     1       1.209   4.275  19.974  0.00  0.00    +0.000 A 
ATOM      7  C   UNL     1       2.267   3.686  19.335  0.00  0.00    +0.000 A 
ATOM      8 CL   UNL     1       2.130   2.082  18.728  0.00  0.00    +0.000 Cl
ATOM      9  H   UNL     1       3.312   7.966  20.209  0.00  0.00    +0.000 HD
ENDROOT
BRANCH   4  10
ATOM     10  C   UNL     1       1.408   8.526  20.777  0.00  0.00    +0.000 A 
ATOM     11  C   UNL     1       0.784   9.229  19.750  0.00  0.00    +0.000 A 
ATOM     12  C   UNL     1      -0.200  10.186  20.015  0.00  0.00    +0.000 A 
ATOM     13  C   UNL     1      -0.644  10.465  21.312  0.00  0.00    +0.000 A 
ATOM     14  C   UNL     1      -0.027   9.736  22.338  0.00  0.00    +0.000 A 
ATOM     15  C   UNL     1       0.973   8.782  22.078  0.00  0.00    +0.000 A 
BRANCH  13  16
ATOM     16  N   UNL     1      -1.583  11.463  21.535  0.00  0.00    +0.000 N 
ATOM     17  C   UNL     1      -1.839  11.916  22.920  0.00  0.00    +0.000 C 
ATOM     18  C   UNL     1      -3.283  12.453  23.032  0.00  0.00    +0.000 C 
ATOM     19  N   UNL     1      -3.559  13.548  22.076  0.00  0.00    +0.000 NA
ATOM     20  C   UNL     1      -4.957  13.965  22.171  0.00  0.00    +0.000 C 
ATOM     21  C   UNL     1      -3.255  13.080  20.704  0.00  0.00    +0.000 C 
ATOM     22  C   UNL     1      -1.817  12.529  20.547  0.00  0.00    +0.000 C 
ENDBRANCH  13  16
ENDBRANCH   4  10
BRANCH   1  23
ATOM     23  N   UNL     1       4.526   3.937  18.507  0.00  0.00    +0.000 N 
ATOM     24  H   UNL     1       5.313   3.800  19.137  0.00  0.00    +0.000 HD
BRANCH  23  30
ATOM     25  C   UNL     1       5.817   5.501  17.043  0.00  0.00    +0.000 A 
ATOM     26  C   UNL     1       6.370   5.765  15.778  0.00  0.00    +0.000 A 
ATOM     27  C   UNL     1       6.089   4.936  14.699  0.00  0.00    +0.000 A 
ATOM     28  C   UNL     1       5.289   3.814  14.888  0.00  0.00    +0.000 A 
ATOM     29  C   UNL     1       4.767   3.531  16.155  0.00  0.00    +0.000 A 
ATOM     30  C   UNL     1       4.996   4.380  17.250  0.00  0.00    +0.000 A 
BRANCH  25  31
ATOM     31  O   UNL     1       6.249   6.280  18.134  0.00  0.00    +0.000 OA
BRANCH  31  32
ATOM     32  C   UNL     1       7.548   6.043  18.557  0.00  0.00    +0.000 C 
ATOM     33  O   UNL     1       8.020   5.009  19.004  0.00  0.00    +0.000 OA
BRANCH  32  35
ATOM     34  C   UNL     1       7.806   8.349  17.760  0.00  0.00    +0.000 C 
ATOM     35  C   UNL     1       8.255   7.346  18.527  0.00  0.00    +0.000 C 
ENDBRANCH  32  35
ENDBRANCH  31  32
ENDBRANCH  25  31
ENDBRANCH  23  30
ENDBRANCH   1  23
TORSDOF 7
ENDMDL
MODEL 6
REMARK VINA RESULT:      -8.5      0.895      1.057
REMARK  Name = 
REMARK  8 active torsions:
REMARK  status: ('A' for Active; 'I' for Inactive)
REMARK    1  A    between atoms: C_2  and  C_3
REMARK    2  A    between atoms: C_3  and  O_5
REMARK    3  A    between atoms: O_5  and  C_6
REMARK    4  A    between atoms: C_11  and  N_12
REMARK    5  A    between atoms: N_12  and  C_13
REMARK    6  A    between atoms: N_16  and  C_17
REMARK    7  A    between atoms: C_20  and  N_21
REMARK    8  A    between atoms: N_24  and  C_25
REMARK                            x       y       z     vdW  Elec       q    Type
REMARK                         _______ _______ _______ _____ _____    ______ ____
ROOT
ATOM      1  C   UNL     1       3.914   4.134  18.358  0.00  0.00    +0.000 A 
ATOM      2  N   UNL     1       3.935   5.376  18.889  0.00  0.00    +0.000 NA
ATOM      3  C   UNL     1       2.800   5.882  19.387  0.00  0.00    +0.000 A 
ATOM      4  N   UNL     1       2.867   7.211  19.805  0.00  0.00    +0.000 N 
ATOM      5  N   UNL     1       1.650   5.193  19.424  0.00  0.00    +0.000 NA
ATOM      6  C   UNL     1       1.639   3.967  18.873  0.00  0.00    +0.000 A 
ATOM      7  C   UNL     1       2.743   3.395  18.300  0.00  0.00    +0.000 A 
ATOM      8 CL   UNL     1       2.636   1.841  17.570  0.00  0.00    +0.000 Cl
ATOM      9  H   UNL     1       3.780   7.576  19.571  0.00  0.00    +0.000 HD
ENDROOT
BRANCH   4  10
ATOM     10  C   UNL     1       1.841   8.146  19.990  0.00  0.00    +0.000 A 
ATOM     11  C   UNL     1       1.430   9.030  18.996  0.00  0.00    +0.000 A 
ATOM     12  C   UNL     1       0.440   9.987  19.235  0.00  0.00    +0.000 A 
ATOM     13  C   UNL     1      -0.223  10.088  20.463  0.00  0.00    +0.000 A 
ATOM     14  C   UNL     1       0.180   9.179  21.450  0.00  0.00    +0.000 A 
ATOM     15  C   UNL     1       1.185   8.223  21.219  0.00  0.00    +0.000 A 
BRANCH  13  16
ATOM     16  N   UNL     1      -1.160  11.089  20.677  0.00  0.00    +0.000 N 
ATOM     17  C   UNL     1      -1.148  11.827  21.959  0.00  0.00    +0.000 C 
ATOM     18  C   UNL     1      -2.570  12.344  22.275  0.00  0.00    +0.000 C 
ATOM     19  N   UNL     1      -3.119  13.197  21.198  0.00  0.00    +0.000 NA
ATOM     20  C   UNL     1      -4.490  13.593  21.513  0.00  0.00    +0.000 C 
ATOM     21  C   UNL     1      -3.080  12.448  19.921  0.00  0.00    +0.000 C 
ATOM     22  C   UNL     1      -1.673  11.909  19.567  0.00  0.00    +0.000 C 
ENDBRANCH  13  16
ENDBRANCH   4  10
BRANCH   1  23
ATOM     23  N   UNL     1       5.078   3.642  17.716  0.00  0.00    +0.000 N 
ATOM     24  H   UNL     1       5.826   3.529  18.396  0.00  0.00    +0.000 HD
BRANCH  23  30
ATOM     25  C   UNL     1       6.890   4.659  16.323  0.00  0.00    +0.000 A 
ATOM     26  C   UNL     1       7.405   4.917  15.042  0.00  0.00    +0.000 A 
ATOM     27  C   UNL     1       6.648   4.638  13.910  0.00  0.00    +0.000 A 
ATOM     28  C   UNL     1       5.391   4.060  14.052  0.00  0.00    +0.000 A 
ATOM     29  C   UNL     1       4.893   3.771  15.328  0.00  0.00    +0.000 A 
ATOM     30  C   UNL     1       5.618   4.088  16.488  0.00  0.00    +0.000 A 
BRANCH  25  31
ATOM     31  O   UNL     1       7.749   4.818  17.429  0.00  0.00    +0.000 OA
BRANCH  31  32
ATOM     32  C   UNL     1       7.600   6.005  18.131  0.00  0.00    +0.000 C 
ATOM     33  O   UNL     1       7.743   7.147  17.722  0.00  0.00    +0.000 OA
BRANCH  32  35
ATOM     34  C   UNL     1       8.434   5.440  20.368  0.00  0.00    +0.000 C 
ATOM     35  C   UNL     1       7.390   5.641  19.553  0.00  0.00    +0.000 C 
ENDBRANCH  32  35
ENDBRANCH  31  32
ENDBRANCH  25  31
ENDBRANCH  23  30
ENDBRANCH   1  23
TORSDOF 7
ENDMDL
MODEL 7
REMARK VINA RESULT:      -8.2      1.149      1.464
REMARK  Name = 
REMARK  8 active torsions:
REMARK  status: ('A' for Active; 'I' for Inactive)
REMARK    1  A    between atoms: C_2  and  C_3
REMARK    2  A    between atoms: C_3  and  O_5
REMARK    3  A    between atoms: O_5  and  C_6
REMARK    4  A    between atoms: C_11  and  N_12
REMARK    5  A    between atoms: N_12  and  C_13
REMARK    6  A    between atoms: N_16  and  C_17
REMARK    7  A    between atoms: C_20  and  N_21
REMARK    8  A    between atoms: N_24  and  C_25
REMARK                            x       y       z     vdW  Elec       q    Type
REMARK                         _______ _______ _______ _____ _____    ______ ____
ROOT
ATOM      1  C   UNL     1       3.919   4.146  18.340  0.00  0.00    +0.000 A 
ATOM      2  N   UNL     1       3.967   5.352  18.946  0.00  0.00    +0.000 NA
ATOM      3  C   UNL     1       2.834   5.875  19.430  0.00  0.00    +0.000 A 
ATOM      4  N   UNL     1       2.935   7.172  19.930  0.00  0.00    +0.000 N 
ATOM      5  N   UNL     1       1.658   5.233  19.382  0.00  0.00    +0.000 NA
ATOM      6  C   UNL     1       1.621   4.042  18.758  0.00  0.00    +0.000 A 
ATOM      7  C   UNL     1       2.724   3.460  18.194  0.00  0.00    +0.000 A 
ATOM      8 CL   UNL     1       2.586   1.957  17.369  0.00  0.00    +0.000 Cl
ATOM      9  H   UNL     1       3.871   7.513  19.753  0.00  0.00    +0.000 HD
ENDROOT
BRANCH   4  10
ATOM     10  C   UNL     1       1.940   8.137  20.132  0.00  0.00    +0.000 A 
ATOM     11  C   UNL     1       1.499   8.996  19.129  0.00  0.00    +0.000 A 
ATOM     12  C   UNL     1       0.543   9.983  19.383  0.00  0.00    +0.000 A 
ATOM     13  C   UNL     1      -0.056  10.141  20.638  0.00  0.00    +0.000 A 
ATOM     14  C   UNL     1       0.376   9.256  21.635  0.00  0.00    +0.000 A 
ATOM     15  C   UNL     1       1.348   8.271  21.389  0.00  0.00    +0.000 A 
BRANCH  13  16
ATOM     16  N   UNL     1      -0.960  11.170  20.863  0.00  0.00    +0.000 N 
ATOM     17  C   UNL     1      -1.897  11.556  19.786  0.00  0.00    +0.000 C 
ATOM     18  C   UNL     1      -2.285  13.043  19.942  0.00  0.00    +0.000 C 
ATOM     19  N   UNL     1      -2.875  13.341  21.266  0.00  0.00    +0.000 NA
ATOM     20  C   UNL     1      -3.152  14.771  21.388  0.00  0.00    +0.000 C 
ATOM     21  C   UNL     1      -1.935  12.907  22.324  0.00  0.00    +0.000 C 
ATOM     22  C   UNL     1      -1.516  11.422  22.203  0.00  0.00    +0.000 C 
ENDBRANCH  13  16
ENDBRANCH   4  10
BRANCH   1  23
ATOM     23  N   UNL     1       5.088   3.645  17.714  0.00  0.00    +0.000 N 
ATOM     24  H   UNL     1       5.828   3.532  18.403  0.00  0.00    +0.000 HD
BRANCH  23  30
ATOM     25  C   UNL     1       6.656   5.043  16.357  0.00  0.00    +0.000 A 
ATOM     26  C   UNL     1       7.260   5.289  15.113  0.00  0.00    +0.000 A 
ATOM     27  C   UNL     1       6.842   4.602  13.979  0.00  0.00    +0.000 A 
ATOM     28  C   UNL     1       5.850   3.635  14.093  0.00  0.00    +0.000 A 
ATOM     29  C   UNL     1       5.273   3.365  15.339  0.00  0.00    +0.000 A 
ATOM     30  C   UNL     1       5.643   4.080  16.489  0.00  0.00    +0.000 A 
BRANCH  25  31
ATOM     31  O   UNL     1       7.213   5.654  17.498  0.00  0.00    +0.000 OA
BRANCH  31  32
ATOM     32  C   UNL     1       6.899   6.994  17.669  0.00  0.00    +0.000 C 
ATOM     33  O   UNL     1       5.868   7.573  17.363  0.00  0.00    +0.000 OA
BRANCH  32  35
ATOM     34  C   UNL     1       8.272   8.993  18.039  0.00  0.00    +0.000 C 
ATOM     35  C   UNL     1       8.128   7.665  18.156  0.00  0.00    +0.000 C 
ENDBRANCH  32  35
ENDBRANCH  31  32
ENDBRANCH  25  31
ENDBRANCH  23  30
ENDBRANCH   1  23
TORSDOF 7
ENDMDL
MODEL 8
REMARK VINA RESULT:      -8.2      1.626      2.831
REMARK  Name = 
REMARK  8 active torsions:
REMARK  status: ('A' for Active; 'I' for Inactive)
REMARK    1  A    between atoms: C_2  and  C_3
REMARK    2  A    between atoms: C_3  and  O_5
REMARK    3  A    between atoms: O_5  and  C_6
REMARK    4  A    between atoms: C_11  and  N_12
REMARK    5  A    between atoms: N_12  and  C_13
REMARK    6  A    between atoms: N_16  and  C_17
REMARK    7  A    between atoms: C_20  and  N_21
REMARK    8  A    between atoms: N_24  and  C_25
REMARK                            x       y       z     vdW  Elec       q    Type
REMARK                         _______ _______ _______ _____ _____    ______ ____
ROOT
ATOM      1  C   UNL     1       3.003   4.429  19.272  0.00  0.00    +0.000 A 
ATOM      2  N   UNL     1       3.116   5.724  19.640  0.00  0.00    +0.000 NA
ATOM      3  C   UNL     1       2.103   6.296  20.303  0.00  0.00    +0.000 A 
ATOM      4  N   UNL     1       2.236   7.663  20.543  0.00  0.00    +0.000 N 
ATOM      5  N   UNL     1       0.997   5.627  20.659  0.00  0.00    +0.000 NA
ATOM      6  C   UNL     1       0.888   4.345  20.268  0.00  0.00    +0.000 A 
ATOM      7  C   UNL     1       1.856   3.700  19.546  0.00  0.00    +0.000 A 
ATOM      8 CL   UNL     1       1.622   2.073  19.039  0.00  0.00    +0.000 Cl
ATOM      9  H   UNL     1       3.075   7.989  20.082  0.00  0.00    +0.000 HD
ENDROOT
BRANCH   4  10
ATOM     10  C   UNL     1       1.259   8.623  20.829  0.00  0.00    +0.000 A 
ATOM     11  C   UNL     1       0.596   9.351  19.845  0.00  0.00    +0.000 A 
ATOM     12  C   UNL     1      -0.335  10.341  20.172  0.00  0.00    +0.000 A 
ATOM     13  C   UNL     1      -0.687  10.631  21.495  0.00  0.00    +0.000 A 
ATOM     14  C   UNL     1      -0.032   9.877  22.479  0.00  0.00    +0.000 A 
ATOM     15  C   UNL     1       0.915   8.890  22.155  0.00  0.00    +0.000 A 
BRANCH  13  16
ATOM     16  N   UNL     1      -1.573  11.661  21.778  0.00  0.00    +0.000 N 
ATOM     17  C   UNL     1      -1.480  12.355  23.081  0.00  0.00    +0.000 C 
ATOM     18  C   UNL     1      -2.866  12.915  23.471  0.00  0.00    +0.000 C 
ATOM     19  N   UNL     1      -3.422  13.825  22.445  0.00  0.00    +0.000 NA
ATOM     20  C   UNL     1      -4.763  14.264  22.828  0.00  0.00    +0.000 C 
ATOM     21  C   UNL     1      -3.465  13.118  21.144  0.00  0.00    +0.000 C 
ATOM     22  C   UNL     1      -2.096  12.536  20.716  0.00  0.00    +0.000 C 
ENDBRANCH  13  16
ENDBRANCH   4  10
BRANCH   1  23
ATOM     23  N   UNL     1       4.013   3.855  18.461  0.00  0.00    +0.000 N 
ATOM     24  H   UNL     1       4.014   2.844  18.573  0.00  0.00    +0.000 HD
BRANCH  23  30
ATOM     25  C   UNL     1       6.062   4.335  17.109  0.00  0.00    +0.000 A 
ATOM     26  C   UNL     1       7.315   4.965  17.027  0.00  0.00    +0.000 A 
ATOM     27  C   UNL     1       7.880   5.555  18.152  0.00  0.00    +0.000 A 
ATOM     28  C   UNL     1       7.176   5.558  19.351  0.00  0.00    +0.000 A 
ATOM     29  C   UNL     1       5.912   4.961  19.422  0.00  0.00    +0.000 A 
ATOM     30  C   UNL     1       5.342   4.315  18.314  0.00  0.00    +0.000 A 
BRANCH  25  31
ATOM     31  O   UNL     1       5.466   3.883  15.915  0.00  0.00    +0.000 OA
BRANCH  31  32
ATOM     32  C   UNL     1       5.705   4.669  14.797  0.00  0.00    +0.000 C 
ATOM     33  O   UNL     1       5.495   5.863  14.655  0.00  0.00    +0.000 OA
BRANCH  32  35
ATOM     34  C   UNL     1       6.801   4.215  12.649  0.00  0.00    +0.000 C 
ATOM     35  C   UNL     1       6.122   3.753  13.708  0.00  0.00    +0.000 C 
ENDBRANCH  32  35
ENDBRANCH  31  32
ENDBRANCH  25  31
ENDBRANCH  23  30
ENDBRANCH   1  23
TORSDOF 7
ENDMDL
MODEL 9
REMARK VINA RESULT:      -8.2      1.029      1.366
REMARK  Name = 
REMARK  8 active torsions:
REMARK  status: ('A' for Active; 'I' for Inactive)
REMARK    1  A    between atoms: C_2  and  C_3
REMARK    2  A    between atoms: C_3  and  O_5
REMARK    3  A    between atoms: O_5  and  C_6
REMARK    4  A    between atoms: C_11  and  N_12
REMARK    5  A    between atoms: N_12  and  C_13
REMARK    6  A    between atoms: N_16  and  C_17
REMARK    7  A    between atoms: C_20  and  N_21
REMARK    8  A    between atoms: N_24  and  C_25
REMARK                            x       y       z     vdW  Elec       q    Type
REMARK                         _______ _______ _______ _____ _____    ______ ____
ROOT
ATOM      1  C   UNL     1       3.342   3.978  18.899  0.00  0.00    +0.000 A 
ATOM      2  N   UNL     1       3.501   5.279  19.224  0.00  0.00    +0.000 NA
ATOM      3  C   UNL     1       2.517   5.902  19.884  0.00  0.00    +0.000 A 
ATOM      4  N   UNL     1       2.696   7.271  20.078  0.00  0.00    +0.000 N 
ATOM      5  N   UNL     1       1.398   5.279  20.280  0.00  0.00    +0.000 NA
ATOM      6  C   UNL     1       1.244   3.990  19.932  0.00  0.00    +0.000 A 
ATOM      7  C   UNL     1       2.180   3.292  19.216  0.00  0.00    +0.000 A 
ATOM      8 CL   UNL     1       1.887   1.658  18.765  0.00  0.00    +0.000 Cl
ATOM      9  H   UNL     1       3.536   7.558  19.593  0.00  0.00    +0.000 HD
ENDROOT
BRANCH   4  10
ATOM     10  C   UNL     1       1.752   8.270  20.349  0.00  0.00    +0.000 A 
ATOM     11  C   UNL     1       1.252   9.129  19.374  0.00  0.00    +0.000 A 
ATOM     12  C   UNL     1       0.352  10.150  19.694  0.00  0.00    +0.000 A 
ATOM     13  C   UNL     1      -0.130  10.344  20.993  0.00  0.00    +0.000 A 
ATOM     14  C   UNL     1       0.361   9.460  21.964  0.00  0.00    +0.000 A 
ATOM     15  C   UNL     1       1.277   8.440  21.650  0.00  0.00    +0.000 A 
BRANCH  13  16
ATOM     16  N   UNL     1      -0.978  11.405  21.279  0.00  0.00    +0.000 N 
ATOM     17  C   UNL     1      -1.844  11.944  20.209  0.00  0.00    +0.000 C 
ATOM     18  C   UNL     1      -2.148  13.434  20.486  0.00  0.00    +0.000 C 
ATOM     19  N   UNL     1      -2.774  13.650  21.810  0.00  0.00    +0.000 NA
ATOM     20  C   UNL     1      -2.969  15.078  22.052  0.00  0.00    +0.000 C 
ATOM     21  C   UNL     1      -1.906  13.064  22.857  0.00  0.00    +0.000 C 
ATOM     22  C   UNL     1      -1.573  11.571  22.615  0.00  0.00    +0.000 C 
ENDBRANCH  13  16
ENDBRANCH   4  10
BRANCH   1  23
ATOM     23  N   UNL     1       4.321   3.347  18.091  0.00  0.00    +0.000 N 
ATOM     24  H   UNL     1       4.909   2.747  18.664  0.00  0.00    +0.000 HD
BRANCH  23  30
ATOM     25  C   UNL     1       6.419   4.419  17.252  0.00  0.00    +0.000 A 
ATOM     26  C   UNL     1       7.176   4.856  16.152  0.00  0.00    +0.000 A 
ATOM     27  C   UNL     1       6.624   4.865  14.876  0.00  0.00    +0.000 A 
ATOM     28  C   UNL     1       5.328   4.397  14.688  0.00  0.00    +0.000 A 
ATOM     29  C   UNL     1       4.587   3.929  15.779  0.00  0.00    +0.000 A 
ATOM     30  C   UNL     1       5.105   3.955  17.084  0.00  0.00    +0.000 A 
BRANCH  25  31
ATOM     31  O   UNL     1       7.068   4.288  18.495  0.00  0.00    +0.000 OA
BRANCH  31  32
ATOM     32  C   UNL     1       7.716   5.426  18.951  0.00  0.00    +0.000 C 
ATOM     33  O   UNL     1       8.451   5.541  19.920  0.00  0.00    +0.000 OA
BRANCH  32  35
ATOM     34  C   UNL     1       7.909   7.711  18.075  0.00  0.00    +0.000 C 
ATOM     35  C   UNL     1       7.224   6.560  18.130  0.00  0.00    +0.000 C 
ENDBRANCH  32  35
ENDBRANCH  31  32
ENDBRANCH  25  31
ENDBRANCH  23  30
ENDBRANCH   1  23
TORSDOF 7
ENDMDL
