MODEL 1
REMARK VINA RESULT:      -7.5      0.000      0.000
REMARK  Name = 
REMARK  6 active torsions:
REMARK  status: ('A' for Active; 'I' for Inactive)
REMARK    1  A    between atoms: C_1  and  N_2
REMARK    2  A    between atoms: N_2  and  C_3
REMARK    3  A    between atoms: C_3  and  C_4
REMARK    4  A    between atoms: C_13  and  O_14
REMARK    5  A    between atoms: O_14  and  C_15
REMARK    6  A    between atoms: C_20  and  C_21
REMARK                            x       y       z     vdW  Elec       q    Type
REMARK                         _______ _______ _______ _____ _____    ______ ____
ROOT
ATOM      1  C   UNL     1       4.636   5.912  18.647  0.00  0.00    +0.000 C 
ATOM      2  C   UNL     1       4.553   5.648  17.144  0.00  0.00    +0.000 C 
ATOM      3  S   UNL     1       3.978   3.972  16.730  0.00  0.00    +0.000 S 
ATOM      4  C   UNL     1       2.752   3.703  18.003  0.00  0.00    +0.000 A 
ATOM      5  C   UNL     1       2.105   2.456  17.983  0.00  0.00    +0.000 A 
ATOM      6  C   UNL     1       1.155   2.119  18.949  0.00  0.00    +0.000 A 
ATOM      7  C   UNL     1       0.817   3.039  19.933  0.00  0.00    +0.000 A 
ATOM      8  C   UNL     1       1.454   4.278  19.967  0.00  0.00    +0.000 A 
ATOM      9  C   UNL     1       2.451   4.614  19.026  0.00  0.00    +0.000 A 
ATOM     10  C   UNL     1       3.211   5.915  19.242  0.00  0.00    +0.000 C 
ENDROOT
BRANCH   1  11
ATOM     11  C   UNL     1       5.578   4.967  19.431  0.00  0.00    +0.000 C 
BRANCH  11  13
ATOM     12  C   UNL     1       7.753   5.945  19.048  0.00  0.00    +0.000 C 
ATOM     13  N   UNL     1       6.874   4.816  18.760  0.00  0.00    +0.000 NA
ATOM     14  H   UNL     1       7.334   3.969  19.094  0.00  0.00    +0.000 HD
ENDBRANCH  11  13
ENDBRANCH   1  11
BRANCH  10  15
ATOM     15  O   UNL     1       2.439   7.008  18.701  0.00  0.00    +0.000 OA
BRANCH  15  16
ATOM     16  C   UNL     1       1.866   7.903  19.576  0.00  0.00    +0.000 A 
ATOM     17  C   UNL     1       1.612   7.636  20.930  0.00  0.00    +0.000 A 
ATOM     18  C   UNL     1       0.983   8.571  21.749  0.00  0.00    +0.000 A 
ATOM     19  C   UNL     1       0.597   9.801  21.235  0.00  0.00    +0.000 A 
ATOM     20  C   UNL     1       0.863  10.100  19.900  0.00  0.00    +0.000 A 
ATOM     21  C   UNL     1       1.505   9.169  19.062  0.00  0.00    +0.000 A 
ATOM     22  C   UNL     1       1.779   9.564  17.637  0.00  0.00    +0.000 C 
ENDBRANCH  15  16
ENDBRANCH  10  15
TORSDOF 4
ENDMDL
MODEL 2
REMARK VINA RESULT:      -6.8      1.762      4.199
REMARK  Name = 
REMARK  6 active torsions:
REMARK  status: ('A' for Active; 'I' for Inactive)
REMARK    1  A    between atoms: C_1  and  N_2
REMARK    2  A    between atoms: N_2  and  C_3
REMARK    3  A    between atoms: C_3  and  C_4
REMARK    4  A    between atoms: C_13  and  O_14
REMARK    5  A    between atoms: O_14  and  C_15
REMARK    6  A    between atoms: C_20  and  C_21
REMARK                            x       y       z     vdW  Elec       q    Type
REMARK                         _______ _______ _______ _____ _____    ______ ____
ROOT
ATOM      1  C   UNL     1       2.307   4.531  18.734  0.00  0.00    +0.000 C 
ATOM      2  C   UNL     1       3.020   3.935  19.947  0.00  0.00    +0.000 C 
ATOM      3  S   UNL     1       4.740   3.448  19.615  0.00  0.00    +0.000 S 
ATOM      4  C   UNL     1       5.265   4.757  18.516  0.00  0.00    +0.000 A 
ATOM      5  C   UNL     1       6.584   4.673  18.041  0.00  0.00    +0.000 A 
ATOM      6  C   UNL     1       7.092   5.619  17.148  0.00  0.00    +0.000 A 
ATOM      7  C   UNL     1       6.295   6.681  16.743  0.00  0.00    +0.000 A 
ATOM      8  C   UNL     1       4.983   6.775  17.203  0.00  0.00    +0.000 A 
ATOM      9  C   UNL     1       4.440   5.799  18.067  0.00  0.00    +0.000 A 
ATOM     10  C   UNL     1       2.953   5.888  18.382  0.00  0.00    +0.000 C 
ENDROOT
BRANCH   1  11
ATOM     11  C   UNL     1       2.221   3.604  17.498  0.00  0.00    +0.000 C 
BRANCH  11  13
ATOM     12  C   UNL     1       0.630   2.244  18.702  0.00  0.00    +0.000 C 
ATOM     13  N   UNL     1       1.829   2.240  17.871  0.00  0.00    +0.000 NA
ATOM     14  H   UNL     1       1.624   1.701  17.029  0.00  0.00    +0.000 HD
ENDBRANCH  11  13
ENDBRANCH   1  11
BRANCH  10  15
ATOM     15  O   UNL     1       2.753   6.838  19.450  0.00  0.00    +0.000 OA
BRANCH  15  16
ATOM     16  C   UNL     1       2.079   8.005  19.174  0.00  0.00    +0.000 A 
ATOM     17  C   UNL     1       2.142   8.685  17.947  0.00  0.00    +0.000 A 
ATOM     18  C   UNL     1       1.473   9.891  17.750  0.00  0.00    +0.000 A 
ATOM     19  C   UNL     1       0.718  10.445  18.774  0.00  0.00    +0.000 A 
ATOM     20  C   UNL     1       0.619   9.776  19.992  0.00  0.00    +0.000 A 
ATOM     21  C   UNL     1       1.282   8.553  20.204  0.00  0.00    +0.000 A 
ATOM     22  C   UNL     1       1.117   7.874  21.536  0.00  0.00    +0.000 C 
ENDBRANCH  15  16
ENDBRANCH  10  15
TORSDOF 4
ENDMDL
MODEL 3
REMARK VINA RESULT:      -6.7      1.911      3.773
REMARK  Name = 
REMARK  6 active torsions:
REMARK  status: ('A' for Active; 'I' for Inactive)
REMARK    1  A    between atoms: C_1  and  N_2
REMARK    2  A    between atoms: N_2  and  C_3
REMARK    3  A    between atoms: C_3  and  C_4
REMARK    4  A    between atoms: C_13  and  O_14
REMARK    5  A    between atoms: O_14  and  C_15
REMARK    6  A    between atoms: C_20  and  C_21
REMARK                            x       y       z     vdW  Elec       q    Type
REMARK                         _______ _______ _______ _____ _____    ______ ____
ROOT
ATOM      1  C   UNL     1       2.044   5.052  19.225  0.00  0.00    +0.000 C 
ATOM      2  C   UNL     1       3.067   4.480  20.204  0.00  0.00    +0.000 C 
ATOM      3  S   UNL     1       4.524   3.752  19.394  0.00  0.00    +0.000 S 
ATOM      4  C   UNL     1       4.763   4.883  18.030  0.00  0.00    +0.000 A 
ATOM      5  C   UNL     1       5.832   4.592  17.166  0.00  0.00    +0.000 A 
ATOM      6  C   UNL     1       6.091   5.384  16.046  0.00  0.00    +0.000 A 
ATOM      7  C   UNL     1       5.303   6.498  15.792  0.00  0.00    +0.000 A 
ATOM      8  C   UNL     1       4.237   6.797  16.639  0.00  0.00    +0.000 A 
ATOM      9  C   UNL     1       3.931   5.977  17.747  0.00  0.00    +0.000 A 
ATOM     10  C   UNL     1       2.652   6.281  18.514  0.00  0.00    +0.000 C 
ENDROOT
BRANCH   1  11
ATOM     11  C   UNL     1       1.464   4.037  18.210  0.00  0.00    +0.000 C 
BRANCH  11  13
ATOM     12  C   UNL     1       1.498   1.679  18.728  0.00  0.00    +0.000 C 
ATOM     13  N   UNL     1       0.770   2.934  18.884  0.00  0.00    +0.000 NA
ATOM     14  H   UNL     1       0.701   3.133  19.882  0.00  0.00    +0.000 HD
ENDBRANCH  11  13
ENDBRANCH   1  11
BRANCH  10  15
ATOM     15  O   UNL     1       2.909   7.338  19.462  0.00  0.00    +0.000 OA
BRANCH  15  16
ATOM     16  C   UNL     1       1.847   8.087  19.914  0.00  0.00    +0.000 A 
ATOM     17  C   UNL     1       1.190   7.873  21.136  0.00  0.00    +0.000 A 
ATOM     18  C   UNL     1       0.087   8.638  21.512  0.00  0.00    +0.000 A 
ATOM     19  C   UNL     1      -0.382   9.641  20.675  0.00  0.00    +0.000 A 
ATOM     20  C   UNL     1       0.270   9.891  19.470  0.00  0.00    +0.000 A 
ATOM     21  C   UNL     1       1.390   9.132  19.080  0.00  0.00    +0.000 A 
ATOM     22  C   UNL     1       2.058   9.466  17.775  0.00  0.00    +0.000 C 
ENDBRANCH  15  16
ENDBRANCH  10  15
TORSDOF 4
ENDMDL
MODEL 4
REMARK VINA RESULT:      -6.5      2.738      4.891
REMARK  Name = 
REMARK  6 active torsions:
REMARK  status: ('A' for Active; 'I' for Inactive)
REMARK    1  A    between atoms: C_1  and  N_2
REMARK    2  A    between atoms: N_2  and  C_3
REMARK    3  A    between atoms: C_3  and  C_4
REMARK    4  A    between atoms: C_13  and  O_14
REMARK    5  A    between atoms: O_14  and  C_15
REMARK    6  A    between atoms: C_20  and  C_21
REMARK                            x       y       z     vdW  Elec       q    Type
REMARK                         _______ _______ _______ _____ _____    ______ ____
ROOT
ATOM      1  C   UNL     1       4.711   2.022  19.408  0.00  0.00    +0.000 C 
ATOM      2  C   UNL     1       3.780   1.455  18.337  0.00  0.00    +0.000 C 
ATOM      3  S   UNL     1       2.016   1.732  18.685  0.00  0.00    +0.000 S 
ATOM      4  C   UNL     1       2.058   3.367  19.407  0.00  0.00    +0.000 A 
ATOM      5  C   UNL     1       0.822   3.893  19.818  0.00  0.00    +0.000 A 
ATOM      6  C   UNL     1       0.736   5.145  20.429  0.00  0.00    +0.000 A 
ATOM      7  C   UNL     1       1.886   5.903  20.610  0.00  0.00    +0.000 A 
ATOM      8  C   UNL     1       3.119   5.393  20.211  0.00  0.00    +0.000 A 
ATOM      9  C   UNL     1       3.227   4.108  19.637  0.00  0.00    +0.000 A 
ATOM     10  C   UNL     1       4.628   3.564  19.390  0.00  0.00    +0.000 C 
ENDROOT
BRANCH   1  11
ATOM     11  C   UNL     1       4.498   1.458  20.834  0.00  0.00    +0.000 C 
BRANCH  11  13
ATOM     12  C   UNL     1       5.995   0.014  22.059  0.00  0.00    +0.000 C 
ATOM     13  N   UNL     1       5.761   1.370  21.576  0.00  0.00    +0.000 NA
ATOM     14  H   UNL     1       6.535   1.622  20.962  0.00  0.00    +0.000 HD
ENDBRANCH  11  13
ENDBRANCH   1  11
BRANCH  10  15
ATOM     15  O   UNL     1       5.122   4.083  18.137  0.00  0.00    +0.000 OA
BRANCH  15  16
ATOM     16  C   UNL     1       6.080   5.070  18.167  0.00  0.00    +0.000 A 
ATOM     17  C   UNL     1       7.104   5.152  19.124  0.00  0.00    +0.000 A 
ATOM     18  C   UNL     1       8.013   6.208  19.126  0.00  0.00    +0.000 A 
ATOM     19  C   UNL     1       7.924   7.206  18.166  0.00  0.00    +0.000 A 
ATOM     20  C   UNL     1       6.933   7.133  17.189  0.00  0.00    +0.000 A 
ATOM     21  C   UNL     1       6.012   6.068  17.169  0.00  0.00    +0.000 A 
ATOM     22  C   UNL     1       4.980   6.040  16.076  0.00  0.00    +0.000 C 
ENDBRANCH  15  16
ENDBRANCH  10  15
TORSDOF 4
ENDMDL
MODEL 5
REMARK VINA RESULT:      -6.3      2.708      5.114
REMARK  Name = 
REMARK  6 active torsions:
REMARK  status: ('A' for Active; 'I' for Inactive)
REMARK    1  A    between atoms: C_1  and  N_2
REMARK    2  A    between atoms: N_2  and  C_3
REMARK    3  A    between atoms: C_3  and  C_4
REMARK    4  A    between atoms: C_13  and  O_14
REMARK    5  A    between atoms: O_14  and  C_15
REMARK    6  A    between atoms: C_20  and  C_21
REMARK                            x       y       z     vdW  Elec       q    Type
REMARK                         _______ _______ _______ _____ _____    ______ ____
ROOT
ATOM      1  C   UNL     1       5.651   3.920  16.558  0.00  0.00    +0.000 C 
ATOM      2  C   UNL     1       6.795   4.687  17.221  0.00  0.00    +0.000 C 
ATOM      3  S   UNL     1       6.555   6.490  17.229  0.00  0.00    +0.000 S 
ATOM      4  C   UNL     1       4.794   6.603  17.514  0.00  0.00    +0.000 A 
ATOM      5  C   UNL     1       4.258   7.901  17.562  0.00  0.00    +0.000 A 
ATOM      6  C   UNL     1       2.890   8.112  17.742  0.00  0.00    +0.000 A 
ATOM      7  C   UNL     1       2.042   7.025  17.908  0.00  0.00    +0.000 A 
ATOM      8  C   UNL     1       2.558   5.732  17.859  0.00  0.00    +0.000 A 
ATOM      9  C   UNL     1       3.932   5.502  17.628  0.00  0.00    +0.000 A 
ATOM     10  C   UNL     1       4.378   4.061  17.421  0.00  0.00    +0.000 C 
ENDROOT
BRANCH   1  11
ATOM     11  C   UNL     1       5.380   4.288  15.079  0.00  0.00    +0.000 C 
BRANCH  11  13
ATOM     12  C   UNL     1       5.855   3.591  12.817  0.00  0.00    +0.000 C 
ATOM     13  N   UNL     1       6.367   3.680  14.180  0.00  0.00    +0.000 NA
ATOM     14  H   UNL     1       7.211   4.254  14.161  0.00  0.00    +0.000 HD
ENDBRANCH  11  13
ENDBRANCH   1  11
BRANCH  10  15
ATOM     15  O   UNL     1       4.566   3.435  18.707  0.00  0.00    +0.000 OA
BRANCH  15  16
ATOM     16  C   UNL     1       3.477   3.296  19.536  0.00  0.00    +0.000 A 
ATOM     17  C   UNL     1       3.350   3.914  20.790  0.00  0.00    +0.000 A 
ATOM     18  C   UNL     1       2.240   3.691  21.601  0.00  0.00    +0.000 A 
ATOM     19  C   UNL     1       1.224   2.848  21.174  0.00  0.00    +0.000 A 
ATOM     20  C   UNL     1       1.313   2.243  19.922  0.00  0.00    +0.000 A 
ATOM     21  C   UNL     1       2.425   2.465  19.088  0.00  0.00    +0.000 A 
ATOM     22  C   UNL     1       2.449   1.797  17.741  0.00  0.00    +0.000 C 
ENDBRANCH  15  16
ENDBRANCH  10  15
TORSDOF 4
ENDMDL
MODEL 6
REMARK VINA RESULT:      -6.3      3.700      7.063
REMARK  Name = 
REMARK  6 active torsions:
REMARK  status: ('A' for Active; 'I' for Inactive)
REMARK    1  A    between atoms: C_1  and  N_2
REMARK    2  A    between atoms: N_2  and  C_3
REMARK    3  A    between atoms: C_3  and  C_4
REMARK    4  A    between atoms: C_13  and  O_14
REMARK    5  A    between atoms: O_14  and  C_15
REMARK    6  A    between atoms: C_20  and  C_21
REMARK                            x       y       z     vdW  Elec       q    Type
REMARK                         _______ _______ _______ _____ _____    ______ ____
ROOT
ATOM      1  C   UNL     1       0.203   9.982  18.397  0.00  0.00    +0.000 C 
ATOM      2  C   UNL     1       1.042  11.259  18.423  0.00  0.00    +0.000 C 
ATOM      3  S   UNL     1       0.474  12.479  19.648  0.00  0.00    +0.000 S 
ATOM      4  C   UNL     1      -0.019  11.412  20.995  0.00  0.00    +0.000 A 
ATOM      5  C   UNL     1      -0.539  12.054  22.132  0.00  0.00    +0.000 A 
ATOM      6  C   UNL     1      -0.990  11.322  23.232  0.00  0.00    +0.000 A 
ATOM      7  C   UNL     1      -0.899   9.936  23.221  0.00  0.00    +0.000 A 
ATOM      8  C   UNL     1      -0.390   9.286  22.098  0.00  0.00    +0.000 A 
ATOM      9  C   UNL     1       0.024  10.011  20.960  0.00  0.00    +0.000 A 
ATOM     10  C   UNL     1       0.406   9.213  19.720  0.00  0.00    +0.000 C 
ENDROOT
BRANCH   1  11
ATOM     11  C   UNL     1      -1.299  10.187  18.082  0.00  0.00    +0.000 C 
BRANCH  11  13
ATOM     12  C   UNL     1      -2.587  10.729  16.113  0.00  0.00    +0.000 C 
ATOM     13  N   UNL     1      -1.497  11.146  16.989  0.00  0.00    +0.000 NA
ATOM     14  H   UNL     1      -1.738  12.058  17.376  0.00  0.00    +0.000 HD
ENDBRANCH  11  13
ENDBRANCH   1  11
BRANCH  10  15
ATOM     15  O   UNL     1       1.774   8.771  19.845  0.00  0.00    +0.000 OA
BRANCH  15  16
ATOM     16  C   UNL     1       2.038   7.423  19.771  0.00  0.00    +0.000 A 
ATOM     17  C   UNL     1       1.643   6.484  20.736  0.00  0.00    +0.000 A 
ATOM     18  C   UNL     1       1.987   5.138  20.624  0.00  0.00    +0.000 A 
ATOM     19  C   UNL     1       2.730   4.698  19.538  0.00  0.00    +0.000 A 
ATOM     20  C   UNL     1       3.112   5.606  18.552  0.00  0.00    +0.000 A 
ATOM     21  C   UNL     1       2.765   6.967  18.648  0.00  0.00    +0.000 A 
ATOM     22  C   UNL     1       3.192   7.890  17.540  0.00  0.00    +0.000 C 
ENDBRANCH  15  16
ENDBRANCH  10  15
TORSDOF 4
ENDMDL
MODEL 7
REMARK VINA RESULT:      -6.3      4.673      7.726
REMARK  Name = 
REMARK  6 active torsions:
REMARK  status: ('A' for Active; 'I' for Inactive)
REMARK    1  A    between atoms: C_1  and  N_2
REMARK    2  A    between atoms: N_2  and  C_3
REMARK    3  A    between atoms: C_3  and  C_4
REMARK    4  A    between atoms: C_13  and  O_14
REMARK    5  A    between atoms: O_14  and  C_15
REMARK    6  A    between atoms: C_20  and  C_21
REMARK                            x       y       z     vdW  Elec       q    Type
REMARK                         _______ _______ _______ _____ _____    ______ ____
ROOT
ATOM      1  C   UNL     1       0.360  12.561  19.471  0.00  0.00    +0.000 C 
ATOM      2  C   UNL     1      -0.530  12.731  20.701  0.00  0.00    +0.000 C 
ATOM      3  S   UNL     1      -2.303  12.845  20.307  0.00  0.00    +0.000 S 
ATOM      4  C   UNL     1      -2.434  11.677  18.960  0.00  0.00    +0.000 A 
ATOM      5  C   UNL     1      -3.711  11.530  18.392  0.00  0.00    +0.000 A 
ATOM      6  C   UNL     1      -3.927  10.675  17.310  0.00  0.00    +0.000 A 
ATOM      7  C   UNL     1      -2.871   9.930  16.800  0.00  0.00    +0.000 A 
ATOM      8  C   UNL     1      -1.599  10.069  17.351  0.00  0.00    +0.000 A 
ATOM      9  C   UNL     1      -1.356  10.967  18.412  0.00  0.00    +0.000 A 
ATOM     10  C   UNL     1       0.091  11.179  18.836  0.00  0.00    +0.000 C 
ENDROOT
BRANCH   1  11
ATOM     11  C   UNL     1       0.261  13.696  18.424  0.00  0.00    +0.000 C 
BRANCH  11  13
ATOM     12  C   UNL     1       2.389  14.611  19.107  0.00  0.00    +0.000 C 
ATOM     13  N   UNL     1       0.980  14.899  18.861  0.00  0.00    +0.000 NA
ATOM     14  H   UNL     1       0.929  15.610  18.131  0.00  0.00    +0.000 HD
ENDBRANCH  11  13
ENDBRANCH   1  11
BRANCH  10  15
ATOM     15  O   UNL     1       0.479  10.122  19.740  0.00  0.00    +0.000 OA
BRANCH  15  16
ATOM     16  C   UNL     1       1.315   9.134  19.274  0.00  0.00    +0.000 A 
ATOM     17  C   UNL     1       1.911   9.133  18.003  0.00  0.00    +0.000 A 
ATOM     18  C   UNL     1       2.708   8.074  17.575  0.00  0.00    +0.000 A 
ATOM     19  C   UNL     1       2.935   6.990  18.412  0.00  0.00    +0.000 A 
ATOM     20  C   UNL     1       2.377   6.979  19.689  0.00  0.00    +0.000 A 
ATOM     21  C   UNL     1       1.575   8.046  20.138  0.00  0.00    +0.000 A 
ATOM     22  C   UNL     1       1.019   7.980  21.534  0.00  0.00    +0.000 C 
ENDBRANCH  15  16
ENDBRANCH  10  15
TORSDOF 4
ENDMDL
MODEL 8
REMARK VINA RESULT:      -6.2      2.590      5.660
REMARK  Name = 
REMARK  6 active torsions:
REMARK  status: ('A' for Active; 'I' for Inactive)
REMARK    1  A    between atoms: C_1  and  N_2
REMARK    2  A    between atoms: N_2  and  C_3
REMARK    3  A    between atoms: C_3  and  C_4
REMARK    4  A    between atoms: C_13  and  O_14
REMARK    5  A    between atoms: O_14  and  C_15
REMARK    6  A    between atoms: C_20  and  C_21
REMARK                            x       y       z     vdW  Elec       q    Type
REMARK                         _______ _______ _______ _____ _____    ______ ____
ROOT
ATOM      1  C   UNL     1       3.262   6.692  18.032  0.00  0.00    +0.000 C 
ATOM      2  C   UNL     1       3.654   6.833  19.502  0.00  0.00    +0.000 C 
ATOM      3  S   UNL     1       2.441   6.114  20.652  0.00  0.00    +0.000 S 
ATOM      4  C   UNL     1       1.924   4.662  19.746  0.00  0.00    +0.000 A 
ATOM      5  C   UNL     1       0.947   3.864  20.364  0.00  0.00    +0.000 A 
ATOM      6  C   UNL     1       0.440   2.725  19.735  0.00  0.00    +0.000 A 
ATOM      7  C   UNL     1       0.926   2.353  18.489  0.00  0.00    +0.000 A 
ATOM      8  C   UNL     1       1.892   3.137  17.862  0.00  0.00    +0.000 A 
ATOM      9  C   UNL     1       2.379   4.318  18.464  0.00  0.00    +0.000 A 
ATOM     10  C   UNL     1       3.303   5.200  17.636  0.00  0.00    +0.000 C 
ENDROOT
BRANCH   1  11
ATOM     11  C   UNL     1       1.915   7.347  17.643  0.00  0.00    +0.000 C 
BRANCH  11  13
ATOM     12  C   UNL     1       1.110   9.531  18.287  0.00  0.00    +0.000 C 
ATOM     13  N   UNL     1       2.053   8.795  17.451  0.00  0.00    +0.000 NA
ATOM     14  H   UNL     1       2.995   9.086  17.713  0.00  0.00    +0.000 HD
ENDBRANCH  11  13
ENDBRANCH   1  11
BRANCH  10  15
ATOM     15  O   UNL     1       4.650   4.689  17.725  0.00  0.00    +0.000 OA
BRANCH  15  16
ATOM     16  C   UNL     1       5.427   4.687  16.590  0.00  0.00    +0.000 A 
ATOM     17  C   UNL     1       5.042   4.118  15.366  0.00  0.00    +0.000 A 
ATOM     18  C   UNL     1       5.900   4.107  14.268  0.00  0.00    +0.000 A 
ATOM     19  C   UNL     1       7.164   4.671  14.366  0.00  0.00    +0.000 A 
ATOM     20  C   UNL     1       7.560   5.265  15.562  0.00  0.00    +0.000 A 
ATOM     21  C   UNL     1       6.702   5.292  16.677  0.00  0.00    +0.000 A 
ATOM     22  C   UNL     1       7.184   5.967  17.932  0.00  0.00    +0.000 C 
ENDBRANCH  15  16
ENDBRANCH  10  15
TORSDOF 4
ENDMDL
MODEL 9
REMARK VINA RESULT:      -6.2      1.222      2.013
REMARK  Name = 
REMARK  6 active torsions:
REMARK  status: ('A' for Active; 'I' for Inactive)
REMARK    1  A    between atoms: C_1  and  N_2
REMARK    2  A    between atoms: N_2  and  C_3
REMARK    3  A    between atoms: C_3  and  C_4
REMARK    4  A    between atoms: C_13  and  O_14
REMARK    5  A    between atoms: O_14  and  C_15
REMARK    6  A    between atoms: C_20  and  C_21
REMARK                            x       y       z     vdW  Elec       q    Type
REMARK                         _______ _______ _______ _____ _____    ______ ____
ROOT
ATOM      1  C   UNL     1       4.364   6.124  18.264  0.00  0.00    +0.000 C 
ATOM      2  C   UNL     1       4.000   5.211  17.094  0.00  0.00    +0.000 C 
ATOM      3  S   UNL     1       3.910   3.451  17.544  0.00  0.00    +0.000 S 
ATOM      4  C   UNL     1       3.192   3.548  19.179  0.00  0.00    +0.000 A 
ATOM      5  C   UNL     1       2.997   2.324  19.842  0.00  0.00    +0.000 A 
ATOM      6  C   UNL     1       2.478   2.279  21.137  0.00  0.00    +0.000 A 
ATOM      7  C   UNL     1       2.118   3.457  21.776  0.00  0.00    +0.000 A 
ATOM      8  C   UNL     1       2.310   4.678  21.133  0.00  0.00    +0.000 A 
ATOM      9  C   UNL     1       2.879   4.743  19.843  0.00  0.00    +0.000 A 
ATOM     10  C   UNL     1       3.209   6.122  19.289  0.00  0.00    +0.000 C 
ENDROOT
BRANCH   1  11
ATOM     11  C   UNL     1       5.724   5.820  18.939  0.00  0.00    +0.000 C 
BRANCH  11  13
ATOM     12  C   UNL     1       7.606   4.751  17.869  0.00  0.00    +0.000 C 
ATOM     13  N   UNL     1       6.841   5.986  18.003  0.00  0.00    +0.000 NA
ATOM     14  H   UNL     1       6.481   6.232  17.081  0.00  0.00    +0.000 HD
ENDBRANCH  11  13
ENDBRANCH   1  11
BRANCH  10  15
ATOM     15  O   UNL     1       2.018   6.697  18.710  0.00  0.00    +0.000 OA
BRANCH  15  16
ATOM     16  C   UNL     1       1.853   8.061  18.765  0.00  0.00    +0.000 A 
ATOM     17  C   UNL     1       2.202   8.944  17.731  0.00  0.00    +0.000 A 
ATOM     18  C   UNL     1       2.054  10.322  17.872  0.00  0.00    +0.000 A 
ATOM     19  C   UNL     1       1.547  10.852  19.050  0.00  0.00    +0.000 A 
ATOM     20  C   UNL     1       1.167   9.995  20.081  0.00  0.00    +0.000 A 
ATOM     21  C   UNL     1       1.303   8.600  19.950  0.00  0.00    +0.000 A 
ATOM     22  C   UNL     1       0.856   7.730  21.093  0.00  0.00    +0.000 C 
ENDBRANCH  15  16
ENDBRANCH  10  15
TORSDOF 4
ENDMDL
