MODEL 1
REMARK VINA RESULT:      -8.9      0.000      0.000
REMARK  Name = 
REMARK  9 active torsions:
REMARK  status: ('A' for Active; 'I' for Inactive)
REMARK    1  A    between atoms: C_2  and  C_4
REMARK    2  A    between atoms: C_7  and  O_8
REMARK    3  A    between atoms: O_8  and  C_9
REMARK    4  A    between atoms: C_9  and  C_10
REMARK    5  A    between atoms: C_15  and  N_16
REMARK    6  A    between atoms: N_16  and  C_17
REMARK    7  A    between atoms: C_17  and  C_18
REMARK    8  A    between atoms: C_24  and  C_26
REMARK    9  A    between atoms: C_26  and  O_28
REMARK                            x       y       z     vdW  Elec       q    Type
REMARK                         _______ _______ _______ _____ _____    ______ ____
ROOT
ATOM      1  C   UNL     1       2.761   5.773  18.286  0.00  0.00    +0.000 C 
ATOM      2  C   UNL     1       3.757   6.819  17.778  0.00  0.00    +0.000 C 
ATOM      3  O   UNL     1       3.006   8.001  17.430  0.00  0.00    +0.000 OA
ATOM      4  C   UNL     1       2.198   8.369  18.485  0.00  0.00    +0.000 A 
ATOM      5  C   UNL     1       1.500   9.579  18.382  0.00  0.00    +0.000 A 
ATOM      6  C   UNL     1       0.764  10.041  19.478  0.00  0.00    +0.000 A 
ATOM      7  C   UNL     1       0.864   9.361  20.701  0.00  0.00    +0.000 A 
ATOM      8  C   UNL     1       1.494   8.106  20.767  0.00  0.00    +0.000 A 
ATOM      9  C   UNL     1       2.056   7.556  19.621  0.00  0.00    +0.000 A 
ATOM     10  O   UNL     1       2.434   6.218  19.634  0.00  0.00    +0.000 OA
ENDROOT
BRANCH   6  11
ATOM     11  N   UNL     1      -0.245  11.042  19.335  0.00  0.00    +0.000 N 
ATOM     12  C   UNL     1       0.028  12.395  19.529  0.00  0.00    +0.000 C 
ATOM     13  O   UNL     1      -0.812  13.294  19.443  0.00  0.00    +0.000 OA
BRANCH  12  14
ATOM     14  C   UNL     1       1.442  12.881  19.975  0.00  0.00    +0.000 C 
ATOM     15  O   UNL     1       1.959  12.774  21.063  0.00  0.00    +0.000 OA
BRANCH  14  16
ATOM     16  O   UNL     1       2.029  13.518  18.931  0.00  0.00    +0.000 OA
ATOM     17  H   UNL     1       2.918  13.118  18.775  0.00  0.00    +0.000 HD
ENDBRANCH  14  16
ENDBRANCH  12  14
BRANCH  11  18
ATOM     18  C   UNL     1      -1.657  10.644  19.354  0.00  0.00    +0.000 C 
BRANCH  18  19
ATOM     19  C   UNL     1      -2.363  10.726  18.014  0.00  0.00    +0.000 A 
ATOM     20  C   UNL     1      -1.912   9.936  16.947  0.00  0.00    +0.000 A 
ATOM     21  C   UNL     1      -2.646   9.857  15.759  0.00  0.00    +0.000 A 
ATOM     22  C   UNL     1      -3.827  10.582  15.614  0.00  0.00    +0.000 A 
ATOM     23  C   UNL     1      -4.257  11.414  16.646  0.00  0.00    +0.000 A 
ATOM     24  C   UNL     1      -3.527  11.491  17.837  0.00  0.00    +0.000 A 
ENDBRANCH  18  19
ENDBRANCH  11  18
ENDBRANCH   6  11
BRANCH   1  25
ATOM     25  C   UNL     1       3.373   4.350  18.221  0.00  0.00    +0.000 C 
BRANCH  25  26
ATOM     26  O   UNL     1       4.820   4.344  18.249  0.00  0.00    +0.000 OA
BRANCH  26  30
ATOM     27  C   UNL     1       6.863   4.711  14.579  0.00  0.00    +0.000 A 
ATOM     28  C   UNL     1       7.447   5.094  15.788  0.00  0.00    +0.000 A 
ATOM     29  C   UNL     1       6.747   4.934  17.000  0.00  0.00    +0.000 A 
ATOM     30  C   UNL     1       5.451   4.399  17.021  0.00  0.00    +0.000 A 
ATOM     31  C   UNL     1       4.912   3.941  15.815  0.00  0.00    +0.000 A 
ATOM     32  C   UNL     1       5.603   4.102  14.603  0.00  0.00    +0.000 A 
BRANCH  27  34
ATOM     33  N   UNL     1       8.529   5.822  13.210  0.00  0.00    +0.000 NA
ATOM     34  C   UNL     1       7.561   4.967  13.275  0.00  0.00    +0.000 C 
ATOM     35  N   UNL     1       7.150   4.318  12.143  0.00  0.00    +0.000 N 
ATOM     36  H   UNL     1       8.903   5.844  12.257  0.00  0.00    +0.000 HD
ATOM     37  H   UNL     1       7.411   4.756  11.267  0.00  0.00    +0.000 HD
ATOM     38  H   UNL     1       6.172   4.039  12.136  0.00  0.00    +0.000 HD
ENDBRANCH  27  34
ENDBRANCH  26  30
ENDBRANCH  25  26
ENDBRANCH   1  25
TORSDOF 9
ENDMDL
MODEL 2
REMARK VINA RESULT:      -8.9      5.345      8.392
REMARK  Name = 
REMARK  9 active torsions:
REMARK  status: ('A' for Active; 'I' for Inactive)
REMARK    1  A    between atoms: C_2  and  C_4
REMARK    2  A    between atoms: C_7  and  O_8
REMARK    3  A    between atoms: O_8  and  C_9
REMARK    4  A    between atoms: C_9  and  C_10
REMARK    5  A    between atoms: C_15  and  N_16
REMARK    6  A    between atoms: N_16  and  C_17
REMARK    7  A    between atoms: C_17  and  C_18
REMARK    8  A    between atoms: C_24  and  C_26
REMARK    9  A    between atoms: C_26  and  O_28
REMARK                            x       y       z     vdW  Elec       q    Type
REMARK                         _______ _______ _______ _____ _____    ______ ____
ROOT
ATOM      1  C   UNL     1       7.487   7.971  17.898  0.00  0.00    +0.000 C 
ATOM      2  C   UNL     1       8.230   6.851  18.633  0.00  0.00    +0.000 C 
ATOM      3  O   UNL     1       7.257   6.122  19.410  0.00  0.00    +0.000 OA
ATOM      4  C   UNL     1       6.202   5.748  18.606  0.00  0.00    +0.000 A 
ATOM      5  C   UNL     1       5.226   4.906  19.157  0.00  0.00    +0.000 A 
ATOM      6  C   UNL     1       4.205   4.413  18.339  0.00  0.00    +0.000 A 
ATOM      7  C   UNL     1       4.267   4.647  16.957  0.00  0.00    +0.000 A 
ATOM      8  C   UNL     1       5.196   5.562  16.432  0.00  0.00    +0.000 A 
ATOM      9  C   UNL     1       6.087   6.205  17.284  0.00  0.00    +0.000 A 
ATOM     10  O   UNL     1       6.811   7.291  16.802  0.00  0.00    +0.000 OA
ENDROOT
BRANCH   6  11
ATOM     11  N   UNL     1       3.003   3.871  18.886  0.00  0.00    +0.000 N 
ATOM     12  C   UNL     1       2.888   2.522  19.220  0.00  0.00    +0.000 C 
ATOM     13  O   UNL     1       1.865   2.002  19.670  0.00  0.00    +0.000 OA
BRANCH  12  14
ATOM     14  C   UNL     1       4.053   1.520  18.954  0.00  0.00    +0.000 C 
ATOM     15  O   UNL     1       4.177   0.748  18.032  0.00  0.00    +0.000 OA
BRANCH  14  16
ATOM     16  O   UNL     1       4.937   1.603  19.980  0.00  0.00    +0.000 OA
ATOM     17  H   UNL     1       4.653   0.983  20.694  0.00  0.00    +0.000 HD
ENDBRANCH  14  16
ENDBRANCH  12  14
BRANCH  11  18
ATOM     18  C   UNL     1       1.752   4.628  18.757  0.00  0.00    +0.000 C 
BRANCH  18  19
ATOM     19  C   UNL     1       1.823   6.067  19.230  0.00  0.00    +0.000 A 
ATOM     20  C   UNL     1       2.053   7.089  18.299  0.00  0.00    +0.000 A 
ATOM     21  C   UNL     1       1.948   8.432  18.674  0.00  0.00    +0.000 A 
ATOM     22  C   UNL     1       1.633   8.771  19.989  0.00  0.00    +0.000 A 
ATOM     23  C   UNL     1       1.457   7.765  20.938  0.00  0.00    +0.000 A 
ATOM     24  C   UNL     1       1.558   6.421  20.563  0.00  0.00    +0.000 A 
ENDBRANCH  18  19
ENDBRANCH  11  18
ENDBRANCH   6  11
BRANCH   1  25
ATOM     25  C   UNL     1       8.471   9.080  17.443  0.00  0.00    +0.000 C 
BRANCH  25  26
ATOM     26  O   UNL     1       8.805  10.019  18.493  0.00  0.00    +0.000 OA
BRANCH  26  30
ATOM     27  C   UNL     1      10.604  13.661  17.360  0.00  0.00    +0.000 A 
ATOM     28  C   UNL     1      11.353  12.499  17.555  0.00  0.00    +0.000 A 
ATOM     29  C   UNL     1      10.718  11.292  17.908  0.00  0.00    +0.000 A 
ATOM     30  C   UNL     1       9.329  11.229  18.081  0.00  0.00    +0.000 A 
ATOM     31  C   UNL     1       8.581  12.377  17.800  0.00  0.00    +0.000 A 
ATOM     32  C   UNL     1       9.209  13.585  17.453  0.00  0.00    +0.000 A 
BRANCH  27  34
ATOM     33  N   UNL     1      12.331  15.319  17.746  0.00  0.00    +0.000 NA
ATOM     34  C   UNL     1      11.279  14.971  17.080  0.00  0.00    +0.000 C 
ATOM     35  N   UNL     1      10.759  15.818  16.139  0.00  0.00    +0.000 N 
ATOM     36  H   UNL     1      12.672  16.221  17.403  0.00  0.00    +0.000 HD
ATOM     37  H   UNL     1      11.036  16.789  16.223  0.00  0.00    +0.000 HD
ATOM     38  H   UNL     1       9.758  15.734  15.988  0.00  0.00    +0.000 HD
ENDBRANCH  27  34
ENDBRANCH  26  30
ENDBRANCH  25  26
ENDBRANCH   1  25
TORSDOF 9
ENDMDL
MODEL 3
REMARK VINA RESULT:      -8.8      3.179     10.530
REMARK  Name = 
REMARK  9 active torsions:
REMARK  status: ('A' for Active; 'I' for Inactive)
REMARK    1  A    between atoms: C_2  and  C_4
REMARK    2  A    between atoms: C_7  and  O_8
REMARK    3  A    between atoms: O_8  and  C_9
REMARK    4  A    between atoms: C_9  and  C_10
REMARK    5  A    between atoms: C_15  and  N_16
REMARK    6  A    between atoms: N_16  and  C_17
REMARK    7  A    between atoms: C_17  and  C_18
REMARK    8  A    between atoms: C_24  and  C_26
REMARK    9  A    between atoms: C_26  and  O_28
REMARK                            x       y       z     vdW  Elec       q    Type
REMARK                         _______ _______ _______ _____ _____    ______ ____
ROOT
ATOM      1  C   UNL     1       1.241  10.665  19.611  0.00  0.00    +0.000 C 
ATOM      2  C   UNL     1       0.469  10.154  18.391  0.00  0.00    +0.000 C 
ATOM      3  O   UNL     1       1.248   9.094  17.798  0.00  0.00    +0.000 OA
ATOM      4  C   UNL     1       1.581   8.164  18.760  0.00  0.00    +0.000 A 
ATOM      5  C   UNL     1       2.217   6.988  18.339  0.00  0.00    +0.000 A 
ATOM      6  C   UNL     1       2.464   5.974  19.269  0.00  0.00    +0.000 A 
ATOM      7  C   UNL     1       1.936   6.092  20.563  0.00  0.00    +0.000 A 
ATOM      8  C   UNL     1       1.380   7.308  20.996  0.00  0.00    +0.000 A 
ATOM      9  C   UNL     1       1.316   8.387  20.120  0.00  0.00    +0.000 A 
ATOM     10  O   UNL     1       1.016   9.646  20.627  0.00  0.00    +0.000 OA
ENDROOT
BRANCH   6  11
ATOM     11  N   UNL     1       3.410   4.936  19.011  0.00  0.00    +0.000 N 
ATOM     12  C   UNL     1       3.043   3.591  19.000  0.00  0.00    +0.000 C 
ATOM     13  O   UNL     1       3.826   2.658  18.808  0.00  0.00    +0.000 OA
BRANCH  12  14
ATOM     14  C   UNL     1       1.586   3.146  19.333  0.00  0.00    +0.000 C 
ATOM     15  O   UNL     1       1.136   2.799  20.400  0.00  0.00    +0.000 OA
BRANCH  14  16
ATOM     16  O   UNL     1       0.859   3.157  18.187  0.00  0.00    +0.000 OA
ATOM     17  H   UNL     1       0.572   4.083  18.002  0.00  0.00    +0.000 HD
ENDBRANCH  14  16
ENDBRANCH  12  14
BRANCH  11  18
ATOM     18  C   UNL     1       4.844   5.227  19.125  0.00  0.00    +0.000 C 
BRANCH  18  19
ATOM     19  C   UNL     1       5.599   5.253  17.810  0.00  0.00    +0.000 A 
ATOM     20  C   UNL     1       6.900   4.736  17.751  0.00  0.00    +0.000 A 
ATOM     21  C   UNL     1       7.552   4.583  16.523  0.00  0.00    +0.000 A 
ATOM     22  C   UNL     1       6.920   4.966  15.341  0.00  0.00    +0.000 A 
ATOM     23  C   UNL     1       5.648   5.534  15.391  0.00  0.00    +0.000 A 
ATOM     24  C   UNL     1       4.993   5.683  16.618  0.00  0.00    +0.000 A 
ENDBRANCH  18  19
ENDBRANCH  11  18
ENDBRANCH   6  11
BRANCH   1  25
ATOM     25  C   UNL     1       0.757  12.081  20.017  0.00  0.00    +0.000 C 
BRANCH  25  26
ATOM     26  O   UNL     1      -0.658  12.291  19.798  0.00  0.00    +0.000 OA
BRANCH  26  30
ATOM     27  C   UNL     1      -3.202  12.541  23.152  0.00  0.00    +0.000 A 
ATOM     28  C   UNL     1      -3.650  12.841  21.864  0.00  0.00    +0.000 A 
ATOM     29  C   UNL     1      -2.781  12.722  20.761  0.00  0.00    +0.000 A 
ATOM     30  C   UNL     1      -1.451  12.313  20.929  0.00  0.00    +0.000 A 
ATOM     31  C   UNL     1      -1.039  11.934  22.211  0.00  0.00    +0.000 A 
ATOM     32  C   UNL     1      -1.899  12.055  23.314  0.00  0.00    +0.000 A 
BRANCH  27  34
ATOM     33  N   UNL     1      -3.953  13.815  25.074  0.00  0.00    +0.000 NA
ATOM     34  C   UNL     1      -4.089  12.758  24.342  0.00  0.00    +0.000 C 
ATOM     35  N   UNL     1      -5.024  11.816  24.676  0.00  0.00    +0.000 N 
ATOM     36  H   UNL     1      -4.657  13.810  25.817  0.00  0.00    +0.000 HD
ATOM     37  H   UNL     1      -5.348  11.841  25.636  0.00  0.00    +0.000 HD
ATOM     38  H   UNL     1      -4.801  10.866  24.390  0.00  0.00    +0.000 HD
ENDBRANCH  27  34
ENDBRANCH  26  30
ENDBRANCH  25  26
ENDBRANCH   1  25
TORSDOF 9
ENDMDL
MODEL 4
REMARK VINA RESULT:      -8.6      0.241      1.299
REMARK  Name = 
REMARK  9 active torsions:
REMARK  status: ('A' for Active; 'I' for Inactive)
REMARK    1  A    between atoms: C_2  and  C_4
REMARK    2  A    between atoms: C_7  and  O_8
REMARK    3  A    between atoms: O_8  and  C_9
REMARK    4  A    between atoms: C_9  and  C_10
REMARK    5  A    between atoms: C_15  and  N_16
REMARK    6  A    between atoms: N_16  and  C_17
REMARK    7  A    between atoms: C_17  and  C_18
REMARK    8  A    between atoms: C_24  and  C_26
REMARK    9  A    between atoms: C_26  and  O_28
REMARK                            x       y       z     vdW  Elec       q    Type
REMARK                         _______ _______ _______ _____ _____    ______ ____
ROOT
ATOM      1  C   UNL     1       2.793   5.786  18.236  0.00  0.00    +0.000 C 
ATOM      2  C   UNL     1       3.813   6.840  17.794  0.00  0.00    +0.000 C 
ATOM      3  O   UNL     1       3.082   8.039  17.464  0.00  0.00    +0.000 OA
ATOM      4  C   UNL     1       2.245   8.379  18.505  0.00  0.00    +0.000 A 
ATOM      5  C   UNL     1       1.559   9.598  18.422  0.00  0.00    +0.000 A 
ATOM      6  C   UNL     1       0.794  10.029  19.509  0.00  0.00    +0.000 A 
ATOM      7  C   UNL     1       0.851   9.308  20.711  0.00  0.00    +0.000 A 
ATOM      8  C   UNL     1       1.468   8.046  20.754  0.00  0.00    +0.000 A 
ATOM      9  C   UNL     1       2.061   7.529  19.607  0.00  0.00    +0.000 A 
ATOM     10  O   UNL     1       2.427   6.188  19.587  0.00  0.00    +0.000 OA
ENDROOT
BRANCH   6  11
ATOM     11  N   UNL     1      -0.202  11.044  19.370  0.00  0.00    +0.000 N 
ATOM     12  C   UNL     1       0.109  12.399  19.468  0.00  0.00    +0.000 C 
ATOM     13  O   UNL     1      -0.717  13.310  19.380  0.00  0.00    +0.000 OA
BRANCH  12  14
ATOM     14  C   UNL     1       1.557  12.876  19.799  0.00  0.00    +0.000 C 
ATOM     15  O   UNL     1       2.456  13.121  19.029  0.00  0.00    +0.000 OA
BRANCH  14  16
ATOM     16  O   UNL     1       1.693  12.939  21.147  0.00  0.00    +0.000 OA
ATOM     17  H   UNL     1       0.806  12.823  21.562  0.00  0.00    +0.000 HD
ENDBRANCH  14  16
ENDBRANCH  12  14
BRANCH  11  18
ATOM     18  C   UNL     1      -1.618  10.680  19.497  0.00  0.00    +0.000 C 
BRANCH  18  19
ATOM     19  C   UNL     1      -2.385  10.628  18.190  0.00  0.00    +0.000 A 
ATOM     20  C   UNL     1      -3.579  11.351  18.059  0.00  0.00    +0.000 A 
ATOM     21  C   UNL     1      -4.212  11.464  16.818  0.00  0.00    +0.000 A 
ATOM     22  C   UNL     1      -3.673  10.838  15.696  0.00  0.00    +0.000 A 
ATOM     23  C   UNL     1      -2.517  10.069  15.822  0.00  0.00    +0.000 A 
ATOM     24  C   UNL     1      -1.880   9.959  17.063  0.00  0.00    +0.000 A 
ENDBRANCH  18  19
ENDBRANCH  11  18
ENDBRANCH   6  11
BRANCH   1  25
ATOM     25  C   UNL     1       3.396   4.360  18.141  0.00  0.00    +0.000 C 
BRANCH  25  26
ATOM     26  O   UNL     1       4.842   4.342  18.189  0.00  0.00    +0.000 OA
BRANCH  26  30
ATOM     27  C   UNL     1       6.694   4.748  14.423  0.00  0.00    +0.000 A 
ATOM     28  C   UNL     1       5.361   4.355  14.549  0.00  0.00    +0.000 A 
ATOM     29  C   UNL     1       4.764   4.254  15.821  0.00  0.00    +0.000 A 
ATOM     30  C   UNL     1       5.492   4.534  16.986  0.00  0.00    +0.000 A 
ATOM     31  C   UNL     1       6.800   5.009  16.842  0.00  0.00    +0.000 A 
ATOM     32  C   UNL     1       7.401   5.107  15.577  0.00  0.00    +0.000 A 
BRANCH  27  34
ATOM     33  N   UNL     1       8.236   5.678  12.798  0.00  0.00    +0.000 NA
ATOM     34  C   UNL     1       7.366   4.765  13.081  0.00  0.00    +0.000 C 
ATOM     35  N   UNL     1       7.031   3.830  12.140  0.00  0.00    +0.000 N 
ATOM     36  H   UNL     1       8.610   5.516  11.859  0.00  0.00    +0.000 HD
ATOM     37  H   UNL     1       7.247   4.076  11.181  0.00  0.00    +0.000 HD
ATOM     38  H   UNL     1       6.090   3.456  12.218  0.00  0.00    +0.000 HD
ENDBRANCH  27  34
ENDBRANCH  26  30
ENDBRANCH  25  26
ENDBRANCH   1  25
TORSDOF 9
ENDMDL
MODEL 5
REMARK VINA RESULT:      -8.6      2.990      9.942
REMARK  Name = 
REMARK  9 active torsions:
REMARK  status: ('A' for Active; 'I' for Inactive)
REMARK    1  A    between atoms: C_2  and  C_4
REMARK    2  A    between atoms: C_7  and  O_8
REMARK    3  A    between atoms: O_8  and  C_9
REMARK    4  A    between atoms: C_9  and  C_10
REMARK    5  A    between atoms: C_15  and  N_16
REMARK    6  A    between atoms: N_16  and  C_17
REMARK    7  A    between atoms: C_17  and  C_18
REMARK    8  A    between atoms: C_24  and  C_26
REMARK    9  A    between atoms: C_26  and  O_28
REMARK                            x       y       z     vdW  Elec       q    Type
REMARK                         _______ _______ _______ _____ _____    ______ ____
ROOT
ATOM      1  C   UNL     1      -0.014   9.745  20.607  0.00  0.00    +0.000 C 
ATOM      2  C   UNL     1       1.169   9.551  21.560  0.00  0.00    +0.000 C 
ATOM      3  O   UNL     1       1.692   8.224  21.337  0.00  0.00    +0.000 OA
ATOM      4  C   UNL     1       1.935   8.036  19.994  0.00  0.00    +0.000 A 
ATOM      5  C   UNL     1       2.580   6.854  19.605  0.00  0.00    +0.000 A 
ATOM      6  C   UNL     1       2.947   6.682  18.267  0.00  0.00    +0.000 A 
ATOM      7  C   UNL     1       2.798   7.756  17.377  0.00  0.00    +0.000 A 
ATOM      8  C   UNL     1       2.073   8.898  17.756  0.00  0.00    +0.000 A 
ATOM      9  C   UNL     1       1.535   8.981  19.035  0.00  0.00    +0.000 A 
ATOM     10  O   UNL     1       0.606   9.978  19.311  0.00  0.00    +0.000 OA
ENDROOT
BRANCH   6  11
ATOM     11  N   UNL     1       3.260   5.394  17.736  0.00  0.00    +0.000 N 
ATOM     12  C   UNL     1       4.337   5.196  16.873  0.00  0.00    +0.000 C 
ATOM     13  O   UNL     1       4.634   4.110  16.369  0.00  0.00    +0.000 OA
BRANCH  12  14
ATOM     14  C   UNL     1       5.221   6.388  16.393  0.00  0.00    +0.000 C 
ATOM     15  O   UNL     1       5.193   6.955  15.325  0.00  0.00    +0.000 OA
BRANCH  14  16
ATOM     16  O   UNL     1       6.108   6.690  17.373  0.00  0.00    +0.000 OA
ATOM     17  H   UNL     1       6.883   7.149  16.970  0.00  0.00    +0.000 HD
ENDBRANCH  14  16
ENDBRANCH  12  14
BRANCH  11  18
ATOM     18  C   UNL     1       2.247   4.334  17.781  0.00  0.00    +0.000 C 
BRANCH  18  19
ATOM     19  C   UNL     1       2.168   3.579  19.094  0.00  0.00    +0.000 A 
ATOM     20  C   UNL     1       3.327   2.999  19.628  0.00  0.00    +0.000 A 
ATOM     21  C   UNL     1       3.323   2.453  20.916  0.00  0.00    +0.000 A 
ATOM     22  C   UNL     1       2.155   2.460  21.677  0.00  0.00    +0.000 A 
ATOM     23  C   UNL     1       0.981   2.983  21.137  0.00  0.00    +0.000 A 
ATOM     24  C   UNL     1       0.985   3.533  19.850  0.00  0.00    +0.000 A 
ENDBRANCH  18  19
ENDBRANCH  11  18
ENDBRANCH   6  11
BRANCH   1  25
ATOM     25  C   UNL     1      -0.927  10.902  21.089  0.00  0.00    +0.000 C 
BRANCH  25  26
ATOM     26  O   UNL     1      -1.137  11.925  20.087  0.00  0.00    +0.000 OA
BRANCH  26  30
ATOM     27  C   UNL     1      -5.105  12.144  18.679  0.00  0.00    +0.000 A 
ATOM     28  C   UNL     1      -4.724  12.712  19.896  0.00  0.00    +0.000 A 
ATOM     29  C   UNL     1      -3.384  12.644  20.326  0.00  0.00    +0.000 A 
ATOM     30  C   UNL     1      -2.408  12.000  19.552  0.00  0.00    +0.000 A 
ATOM     31  C   UNL     1      -2.785  11.510  18.297  0.00  0.00    +0.000 A 
ATOM     32  C   UNL     1      -4.120  11.571  17.866  0.00  0.00    +0.000 A 
BRANCH  27  34
ATOM     33  N   UNL     1      -7.478  11.931  19.133  0.00  0.00    +0.000 NA
ATOM     34  C   UNL     1      -6.546  12.127  18.259  0.00  0.00    +0.000 C 
ATOM     35  N   UNL     1      -6.873  12.285  16.940  0.00  0.00    +0.000 N 
ATOM     36  H   UNL     1      -8.393  11.982  18.676  0.00  0.00    +0.000 HD
ATOM     37  H   UNL     1      -7.787  11.940  16.670  0.00  0.00    +0.000 HD
ATOM     38  H   UNL     1      -6.161  11.987  16.279  0.00  0.00    +0.000 HD
ENDBRANCH  27  34
ENDBRANCH  26  30
ENDBRANCH  25  26
ENDBRANCH   1  25
TORSDOF 9
ENDMDL
MODEL 6
REMARK VINA RESULT:      -8.4      1.231      1.852
REMARK  Name = 
REMARK  9 active torsions:
REMARK  status: ('A' for Active; 'I' for Inactive)
REMARK    1  A    between atoms: C_2  and  C_4
REMARK    2  A    between atoms: C_7  and  O_8
REMARK    3  A    between atoms: O_8  and  C_9
REMARK    4  A    between atoms: C_9  and  C_10
REMARK    5  A    between atoms: C_15  and  N_16
REMARK    6  A    between atoms: N_16  and  C_17
REMARK    7  A    between atoms: C_17  and  C_18
REMARK    8  A    between atoms: C_24  and  C_26
REMARK    9  A    between atoms: C_26  and  O_28
REMARK                            x       y       z     vdW  Elec       q    Type
REMARK                         _______ _______ _______ _____ _____    ______ ____
ROOT
ATOM      1  C   UNL     1       2.160   5.651  19.995  0.00  0.00    +0.000 C 
ATOM      2  C   UNL     1       3.343   6.403  19.378  0.00  0.00    +0.000 C 
ATOM      3  O   UNL     1       2.804   7.483  18.586  0.00  0.00    +0.000 OA
ATOM      4  C   UNL     1       1.921   8.223  19.343  0.00  0.00    +0.000 A 
ATOM      5  C   UNL     1       1.407   9.400  18.783  0.00  0.00    +0.000 A 
ATOM      6  C   UNL     1       0.601  10.234  19.564  0.00  0.00    +0.000 A 
ATOM      7  C   UNL     1       0.451   9.953  20.930  0.00  0.00    +0.000 A 
ATOM      8  C   UNL     1       0.897   8.729  21.457  0.00  0.00    +0.000 A 
ATOM      9  C   UNL     1       1.527   7.809  20.626  0.00  0.00    +0.000 A 
ATOM     10  O   UNL     1       1.721   6.511  21.085  0.00  0.00    +0.000 OA
ENDROOT
BRANCH   6  11
ATOM     11  N   UNL     1      -0.240  11.227  18.976  0.00  0.00    +0.000 N 
ATOM     12  C   UNL     1       0.253  12.470  18.580  0.00  0.00    +0.000 C 
ATOM     13  O   UNL     1      -0.436  13.368  18.092  0.00  0.00    +0.000 OA
BRANCH  12  14
ATOM     14  C   UNL     1       1.744  12.863  18.818  0.00  0.00    +0.000 C 
ATOM     15  O   UNL     1       2.250  13.296  19.827  0.00  0.00    +0.000 OA
BRANCH  14  16
ATOM     16  O   UNL     1       2.427  12.688  17.659  0.00  0.00    +0.000 OA
ATOM     17  H   UNL     1       3.392  12.652  17.862  0.00  0.00    +0.000 HD
ENDBRANCH  14  16
ENDBRANCH  12  14
BRANCH  11  18
ATOM     18  C   UNL     1      -1.696  11.111  19.120  0.00  0.00    +0.000 C 
BRANCH  18  19
ATOM     19  C   UNL     1      -2.457  10.946  17.819  0.00  0.00    +0.000 A 
ATOM     20  C   UNL     1      -1.971  10.066  16.841  0.00  0.00    +0.000 A 
ATOM     21  C   UNL     1      -2.738   9.760  15.713  0.00  0.00    +0.000 A 
ATOM     22  C   UNL     1      -3.990  10.346  15.535  0.00  0.00    +0.000 A 
ATOM     23  C   UNL     1      -4.461  11.265  16.472  0.00  0.00    +0.000 A 
ATOM     24  C   UNL     1      -3.697  11.569  17.603  0.00  0.00    +0.000 A 
ENDBRANCH  18  19
ENDBRANCH  11  18
ENDBRANCH   6  11
BRANCH   1  25
ATOM     25  C   UNL     1       2.584   4.228  20.444  0.00  0.00    +0.000 C 
BRANCH  25  26
ATOM     26  O   UNL     1       2.739   3.300  19.344  0.00  0.00    +0.000 OA
BRANCH  26  30
ATOM     27  C   UNL     1       5.532   4.174  16.308  0.00  0.00    +0.000 A 
ATOM     28  C   UNL     1       4.174   4.003  16.032  0.00  0.00    +0.000 A 
ATOM     29  C   UNL     1       3.263   3.738  17.073  0.00  0.00    +0.000 A 
ATOM     30  C   UNL     1       3.695   3.629  18.402  0.00  0.00    +0.000 A 
ATOM     31  C   UNL     1       5.042   3.886  18.676  0.00  0.00    +0.000 A 
ATOM     32  C   UNL     1       5.956   4.146  17.642  0.00  0.00    +0.000 A 
BRANCH  27  34
ATOM     33  N   UNL     1       6.467   3.616  14.141  0.00  0.00    +0.000 NA
ATOM     34  C   UNL     1       6.523   4.360  15.197  0.00  0.00    +0.000 C 
ATOM     35  N   UNL     1       7.512   5.298  15.316  0.00  0.00    +0.000 N 
ATOM     36  H   UNL     1       7.195   3.902  13.481  0.00  0.00    +0.000 HD
ATOM     37  H   UNL     1       8.322   5.160  14.722  0.00  0.00    +0.000 HD
ATOM     38  H   UNL     1       7.789   5.515  16.269  0.00  0.00    +0.000 HD
ENDBRANCH  27  34
ENDBRANCH  26  30
ENDBRANCH  25  26
ENDBRANCH   1  25
TORSDOF 9
ENDMDL
MODEL 7
REMARK VINA RESULT:      -8.3      1.668      2.381
REMARK  Name = 
REMARK  9 active torsions:
REMARK  status: ('A' for Active; 'I' for Inactive)
REMARK    1  A    between atoms: C_2  and  C_4
REMARK    2  A    between atoms: C_7  and  O_8
REMARK    3  A    between atoms: O_8  and  C_9
REMARK    4  A    between atoms: C_9  and  C_10
REMARK    5  A    between atoms: C_15  and  N_16
REMARK    6  A    between atoms: N_16  and  C_17
REMARK    7  A    between atoms: C_17  and  C_18
REMARK    8  A    between atoms: C_24  and  C_26
REMARK    9  A    between atoms: C_26  and  O_28
REMARK                            x       y       z     vdW  Elec       q    Type
REMARK                         _______ _______ _______ _____ _____    ______ ____
ROOT
ATOM      1  C   UNL     1       1.489   6.321  20.196  0.00  0.00    +0.000 C 
ATOM      2  C   UNL     1       2.706   6.902  19.468  0.00  0.00    +0.000 C 
ATOM      3  O   UNL     1       2.246   8.019  18.680  0.00  0.00    +0.000 OA
ATOM      4  C   UNL     1       1.522   8.885  19.472  0.00  0.00    +0.000 A 
ATOM      5  C   UNL     1       1.116  10.102  18.909  0.00  0.00    +0.000 A 
ATOM      6  C   UNL     1       0.482  11.052  19.715  0.00  0.00    +0.000 A 
ATOM      7  C   UNL     1       0.403  10.828  21.098  0.00  0.00    +0.000 A 
ATOM      8  C   UNL     1       0.732   9.571  21.634  0.00  0.00    +0.000 A 
ATOM      9  C   UNL     1       1.178   8.558  20.793  0.00  0.00    +0.000 A 
ATOM     10  O   UNL     1       1.244   7.259  21.283  0.00  0.00    +0.000 OA
ENDROOT
BRANCH   6  11
ATOM     11  N   UNL     1      -0.272  12.127  19.155  0.00  0.00    +0.000 N 
ATOM     12  C   UNL     1       0.343  13.269  18.643  0.00  0.00    +0.000 C 
ATOM     13  O   UNL     1      -0.264  14.234  18.172  0.00  0.00    +0.000 OA
BRANCH  12  14
ATOM     14  C   UNL     1       1.890  13.458  18.714  0.00  0.00    +0.000 C 
ATOM     15  O   UNL     1       2.549  13.872  19.638  0.00  0.00    +0.000 OA
BRANCH  14  16
ATOM     16  O   UNL     1       2.422  13.119  17.513  0.00  0.00    +0.000 OA
ATOM     17  H   UNL     1       1.686  12.955  16.875  0.00  0.00    +0.000 HD
ENDBRANCH  14  16
ENDBRANCH  12  14
BRANCH  11  18
ATOM     18  C   UNL     1      -1.707  12.224  19.444  0.00  0.00    +0.000 C 
BRANCH  18  19
ATOM     19  C   UNL     1      -2.616  11.666  18.367  0.00  0.00    +0.000 A 
ATOM     20  C   UNL     1      -4.006  11.713  18.543  0.00  0.00    +0.000 A 
ATOM     21  C   UNL     1      -4.870  11.371  17.498  0.00  0.00    +0.000 A 
ATOM     22  C   UNL     1      -4.356  10.955  16.270  0.00  0.00    +0.000 A 
ATOM     23  C   UNL     1      -2.976  10.850  16.100  0.00  0.00    +0.000 A 
ATOM     24  C   UNL     1      -2.111  11.196  17.143  0.00  0.00    +0.000 A 
ENDBRANCH  18  19
ENDBRANCH  11  18
ENDBRANCH   6  11
BRANCH   1  25
ATOM     25  C   UNL     1       1.766   4.869  20.663  0.00  0.00    +0.000 C 
BRANCH  25  26
ATOM     26  O   UNL     1       1.783   3.909  19.579  0.00  0.00    +0.000 OA
BRANCH  26  30
ATOM     27  C   UNL     1       5.322   4.072  17.293  0.00  0.00    +0.000 A 
ATOM     28  C   UNL     1       5.349   3.963  18.684  0.00  0.00    +0.000 A 
ATOM     29  C   UNL     1       4.148   3.885  19.417  0.00  0.00    +0.000 A 
ATOM     30  C   UNL     1       2.904   3.924  18.773  0.00  0.00    +0.000 A 
ATOM     31  C   UNL     1       2.891   3.947  17.374  0.00  0.00    +0.000 A 
ATOM     32  C   UNL     1       4.085   4.030  16.639  0.00  0.00    +0.000 A 
BRANCH  27  34
ATOM     33  N   UNL     1       7.713   4.440  17.126  0.00  0.00    +0.000 NA
ATOM     34  C   UNL     1       6.591   4.253  16.512  0.00  0.00    +0.000 C 
ATOM     35  N   UNL     1       6.555   4.255  15.144  0.00  0.00    +0.000 N 
ATOM     36  H   UNL     1       8.470   4.513  16.441  0.00  0.00    +0.000 HD
ATOM     37  H   UNL     1       7.341   4.701  14.686  0.00  0.00    +0.000 HD
ATOM     38  H   UNL     1       5.675   4.555  14.735  0.00  0.00    +0.000 HD
ENDBRANCH  27  34
ENDBRANCH  26  30
ENDBRANCH  25  26
ENDBRANCH   1  25
TORSDOF 9
ENDMDL
MODEL 8
REMARK VINA RESULT:      -8.3      3.896     10.826
REMARK  Name = 
REMARK  9 active torsions:
REMARK  status: ('A' for Active; 'I' for Inactive)
REMARK    1  A    between atoms: C_2  and  C_4
REMARK    2  A    between atoms: C_7  and  O_8
REMARK    3  A    between atoms: O_8  and  C_9
REMARK    4  A    between atoms: C_9  and  C_10
REMARK    5  A    between atoms: C_15  and  N_16
REMARK    6  A    between atoms: N_16  and  C_17
REMARK    7  A    between atoms: C_17  and  C_18
REMARK    8  A    between atoms: C_24  and  C_26
REMARK    9  A    between atoms: C_26  and  O_28
REMARK                            x       y       z     vdW  Elec       q    Type
REMARK                         _______ _______ _______ _____ _____    ______ ____
ROOT
ATOM      1  C   UNL     1      -0.132   9.945  20.556  0.00  0.00    +0.000 C 
ATOM      2  C   UNL     1       1.027   9.757  21.541  0.00  0.00    +0.000 C 
ATOM      3  O   UNL     1       1.544   8.423  21.351  0.00  0.00    +0.000 OA
ATOM      4  C   UNL     1       1.819   8.213  20.017  0.00  0.00    +0.000 A 
ATOM      5  C   UNL     1       2.465   7.021  19.662  0.00  0.00    +0.000 A 
ATOM      6  C   UNL     1       2.863   6.827  18.336  0.00  0.00    +0.000 A 
ATOM      7  C   UNL     1       2.745   7.888  17.426  0.00  0.00    +0.000 A 
ATOM      8  C   UNL     1       2.019   9.041  17.770  0.00  0.00    +0.000 A 
ATOM      9  C   UNL     1       1.451   9.146  19.035  0.00  0.00    +0.000 A 
ATOM     10  O   UNL     1       0.523  10.155  19.272  0.00  0.00    +0.000 OA
ENDROOT
BRANCH   6  11
ATOM     11  N   UNL     1       3.180   5.529  17.832  0.00  0.00    +0.000 N 
ATOM     12  C   UNL     1       4.273   5.310  16.995  0.00  0.00    +0.000 C 
ATOM     13  O   UNL     1       4.574   4.215  16.514  0.00  0.00    +0.000 OA
BRANCH  12  14
ATOM     14  C   UNL     1       5.174   6.490  16.514  0.00  0.00    +0.000 C 
ATOM     15  O   UNL     1       5.172   7.040  15.438  0.00  0.00    +0.000 OA
BRANCH  14  16
ATOM     16  O   UNL     1       6.043   6.803  17.508  0.00  0.00    +0.000 OA
ATOM     17  H   UNL     1       6.963   6.739  17.157  0.00  0.00    +0.000 HD
ENDBRANCH  14  16
ENDBRANCH  12  14
BRANCH  11  18
ATOM     18  C   UNL     1       2.159   4.475  17.872  0.00  0.00    +0.000 C 
BRANCH  18  19
ATOM     19  C   UNL     1       2.136   3.655  19.148  0.00  0.00    +0.000 A 
ATOM     20  C   UNL     1       3.316   3.049  19.601  0.00  0.00    +0.000 A 
ATOM     21  C   UNL     1       3.367   2.439  20.858  0.00  0.00    +0.000 A 
ATOM     22  C   UNL     1       2.234   2.407  21.669  0.00  0.00    +0.000 A 
ATOM     23  C   UNL     1       1.039   2.957  21.208  0.00  0.00    +0.000 A 
ATOM     24  C   UNL     1       0.988   3.571  19.952  0.00  0.00    +0.000 A 
ENDBRANCH  18  19
ENDBRANCH  11  18
ENDBRANCH   6  11
BRANCH   1  25
ATOM     25  C   UNL     1      -1.047  11.116  20.998  0.00  0.00    +0.000 C 
BRANCH  25  26
ATOM     26  O   UNL     1      -0.941  11.430  22.407  0.00  0.00    +0.000 OA
BRANCH  26  30
ATOM     27  C   UNL     1      -3.615  14.390  23.772  0.00  0.00    +0.000 A 
ATOM     28  C   UNL     1      -3.855  13.030  23.977  0.00  0.00    +0.000 A 
ATOM     29  C   UNL     1      -2.929  12.067  23.531  0.00  0.00    +0.000 A 
ATOM     30  C   UNL     1      -1.755  12.447  22.866  0.00  0.00    +0.000 A 
ATOM     31  C   UNL     1      -1.485  13.814  22.743  0.00  0.00    +0.000 A 
ATOM     32  C   UNL     1      -2.407  14.778  23.181  0.00  0.00    +0.000 A 
BRANCH  27  34
ATOM     33  N   UNL     1      -4.390  16.270  25.094  0.00  0.00    +0.000 NA
ATOM     34  C   UNL     1      -4.641  15.416  24.156  0.00  0.00    +0.000 C 
ATOM     35  N   UNL     1      -5.859  15.428  23.534  0.00  0.00    +0.000 N 
ATOM     36  H   UNL     1      -5.184  16.907  25.199  0.00  0.00    +0.000 HD
ATOM     37  H   UNL     1      -6.604  15.894  24.039  0.00  0.00    +0.000 HD
ATOM     38  H   UNL     1      -6.168  14.530  23.173  0.00  0.00    +0.000 HD
ENDBRANCH  27  34
ENDBRANCH  26  30
ENDBRANCH  25  26
ENDBRANCH   1  25
TORSDOF 9
ENDMDL
MODEL 9
REMARK VINA RESULT:      -8.3      3.103     10.428
REMARK  Name = 
REMARK  9 active torsions:
REMARK  status: ('A' for Active; 'I' for Inactive)
REMARK    1  A    between atoms: C_2  and  C_4
REMARK    2  A    between atoms: C_7  and  O_8
REMARK    3  A    between atoms: O_8  and  C_9
REMARK    4  A    between atoms: C_9  and  C_10
REMARK    5  A    between atoms: C_15  and  N_16
REMARK    6  A    between atoms: N_16  and  C_17
REMARK    7  A    between atoms: C_17  and  C_18
REMARK    8  A    between atoms: C_24  and  C_26
REMARK    9  A    between atoms: C_26  and  O_28
REMARK                            x       y       z     vdW  Elec       q    Type
REMARK                         _______ _______ _______ _____ _____    ______ ____
ROOT
ATOM      1  C   UNL     1       1.137  10.812  19.333  0.00  0.00    +0.000 C 
ATOM      2  C   UNL     1       0.332  10.175  18.197  0.00  0.00    +0.000 C 
ATOM      3  O   UNL     1       1.125   9.097  17.655  0.00  0.00    +0.000 OA
ATOM      4  C   UNL     1       1.536   8.263  18.672  0.00  0.00    +0.000 A 
ATOM      5  C   UNL     1       2.198   7.079  18.319  0.00  0.00    +0.000 A 
ATOM      6  C   UNL     1       2.526   6.155  19.316  0.00  0.00    +0.000 A 
ATOM      7  C   UNL     1       2.052   6.361  20.620  0.00  0.00    +0.000 A 
ATOM      8  C   UNL     1       1.469   7.589  20.977  0.00  0.00    +0.000 A 
ATOM      9  C   UNL     1       1.323   8.588  20.021  0.00  0.00    +0.000 A 
ATOM     10  O   UNL     1       0.997   9.874  20.438  0.00  0.00    +0.000 OA
ENDROOT
BRANCH   6  11
ATOM     11  N   UNL     1       3.500   5.133  19.098  0.00  0.00    +0.000 N 
ATOM     12  C   UNL     1       3.193   3.780  19.244  0.00  0.00    +0.000 C 
ATOM     13  O   UNL     1       4.003   2.863  19.092  0.00  0.00    +0.000 OA
BRANCH  12  14
ATOM     14  C   UNL     1       1.781   3.316  19.715  0.00  0.00    +0.000 C 
ATOM     15  O   UNL     1       0.754   3.285  19.077  0.00  0.00    +0.000 OA
BRANCH  14  16
ATOM     16  O   UNL     1       1.853   2.976  21.026  0.00  0.00    +0.000 OA
ATOM     17  H   UNL     1       2.802   2.881  21.278  0.00  0.00    +0.000 HD
ENDBRANCH  14  16
ENDBRANCH  12  14
BRANCH  11  18
ATOM     18  C   UNL     1       4.924   5.489  19.087  0.00  0.00    +0.000 C 
BRANCH  18  19
ATOM     19  C   UNL     1       5.591   5.416  17.728  0.00  0.00    +0.000 A 
ATOM     20  C   UNL     1       6.819   4.753  17.596  0.00  0.00    +0.000 A 
ATOM     21  C   UNL     1       7.370   4.516  16.333  0.00  0.00    +0.000 A 
ATOM     22  C   UNL     1       6.712   4.959  15.187  0.00  0.00    +0.000 A 
ATOM     23  C   UNL     1       5.518   5.668  15.306  0.00  0.00    +0.000 A 
ATOM     24  C   UNL     1       4.964   5.902  16.569  0.00  0.00    +0.000 A 
ENDBRANCH  18  19
ENDBRANCH  11  18
ENDBRANCH   6  11
BRANCH   1  25
ATOM     25  C   UNL     1       0.617  12.239  19.646  0.00  0.00    +0.000 C 
BRANCH  25  26
ATOM     26  O   UNL     1       0.599  12.549  21.059  0.00  0.00    +0.000 OA
BRANCH  26  30
ATOM     27  C   UNL     1      -3.194  12.586  22.901  0.00  0.00    +0.000 A 
ATOM     28  C   UNL     1      -2.171  11.745  23.341  0.00  0.00    +0.000 A 
ATOM     29  C   UNL     1      -0.906  11.775  22.720  0.00  0.00    +0.000 A 
ATOM     30  C   UNL     1      -0.649  12.638  21.646  0.00  0.00    +0.000 A 
ATOM     31  C   UNL     1      -1.654  13.536  21.271  0.00  0.00    +0.000 A 
ATOM     32  C   UNL     1      -2.918  13.506  21.883  0.00  0.00    +0.000 A 
BRANCH  27  34
ATOM     33  N   UNL     1      -5.613  12.606  22.734  0.00  0.00    +0.000 NA
ATOM     34  C   UNL     1      -4.571  12.492  23.490  0.00  0.00    +0.000 C 
ATOM     35  N   UNL     1      -4.724  12.320  24.839  0.00  0.00    +0.000 N 
ATOM     36  H   UNL     1      -6.460  12.486  23.297  0.00  0.00    +0.000 HD
ATOM     37  H   UNL     1      -5.624  12.592  25.216  0.00  0.00    +0.000 HD
ATOM     38  H   UNL     1      -3.965  12.679  25.410  0.00  0.00    +0.000 HD
ENDBRANCH  27  34
ENDBRANCH  26  30
ENDBRANCH  25  26
ENDBRANCH   1  25
TORSDOF 9
ENDMDL
