MODEL 1
REMARK VINA RESULT:      -7.7      0.000      0.000
REMARK  Name = 
REMARK  0 active torsions:
REMARK  status: ('A' for Active; 'I' for Inactive)
REMARK                            x       y       z     vdW  Elec       q    Type
REMARK                         _______ _______ _______ _____ _____    ______ ____
ROOT
ATOM      1  N   UNL     1       3.517   7.795  17.476  0.00  0.00    +0.000 N 
ATOM      2  C   UNL     1       3.005   6.950  18.420  0.00  0.00    +0.000 C 
ATOM      3  O   UNL     1       2.038   7.354  19.064  0.00  0.00    +0.000 OA
ATOM      4  N   UNL     1       3.584   5.674  18.482  0.00  0.00    +0.000 N 
ATOM      5  C   UNL     1       4.835   5.394  17.852  0.00  0.00    +0.000 A 
ATOM      6  C   UNL     1       5.950   6.211  18.098  0.00  0.00    +0.000 A 
ATOM      7  C   UNL     1       7.164   5.968  17.455  0.00  0.00    +0.000 A 
ATOM      8  C   UNL     1       7.276   4.909  16.559  0.00  0.00    +0.000 A 
ATOM      9  C   UNL     1       6.172   4.099  16.299  0.00  0.00    +0.000 A 
ATOM     10  C   UNL     1       4.945   4.343  16.936  0.00  0.00    +0.000 A 
ATOM     11  C   UNL     1       3.747   3.497  16.649  0.00  0.00    +0.000 C 
ATOM     12  C   UNL     1       3.434   2.629  17.832  0.00  0.00    +0.000 C 
ATOM     13  O   UNL     1       3.454   1.401  17.728  0.00  0.00    +0.000 OA
ATOM     14  C   UNL     1       3.065   3.272  19.131  0.00  0.00    +0.000 A 
ATOM     15  C   UNL     1       2.573   2.376  20.108  0.00  0.00    +0.000 A 
ATOM     16  C   UNL     1       2.105   2.827  21.338  0.00  0.00    +0.000 A 
ATOM     17  C   UNL     1       2.126   4.184  21.613  0.00  0.00    +0.000 A 
ATOM     18  C   UNL     1       2.611   5.082  20.656  0.00  0.00    +0.000 A 
ATOM     19  C   UNL     1       3.087   4.663  19.392  0.00  0.00    +0.000 A 
ATOM     20  H   UNL     1       2.968   8.635  17.346  0.00  0.00    +0.000 HD
ATOM     21  H   UNL     1       3.878   7.384  16.625  0.00  0.00    +0.000 HD
ENDROOT
TORSDOF 0
ENDMDL
MODEL 2
REMARK VINA RESULT:      -6.7      7.502     10.255
REMARK  Name = 
REMARK  0 active torsions:
REMARK  status: ('A' for Active; 'I' for Inactive)
REMARK                            x       y       z     vdW  Elec       q    Type
REMARK                         _______ _______ _______ _____ _____    ______ ____
ROOT
ATOM      1  N   UNL     1      -0.793  13.016  17.625  0.00  0.00    +0.000 N 
ATOM      2  C   UNL     1      -0.308  12.255  18.652  0.00  0.00    +0.000 C 
ATOM      3  O   UNL     1       0.903  12.040  18.663  0.00  0.00    +0.000 OA
ATOM      4  N   UNL     1      -1.238  11.886  19.635  0.00  0.00    +0.000 N 
ATOM      5  C   UNL     1      -2.644  11.997  19.410  0.00  0.00    +0.000 A 
ATOM      6  C   UNL     1      -3.222  11.431  18.262  0.00  0.00    +0.000 A 
ATOM      7  C   UNL     1      -4.588  11.570  18.013  0.00  0.00    +0.000 A 
ATOM      8  C   UNL     1      -5.388  12.277  18.906  0.00  0.00    +0.000 A 
ATOM      9  C   UNL     1      -4.822  12.852  20.042  0.00  0.00    +0.000 A 
ATOM     10  C   UNL     1      -3.447  12.723  20.293  0.00  0.00    +0.000 A 
ATOM     11  C   UNL     1      -2.822  13.354  21.496  0.00  0.00    +0.000 C 
ATOM     12  C   UNL     1      -2.429  12.299  22.487  0.00  0.00    +0.000 C 
ATOM     13  O   UNL     1      -2.921  12.289  23.617  0.00  0.00    +0.000 OA
ATOM     14  C   UNL     1      -1.408  11.276  22.098  0.00  0.00    +0.000 A 
ATOM     15  C   UNL     1      -0.947  10.474  23.167  0.00  0.00    +0.000 A 
ATOM     16  C   UNL     1       0.066   9.537  22.988  0.00  0.00    +0.000 A 
ATOM     17  C   UNL     1       0.630   9.384  21.733  0.00  0.00    +0.000 A 
ATOM     18  C   UNL     1       0.183  10.170  20.666  0.00  0.00    +0.000 A 
ATOM     19  C   UNL     1      -0.837  11.138  20.810  0.00  0.00    +0.000 A 
ATOM     20  H   UNL     1      -0.070  13.403  17.033  0.00  0.00    +0.000 HD
ATOM     21  H   UNL     1      -1.561  13.642  17.828  0.00  0.00    +0.000 HD
ENDROOT
TORSDOF 0
ENDMDL
MODEL 3
REMARK VINA RESULT:      -6.4      9.475     11.889
REMARK  Name = 
REMARK  0 active torsions:
REMARK  status: ('A' for Active; 'I' for Inactive)
REMARK                            x       y       z     vdW  Elec       q    Type
REMARK                         _______ _______ _______ _____ _____    ______ ____
ROOT
ATOM      1  N   UNL     1      11.912  15.559  16.852  0.00  0.00    +0.000 N 
ATOM      2  C   UNL     1      11.521  14.292  17.188  0.00  0.00    +0.000 C 
ATOM      3  O   UNL     1      12.077  13.364  16.603  0.00  0.00    +0.000 OA
ATOM      4  N   UNL     1      10.593  14.193  18.235  0.00  0.00    +0.000 N 
ATOM      5  C   UNL     1       9.854  15.329  18.685  0.00  0.00    +0.000 A 
ATOM      6  C   UNL     1       9.142  16.117  17.766  0.00  0.00    +0.000 A 
ATOM      7  C   UNL     1       8.450  17.252  18.190  0.00  0.00    +0.000 A 
ATOM      8  C   UNL     1       8.464  17.611  19.535  0.00  0.00    +0.000 A 
ATOM      9  C   UNL     1       9.176  16.841  20.453  0.00  0.00    +0.000 A 
ATOM     10  C   UNL     1       9.881  15.704  20.031  0.00  0.00    +0.000 A 
ATOM     11  C   UNL     1      10.668  14.882  21.001  0.00  0.00    +0.000 C 
ATOM     12  C   UNL     1       9.990  13.563  21.229  0.00  0.00    +0.000 C 
ATOM     13  O   UNL     1       9.601  13.248  22.355  0.00  0.00    +0.000 OA
ATOM     14  C   UNL     1       9.820  12.622  20.078  0.00  0.00    +0.000 A 
ATOM     15  C   UNL     1       9.379  11.329  20.442  0.00  0.00    +0.000 A 
ATOM     16  C   UNL     1       9.256  10.312  19.501  0.00  0.00    +0.000 A 
ATOM     17  C   UNL     1       9.568  10.574  18.177  0.00  0.00    +0.000 A 
ATOM     18  C   UNL     1      10.006  11.849  17.804  0.00  0.00    +0.000 A 
ATOM     19  C   UNL     1      10.151  12.906  18.732  0.00  0.00    +0.000 A 
ATOM     20  H   UNL     1      12.699  15.583  16.218  0.00  0.00    +0.000 HD
ATOM     21  H   UNL     1      11.933  16.252  17.588  0.00  0.00    +0.000 HD
ENDROOT
TORSDOF 0
ENDMDL
MODEL 4
REMARK VINA RESULT:      -6.4      1.497      5.360
REMARK  Name = 
REMARK  0 active torsions:
REMARK  status: ('A' for Active; 'I' for Inactive)
REMARK                            x       y       z     vdW  Elec       q    Type
REMARK                         _______ _______ _______ _____ _____    ______ ____
ROOT
ATOM      1  N   UNL     1       3.260   1.453  17.679  0.00  0.00    +0.000 N 
ATOM      2  C   UNL     1       4.172   2.426  17.378  0.00  0.00    +0.000 C 
ATOM      3  O   UNL     1       4.969   2.182  16.474  0.00  0.00    +0.000 OA
ATOM      4  N   UNL     1       4.031   3.636  18.073  0.00  0.00    +0.000 N 
ATOM      5  C   UNL     1       3.223   3.731  19.247  0.00  0.00    +0.000 A 
ATOM      6  C   UNL     1       3.408   2.828  20.306  0.00  0.00    +0.000 A 
ATOM      7  C   UNL     1       2.596   2.887  21.440  0.00  0.00    +0.000 A 
ATOM      8  C   UNL     1       1.591   3.847  21.524  0.00  0.00    +0.000 A 
ATOM      9  C   UNL     1       1.392   4.740  20.473  0.00  0.00    +0.000 A 
ATOM     10  C   UNL     1       2.200   4.679  19.327  0.00  0.00    +0.000 A 
ATOM     11  C   UNL     1       1.983   5.616  18.182  0.00  0.00    +0.000 C 
ATOM     12  C   UNL     1       3.102   6.612  18.111  0.00  0.00    +0.000 C 
ATOM     13  O   UNL     1       2.873   7.817  18.228  0.00  0.00    +0.000 OA
ATOM     14  C   UNL     1       4.496   6.127  17.865  0.00  0.00    +0.000 A 
ATOM     15  C   UNL     1       5.432   7.151  17.593  0.00  0.00    +0.000 A 
ATOM     16  C   UNL     1       6.750   6.860  17.257  0.00  0.00    +0.000 A 
ATOM     17  C   UNL     1       7.155   5.537  17.193  0.00  0.00    +0.000 A 
ATOM     18  C   UNL     1       6.240   4.514  17.460  0.00  0.00    +0.000 A 
ATOM     19  C   UNL     1       4.890   4.769  17.797  0.00  0.00    +0.000 A 
ATOM     20  H   UNL     1       3.286   0.666  17.044  0.00  0.00    +0.000 HD
ATOM     21  H   UNL     1       2.334   1.749  17.957  0.00  0.00    +0.000 HD
ENDROOT
TORSDOF 0
ENDMDL
MODEL 5
REMARK VINA RESULT:      -6.4      9.267     11.719
REMARK  Name = 
REMARK  0 active torsions:
REMARK  status: ('A' for Active; 'I' for Inactive)
REMARK                            x       y       z     vdW  Elec       q    Type
REMARK                         _______ _______ _______ _____ _____    ______ ____
ROOT
ATOM      1  N   UNL     1      12.295  13.784  16.696  0.00  0.00    +0.000 N 
ATOM      2  C   UNL     1      11.510  14.836  17.081  0.00  0.00    +0.000 C 
ATOM      3  O   UNL     1      11.872  15.958  16.733  0.00  0.00    +0.000 OA
ATOM      4  N   UNL     1      10.323  14.503  17.751  0.00  0.00    +0.000 N 
ATOM      5  C   UNL     1      10.116  13.199  18.295  0.00  0.00    +0.000 A 
ATOM      6  C   UNL     1      11.077  12.626  19.144  0.00  0.00    +0.000 A 
ATOM      7  C   UNL     1      10.903  11.337  19.648  0.00  0.00    +0.000 A 
ATOM      8  C   UNL     1       9.767  10.607  19.307  0.00  0.00    +0.000 A 
ATOM      9  C   UNL     1       8.813  11.162  18.456  0.00  0.00    +0.000 A 
ATOM     10  C   UNL     1       8.988  12.455  17.939  0.00  0.00    +0.000 A 
ATOM     11  C   UNL     1       7.984  13.054  17.007  0.00  0.00    +0.000 C 
ATOM     12  C   UNL     1       7.226  14.148  17.700  0.00  0.00    +0.000 C 
ATOM     13  O   UNL     1       6.005  14.067  17.843  0.00  0.00    +0.000 OA
ATOM     14  C   UNL     1       7.967  15.353  18.186  0.00  0.00    +0.000 A 
ATOM     15  C   UNL     1       7.138  16.415  18.616  0.00  0.00    +0.000 A 
ATOM     16  C   UNL     1       7.671  17.637  19.014  0.00  0.00    +0.000 A 
ATOM     17  C   UNL     1       9.044  17.815  18.994  0.00  0.00    +0.000 A 
ATOM     18  C   UNL     1       9.876  16.773  18.571  0.00  0.00    +0.000 A 
ATOM     19  C   UNL     1       9.372  15.520  18.152  0.00  0.00    +0.000 A 
ATOM     20  H   UNL     1      13.046  14.050  16.073  0.00  0.00    +0.000 HD
ATOM     21  H   UNL     1      11.832  12.915  16.464  0.00  0.00    +0.000 HD
ENDROOT
TORSDOF 0
ENDMDL
MODEL 6
REMARK VINA RESULT:      -6.3      1.979      4.260
REMARK  Name = 
REMARK  0 active torsions:
REMARK  status: ('A' for Active; 'I' for Inactive)
REMARK                            x       y       z     vdW  Elec       q    Type
REMARK                         _______ _______ _______ _____ _____    ______ ____
ROOT
ATOM      1  N   UNL     1       5.626   7.296  17.737  0.00  0.00    +0.000 N 
ATOM      2  C   UNL     1       5.122   6.031  17.617  0.00  0.00    +0.000 C 
ATOM      3  O   UNL     1       5.876   5.169  17.170  0.00  0.00    +0.000 OA
ATOM      4  N   UNL     1       3.823   5.839  18.111  0.00  0.00    +0.000 N 
ATOM      5  C   UNL     1       2.965   6.943  18.399  0.00  0.00    +0.000 A 
ATOM      6  C   UNL     1       2.743   7.936  17.431  0.00  0.00    +0.000 A 
ATOM      7  C   UNL     1       1.939   9.040  17.717  0.00  0.00    +0.000 A 
ATOM      8  C   UNL     1       1.350   9.163  18.973  0.00  0.00    +0.000 A 
ATOM      9  C   UNL     1       1.573   8.188  19.944  0.00  0.00    +0.000 A 
ATOM     10  C   UNL     1       2.388   7.081  19.665  0.00  0.00    +0.000 A 
ATOM     11  C   UNL     1       2.655   6.040  20.704  0.00  0.00    +0.000 C 
ATOM     12  C   UNL     1       1.940   4.768  20.354  0.00  0.00    +0.000 C 
ATOM     13  O   UNL     1       1.087   4.302  21.112  0.00  0.00    +0.000 OA
ATOM     14  C   UNL     1       2.300   4.054  19.090  0.00  0.00    +0.000 A 
ATOM     15  C   UNL     1       1.737   2.762  18.967  0.00  0.00    +0.000 A 
ATOM     16  C   UNL     1       2.045   1.934  17.893  0.00  0.00    +0.000 A 
ATOM     17  C   UNL     1       2.917   2.388  16.918  0.00  0.00    +0.000 A 
ATOM     18  C   UNL     1       3.481   3.664  17.026  0.00  0.00    +0.000 A 
ATOM     19  C   UNL     1       3.199   4.531  18.107  0.00  0.00    +0.000 A 
ATOM     20  H   UNL     1       6.615   7.356  17.529  0.00  0.00    +0.000 HD
ATOM     21  H   UNL     1       5.319   7.850  18.524  0.00  0.00    +0.000 HD
ENDROOT
TORSDOF 0
ENDMDL
MODEL 7
REMARK VINA RESULT:      -6.3      7.012      8.962
REMARK  Name = 
REMARK  0 active torsions:
REMARK  status: ('A' for Active; 'I' for Inactive)
REMARK                            x       y       z     vdW  Elec       q    Type
REMARK                         _______ _______ _______ _____ _____    ______ ____
ROOT
ATOM      1  N   UNL     1      -0.896  13.697  21.928  0.00  0.00    +0.000 N 
ATOM      2  C   UNL     1      -1.558  13.286  20.805  0.00  0.00    +0.000 C 
ATOM      3  O   UNL     1      -2.267  14.117  20.240  0.00  0.00    +0.000 OA
ATOM      4  N   UNL     1      -1.275  11.983  20.368  0.00  0.00    +0.000 N 
ATOM      5  C   UNL     1      -0.619  11.040  21.216  0.00  0.00    +0.000 A 
ATOM      6  C   UNL     1      -1.106  10.793  22.509  0.00  0.00    +0.000 A 
ATOM      7  C   UNL     1      -0.448   9.903  23.359  0.00  0.00    +0.000 A 
ATOM      8  C   UNL     1       0.704   9.253  22.925  0.00  0.00    +0.000 A 
ATOM      9  C   UNL     1       1.202   9.500  21.647  0.00  0.00    +0.000 A 
ATOM     10  C   UNL     1       0.550  10.401  20.791  0.00  0.00    +0.000 A 
ATOM     11  C   UNL     1       1.086  10.692  19.427  0.00  0.00    +0.000 C 
ATOM     12  C   UNL     1       0.197  10.083  18.383  0.00  0.00    +0.000 C 
ATOM     13  O   UNL     1       0.637   9.232  17.608  0.00  0.00    +0.000 OA
ATOM     14  C   UNL     1      -1.222  10.545  18.272  0.00  0.00    +0.000 A 
ATOM     15  C   UNL     1      -1.901  10.078  17.123  0.00  0.00    +0.000 A 
ATOM     16  C   UNL     1      -3.197  10.488  16.829  0.00  0.00    +0.000 A 
ATOM     17  C   UNL     1      -3.838  11.369  17.684  0.00  0.00    +0.000 A 
ATOM     18  C   UNL     1      -3.178  11.839  18.824  0.00  0.00    +0.000 A 
ATOM     19  C   UNL     1      -1.859  11.452  19.153  0.00  0.00    +0.000 A 
ATOM     20  H   UNL     1      -0.992  14.687  22.113  0.00  0.00    +0.000 HD
ATOM     21  H   UNL     1       0.027  13.318  22.093  0.00  0.00    +0.000 HD
ENDROOT
TORSDOF 0
ENDMDL
MODEL 8
REMARK VINA RESULT:      -6.3      2.053      4.005
REMARK  Name = 
REMARK  0 active torsions:
REMARK  status: ('A' for Active; 'I' for Inactive)
REMARK                            x       y       z     vdW  Elec       q    Type
REMARK                         _______ _______ _______ _____ _____    ______ ____
ROOT
ATOM      1  N   UNL     1       6.284   6.399  18.765  0.00  0.00    +0.000 N 
ATOM      2  C   UNL     1       5.686   5.175  18.647  0.00  0.00    +0.000 C 
ATOM      3  O   UNL     1       6.427   4.195  18.594  0.00  0.00    +0.000 OA
ATOM      4  N   UNL     1       4.284   5.169  18.696  0.00  0.00    +0.000 N 
ATOM      5  C   UNL     1       3.528   6.370  18.533  0.00  0.00    +0.000 A 
ATOM      6  C   UNL     1       3.758   7.205  17.428  0.00  0.00    +0.000 A 
ATOM      7  C   UNL     1       3.053   8.401  17.282  0.00  0.00    +0.000 A 
ATOM      8  C   UNL     1       2.114   8.774  18.240  0.00  0.00    +0.000 A 
ATOM      9  C   UNL     1       1.887   7.957  19.346  0.00  0.00    +0.000 A 
ATOM     10  C   UNL     1       2.599   6.758  19.503  0.00  0.00    +0.000 A 
ATOM     11  C   UNL     1       2.383   5.884  20.696  0.00  0.00    +0.000 C 
ATOM     12  C   UNL     1       1.661   4.632  20.294  0.00  0.00    +0.000 C 
ATOM     13  O   UNL     1       0.558   4.366  20.774  0.00  0.00    +0.000 OA
ATOM     14  C   UNL     1       2.312   3.694  19.327  0.00  0.00    +0.000 A 
ATOM     15  C   UNL     1       1.657   2.448  19.190  0.00  0.00    +0.000 A 
ATOM     16  C   UNL     1       2.184   1.434  18.398  0.00  0.00    +0.000 A 
ATOM     17  C   UNL     1       3.373   1.652  17.723  0.00  0.00    +0.000 A 
ATOM     18  C   UNL     1       4.031   2.880  17.849  0.00  0.00    +0.000 A 
ATOM     19  C   UNL     1       3.532   3.932  18.651  0.00  0.00    +0.000 A 
ATOM     20  H   UNL     1       7.285   6.347  18.896  0.00  0.00    +0.000 HD
ATOM     21  H   UNL     1       5.814   7.098  19.325  0.00  0.00    +0.000 HD
ENDROOT
TORSDOF 0
ENDMDL
MODEL 9
REMARK VINA RESULT:      -6.2      6.003      8.400
REMARK  Name = 
REMARK  0 active torsions:
REMARK  status: ('A' for Active; 'I' for Inactive)
REMARK                            x       y       z     vdW  Elec       q    Type
REMARK                         _______ _______ _______ _____ _____    ______ ____
ROOT
ATOM      1  N   UNL     1      -2.040   9.719  17.493  0.00  0.00    +0.000 N 
ATOM      2  C   UNL     1      -2.078  10.770  18.367  0.00  0.00    +0.000 C 
ATOM      3  O   UNL     1      -2.996  11.577  18.229  0.00  0.00    +0.000 OA
ATOM      4  N   UNL     1      -1.114  10.756  19.386  0.00  0.00    +0.000 N 
ATOM      5  C   UNL     1       0.030   9.904  19.317  0.00  0.00    +0.000 A 
ATOM      6  C   UNL     1       0.844   9.904  18.174  0.00  0.00    +0.000 A 
ATOM      7  C   UNL     1       1.940   9.046  18.081  0.00  0.00    +0.000 A 
ATOM      8  C   UNL     1       2.231   8.177  19.129  0.00  0.00    +0.000 A 
ATOM      9  C   UNL     1       1.422   8.161  20.264  0.00  0.00    +0.000 A 
ATOM     10  C   UNL     1       0.314   9.016  20.359  0.00  0.00    +0.000 A 
ATOM     11  C   UNL     1      -0.576   8.993  21.560  0.00  0.00    +0.000 C 
ATOM     12  C   UNL     1      -0.379  10.240  22.371  0.00  0.00    +0.000 C 
ATOM     13  O   UNL     1       0.020  10.170  23.535  0.00  0.00    +0.000 OA
ATOM     14  C   UNL     1      -0.704  11.566  21.761  0.00  0.00    +0.000 A 
ATOM     15  C   UNL     1      -0.700  12.647  22.673  0.00  0.00    +0.000 A 
ATOM     16  C   UNL     1      -1.067  13.930  22.281  0.00  0.00    +0.000 A 
ATOM     17  C   UNL     1      -1.440  14.154  20.966  0.00  0.00    +0.000 A 
ATOM     18  C   UNL     1      -1.448  13.095  20.053  0.00  0.00    +0.000 A 
ATOM     19  C   UNL     1      -1.089  11.776  20.415  0.00  0.00    +0.000 A 
ATOM     20  H   UNL     1      -2.846   9.674  16.883  0.00  0.00    +0.000 HD
ATOM     21  H   UNL     1      -1.719   8.828  17.847  0.00  0.00    +0.000 HD
ENDROOT
TORSDOF 0
ENDMDL
