MODEL 1
REMARK VINA RESULT:      -9.1      0.000      0.000
REMARK  Name = 
REMARK  6 active torsions:
REMARK  status: ('A' for Active; 'I' for Inactive)
REMARK    1  A    between atoms: C_1  and  C_2
REMARK    2  A    between atoms: C_7  and  C_8
REMARK    3  A    between atoms: C_8  and  O_9
REMARK    4  A    between atoms: O_9  and  C_10
REMARK    5  A    between atoms: C_12  and  C_13
REMARK    6  A    between atoms: C_16  and  C_17
REMARK                            x       y       z     vdW  Elec       q    Type
REMARK                         _______ _______ _______ _____ _____    ______ ____
ROOT
ATOM      1  C   UNL     1       2.971   4.682  17.281  0.00  0.00    +0.000 A 
ATOM      2  N   UNL     1       2.316   5.654  17.953  0.00  0.00    +0.000 NA
ATOM      3  C   UNL     1       2.931   6.844  18.121  0.00  0.00    +0.000 A 
ATOM      4  C   UNL     1       4.217   7.069  17.658  0.00  0.00    +0.000 A 
ATOM      5  C   UNL     1       4.893   6.082  16.979  0.00  0.00    +0.000 A 
ATOM      6  N   UNL     1       6.126   6.381  16.539  0.00  0.00    +0.000 NA
ATOM      7  C   UNL     1       6.803   5.442  15.851  0.00  0.00    +0.000 A 
ATOM      8  C   UNL     1       6.296   4.186  15.575  0.00  0.00    +0.000 A 
ATOM      9  C   UNL     1       5.017   3.877  16.041  0.00  0.00    +0.000 A 
ATOM     10  C   UNL     1       4.274   4.837  16.766  0.00  0.00    +0.000 A 
ENDROOT
BRANCH   3  11
ATOM     11  C   UNL     1       2.141   7.888  18.802  0.00  0.00    +0.000 A 
ATOM     12  C   UNL     1       1.852   7.796  20.176  0.00  0.00    +0.000 A 
ATOM     13  C   UNL     1       1.097   8.777  20.828  0.00  0.00    +0.000 A 
ATOM     14  C   UNL     1       0.610   9.874  20.114  0.00  0.00    +0.000 A 
ATOM     15  C   UNL     1       0.879   9.984  18.750  0.00  0.00    +0.000 A 
ATOM     16  C   UNL     1       1.632   9.000  18.103  0.00  0.00    +0.000 A 
BRANCH  14  17
ATOM     17  C   UNL     1      -0.167  10.876  20.775  0.00  0.00    +0.000 C 
ATOM     18  N   UNL     1      -0.805  11.685  21.312  0.00  0.00    +0.000 NA
ENDBRANCH  14  17
ENDBRANCH   3  11
BRANCH   1  19
ATOM     19  O   UNL     1       2.312   3.466  17.120  0.00  0.00    +0.000 OA
BRANCH  19  20
ATOM     20  C   UNL     1       1.637   3.060  18.328  0.00  0.00    +0.000 C 
BRANCH  20  27
ATOM     21  C   UNL     1       2.515   2.918  21.554  0.00  0.00    +0.000 C 
ATOM     22  C   UNL     1       3.289   2.732  20.262  0.00  0.00    +0.000 C 
ATOM     23  C   UNL     1       4.461   1.782  20.431  0.00  0.00    +0.000 C 
ATOM     24  O   UNL     1       5.218   1.704  21.382  0.00  0.00    +0.000 OA
ATOM     25  N   UNL     1       4.567   1.047  19.267  0.00  0.00    +0.000 N 
ATOM     26  C   UNL     1       3.583   1.416  18.291  0.00  0.00    +0.000 C 
ATOM     27  C   UNL     1       2.482   2.066  19.125  0.00  0.00    +0.000 C 
ATOM     28  H   UNL     1       5.343   0.410  19.128  0.00  0.00    +0.000 HD
ENDBRANCH  20  27
ENDBRANCH  19  20
ENDBRANCH   1  19
TORSDOF 5
ENDMDL
MODEL 2
REMARK VINA RESULT:      -8.6      1.531      2.315
REMARK  Name = 
REMARK  6 active torsions:
REMARK  status: ('A' for Active; 'I' for Inactive)
REMARK    1  A    between atoms: C_1  and  C_2
REMARK    2  A    between atoms: C_7  and  C_8
REMARK    3  A    between atoms: C_8  and  O_9
REMARK    4  A    between atoms: O_9  and  C_10
REMARK    5  A    between atoms: C_12  and  C_13
REMARK    6  A    between atoms: C_16  and  C_17
REMARK                            x       y       z     vdW  Elec       q    Type
REMARK                         _______ _______ _______ _____ _____    ______ ____
ROOT
ATOM      1  C   UNL     1       5.077   5.090  18.565  0.00  0.00    +0.000 A 
ATOM      2  N   UNL     1       4.160   5.989  18.986  0.00  0.00    +0.000 NA
ATOM      3  C   UNL     1       3.684   6.885  18.096  0.00  0.00    +0.000 A 
ATOM      4  C   UNL     1       4.140   6.922  16.788  0.00  0.00    +0.000 A 
ATOM      5  C   UNL     1       5.078   6.014  16.353  0.00  0.00    +0.000 A 
ATOM      6  N   UNL     1       5.453   6.096  15.067  0.00  0.00    +0.000 NA
ATOM      7  C   UNL     1       6.353   5.206  14.608  0.00  0.00    +0.000 A 
ATOM      8  C   UNL     1       6.911   4.213  15.391  0.00  0.00    +0.000 A 
ATOM      9  C   UNL     1       6.524   4.137  16.730  0.00  0.00    +0.000 A 
ATOM     10  C   UNL     1       5.580   5.053  17.249  0.00  0.00    +0.000 A 
ENDROOT
BRANCH   3  11
ATOM     11  C   UNL     1       2.636   7.797  18.595  0.00  0.00    +0.000 A 
ATOM     12  C   UNL     1       2.101   8.804  17.770  0.00  0.00    +0.000 A 
ATOM     13  C   UNL     1       1.113   9.677  18.237  0.00  0.00    +0.000 A 
ATOM     14  C   UNL     1       0.643   9.565  19.546  0.00  0.00    +0.000 A 
ATOM     15  C   UNL     1       1.163   8.579  20.385  0.00  0.00    +0.000 A 
ATOM     16  C   UNL     1       2.150   7.709  19.913  0.00  0.00    +0.000 A 
BRANCH  14  17
ATOM     17  C   UNL     1      -0.362  10.461  20.031  0.00  0.00    +0.000 C 
ATOM     18  N   UNL     1      -1.173  11.192  20.428  0.00  0.00    +0.000 NA
ENDBRANCH  14  17
ENDBRANCH   3  11
BRANCH   1  19
ATOM     19  O   UNL     1       5.549   4.177  19.505  0.00  0.00    +0.000 OA
BRANCH  19  20
ATOM     20  C   UNL     1       4.485   3.363  20.039  0.00  0.00    +0.000 C 
BRANCH  20  27
ATOM     21  C   UNL     1       1.252   4.219  20.112  0.00  0.00    +0.000 C 
ATOM     22  C   UNL     1       1.977   2.956  19.688  0.00  0.00    +0.000 C 
ATOM     23  C   UNL     1       1.225   2.200  18.609  0.00  0.00    +0.000 C 
ATOM     24  O   UNL     1       0.020   2.033  18.526  0.00  0.00    +0.000 OA
ATOM     25  N   UNL     1       2.163   1.664  17.750  0.00  0.00    +0.000 N 
ATOM     26  C   UNL     1       3.508   1.962  18.147  0.00  0.00    +0.000 C 
ATOM     27  C   UNL     1       3.351   3.201  19.025  0.00  0.00    +0.000 C 
ATOM     28  H   UNL     1       1.881   1.041  17.001  0.00  0.00    +0.000 HD
ENDBRANCH  20  27
ENDBRANCH  19  20
ENDBRANCH   1  19
TORSDOF 5
ENDMDL
MODEL 3
REMARK VINA RESULT:      -8.2      1.188      1.544
REMARK  Name = 
REMARK  6 active torsions:
REMARK  status: ('A' for Active; 'I' for Inactive)
REMARK    1  A    between atoms: C_1  and  C_2
REMARK    2  A    between atoms: C_7  and  C_8
REMARK    3  A    between atoms: C_8  and  O_9
REMARK    4  A    between atoms: O_9  and  C_10
REMARK    5  A    between atoms: C_12  and  C_13
REMARK    6  A    between atoms: C_16  and  C_17
REMARK                            x       y       z     vdW  Elec       q    Type
REMARK                         _______ _______ _______ _____ _____    ______ ____
ROOT
ATOM      1  C   UNL     1       3.461   4.456  17.137  0.00  0.00    +0.000 A 
ATOM      2  N   UNL     1       2.766   5.401  17.809  0.00  0.00    +0.000 NA
ATOM      3  C   UNL     1       3.281   6.647  17.882  0.00  0.00    +0.000 A 
ATOM      4  C   UNL     1       4.508   6.959  17.321  0.00  0.00    +0.000 A 
ATOM      5  C   UNL     1       5.225   6.002  16.640  0.00  0.00    +0.000 A 
ATOM      6  N   UNL     1       6.394   6.385  16.102  0.00  0.00    +0.000 NA
ATOM      7  C   UNL     1       7.106   5.475  15.411  0.00  0.00    +0.000 A 
ATOM      8  C   UNL     1       6.698   4.168  15.227  0.00  0.00    +0.000 A 
ATOM      9  C   UNL     1       5.486   3.771  15.794  0.00  0.00    +0.000 A 
ATOM     10  C   UNL     1       4.708   4.698  16.526  0.00  0.00    +0.000 A 
ENDROOT
BRANCH   3  11
ATOM     11  C   UNL     1       2.446   7.651  18.570  0.00  0.00    +0.000 A 
ATOM     12  C   UNL     1       2.088   7.491  19.921  0.00  0.00    +0.000 A 
ATOM     13  C   UNL     1       1.291   8.435  20.578  0.00  0.00    +0.000 A 
ATOM     14  C   UNL     1       0.830   9.559  19.892  0.00  0.00    +0.000 A 
ATOM     15  C   UNL     1       1.166   9.736  18.550  0.00  0.00    +0.000 A 
ATOM     16  C   UNL     1       1.962   8.790  17.898  0.00  0.00    +0.000 A 
BRANCH  14  17
ATOM     17  C   UNL     1       0.009  10.523  20.558  0.00  0.00    +0.000 C 
ATOM     18  N   UNL     1      -0.653  11.310  21.100  0.00  0.00    +0.000 NA
ENDBRANCH  14  17
ENDBRANCH   3  11
BRANCH   1  19
ATOM     19  O   UNL     1       2.905   3.181  17.077  0.00  0.00    +0.000 OA
BRANCH  19  20
ATOM     20  C   UNL     1       3.734   2.205  17.740  0.00  0.00    +0.000 C 
BRANCH  20  27
ATOM     21  C   UNL     1       0.617   2.010  18.942  0.00  0.00    +0.000 C 
ATOM     22  C   UNL     1       1.893   2.638  19.472  0.00  0.00    +0.000 C 
ATOM     23  C   UNL     1       1.928   2.665  20.989  0.00  0.00    +0.000 C 
ATOM     24  O   UNL     1       1.003   2.903  21.746  0.00  0.00    +0.000 OA
ATOM     25  N   UNL     1       3.232   2.431  21.375  0.00  0.00    +0.000 N 
ATOM     26  C   UNL     1       4.117   2.265  20.259  0.00  0.00    +0.000 C 
ATOM     27  C   UNL     1       3.180   1.859  19.123  0.00  0.00    +0.000 C 
ATOM     28  H   UNL     1       3.501   2.495  22.350  0.00  0.00    +0.000 HD
ENDBRANCH  20  27
ENDBRANCH  19  20
ENDBRANCH   1  19
TORSDOF 5
ENDMDL
MODEL 4
REMARK VINA RESULT:      -8.2      1.281      1.797
REMARK  Name = 
REMARK  6 active torsions:
REMARK  status: ('A' for Active; 'I' for Inactive)
REMARK    1  A    between atoms: C_1  and  C_2
REMARK    2  A    between atoms: C_7  and  C_8
REMARK    3  A    between atoms: C_8  and  O_9
REMARK    4  A    between atoms: O_9  and  C_10
REMARK    5  A    between atoms: C_12  and  C_13
REMARK    6  A    between atoms: C_16  and  C_17
REMARK                            x       y       z     vdW  Elec       q    Type
REMARK                         _______ _______ _______ _____ _____    ______ ____
ROOT
ATOM      1  C   UNL     1       3.257   4.451  16.905  0.00  0.00    +0.000 A 
ATOM      2  N   UNL     1       2.570   5.376  17.612  0.00  0.00    +0.000 NA
ATOM      3  C   UNL     1       3.211   6.501  17.991  0.00  0.00    +0.000 A 
ATOM      4  C   UNL     1       4.552   6.704  17.707  0.00  0.00    +0.000 A 
ATOM      5  C   UNL     1       5.260   5.765  16.993  0.00  0.00    +0.000 A 
ATOM      6  N   UNL     1       6.548   6.042  16.734  0.00  0.00    +0.000 NA
ATOM      7  C   UNL     1       7.261   5.152  16.018  0.00  0.00    +0.000 A 
ATOM      8  C   UNL     1       6.736   3.967  15.537  0.00  0.00    +0.000 A 
ATOM      9  C   UNL     1       5.399   3.679  15.815  0.00  0.00    +0.000 A 
ATOM     10  C   UNL     1       4.618   4.590  16.563  0.00  0.00    +0.000 A 
ENDROOT
BRANCH   3  11
ATOM     11  C   UNL     1       2.392   7.503  18.700  0.00  0.00    +0.000 A 
ATOM     12  C   UNL     1       1.922   8.653  18.039  0.00  0.00    +0.000 A 
ATOM     13  C   UNL     1       1.152   9.612  18.705  0.00  0.00    +0.000 A 
ATOM     14  C   UNL     1       0.839   9.442  20.055  0.00  0.00    +0.000 A 
ATOM     15  C   UNL     1       1.299   8.314  20.734  0.00  0.00    +0.000 A 
ATOM     16  C   UNL     1       2.069   7.359  20.063  0.00  0.00    +0.000 A 
BRANCH  14  17
ATOM     17  C   UNL     1       0.059  10.423  20.743  0.00  0.00    +0.000 C 
ATOM     18  N   UNL     1      -0.573  11.226  21.297  0.00  0.00    +0.000 NA
ENDBRANCH  14  17
ENDBRANCH   3  11
BRANCH   1  19
ATOM     19  O   UNL     1       2.570   3.302  16.525  0.00  0.00    +0.000 OA
BRANCH  19  20
ATOM     20  C   UNL     1       2.450   2.365  17.615  0.00  0.00    +0.000 C 
BRANCH  20  27
ATOM     21  C   UNL     1       4.258   3.450  20.214  0.00  0.00    +0.000 C 
ATOM     22  C   UNL     1       2.959   2.673  20.110  0.00  0.00    +0.000 C 
ATOM     23  C   UNL     1       2.047   2.925  21.297  0.00  0.00    +0.000 C 
ATOM     24  O   UNL     1       2.369   3.039  22.466  0.00  0.00    +0.000 OA
ATOM     25  N   UNL     1       0.750   2.940  20.824  0.00  0.00    +0.000 N 
ATOM     26  C   UNL     1       0.675   2.698  19.412  0.00  0.00    +0.000 C 
ATOM     27  C   UNL     1       2.068   3.076  18.914  0.00  0.00    +0.000 C 
ATOM     28  H   UNL     1      -0.032   3.005  21.465  0.00  0.00    +0.000 HD
ENDBRANCH  20  27
ENDBRANCH  19  20
ENDBRANCH   1  19
TORSDOF 5
ENDMDL
MODEL 5
REMARK VINA RESULT:      -8.2      1.520      1.919
REMARK  Name = 
REMARK  6 active torsions:
REMARK  status: ('A' for Active; 'I' for Inactive)
REMARK    1  A    between atoms: C_1  and  C_2
REMARK    2  A    between atoms: C_7  and  C_8
REMARK    3  A    between atoms: C_8  and  O_9
REMARK    4  A    between atoms: O_9  and  C_10
REMARK    5  A    between atoms: C_12  and  C_13
REMARK    6  A    between atoms: C_16  and  C_17
REMARK                            x       y       z     vdW  Elec       q    Type
REMARK                         _______ _______ _______ _____ _____    ______ ____
ROOT
ATOM      1  C   UNL     1       4.184   3.994  17.082  0.00  0.00    +0.000 A 
ATOM      2  N   UNL     1       3.489   4.900  17.806  0.00  0.00    +0.000 NA
ATOM      3  C   UNL     1       3.704   6.211  17.570  0.00  0.00    +0.000 A 
ATOM      4  C   UNL     1       4.638   6.638  16.639  0.00  0.00    +0.000 A 
ATOM      5  C   UNL     1       5.353   5.722  15.903  0.00  0.00    +0.000 A 
ATOM      6  N   UNL     1       6.222   6.211  15.003  0.00  0.00    +0.000 NA
ATOM      7  C   UNL     1       6.920   5.338  14.252  0.00  0.00    +0.000 A 
ATOM      8  C   UNL     1       6.790   3.967  14.360  0.00  0.00    +0.000 A 
ATOM      9  C   UNL     1       5.892   3.463  15.301  0.00  0.00    +0.000 A 
ATOM     10  C   UNL     1       5.139   4.347  16.108  0.00  0.00    +0.000 A 
ENDROOT
BRANCH   3  11
ATOM     11  C   UNL     1       2.868   7.152  18.341  0.00  0.00    +0.000 A 
ATOM     12  C   UNL     1       2.471   6.855  19.658  0.00  0.00    +0.000 A 
ATOM     13  C   UNL     1       1.673   7.737  20.393  0.00  0.00    +0.000 A 
ATOM     14  C   UNL     1       1.250   8.938  19.822  0.00  0.00    +0.000 A 
ATOM     15  C   UNL     1       1.625   9.252  18.516  0.00  0.00    +0.000 A 
ATOM     16  C   UNL     1       2.422   8.366  17.785  0.00  0.00    +0.000 A 
BRANCH  14  17
ATOM     17  C   UNL     1       0.428   9.840  20.568  0.00  0.00    +0.000 C 
ATOM     18  N   UNL     1      -0.244  10.568  21.177  0.00  0.00    +0.000 NA
ENDBRANCH  14  17
ENDBRANCH   3  11
BRANCH   1  19
ATOM     19  O   UNL     1       3.940   2.649  17.346  0.00  0.00    +0.000 OA
BRANCH  19  20
ATOM     20  C   UNL     1       2.544   2.402  17.614  0.00  0.00    +0.000 C 
BRANCH  20  27
ATOM     21  C   UNL     1       3.970   2.537  20.639  0.00  0.00    +0.000 C 
ATOM     22  C   UNL     1       2.555   2.244  20.175  0.00  0.00    +0.000 C 
ATOM     23  C   UNL     1       1.520   2.646  21.209  0.00  0.00    +0.000 C 
ATOM     24  O   UNL     1       1.594   2.516  22.418  0.00  0.00    +0.000 OA
ATOM     25  N   UNL     1       0.425   3.138  20.528  0.00  0.00    +0.000 N 
ATOM     26  C   UNL     1       0.596   3.095  19.104  0.00  0.00    +0.000 C 
ATOM     27  C   UNL     1       2.113   3.048  18.932  0.00  0.00    +0.000 C 
ATOM     28  H   UNL     1      -0.424   3.383  21.024  0.00  0.00    +0.000 HD
ENDBRANCH  20  27
ENDBRANCH  19  20
ENDBRANCH   1  19
TORSDOF 5
ENDMDL
MODEL 6
REMARK VINA RESULT:      -8.1      1.183      1.540
REMARK  Name = 
REMARK  6 active torsions:
REMARK  status: ('A' for Active; 'I' for Inactive)
REMARK    1  A    between atoms: C_1  and  C_2
REMARK    2  A    between atoms: C_7  and  C_8
REMARK    3  A    between atoms: C_8  and  O_9
REMARK    4  A    between atoms: O_9  and  C_10
REMARK    5  A    between atoms: C_12  and  C_13
REMARK    6  A    between atoms: C_16  and  C_17
REMARK                            x       y       z     vdW  Elec       q    Type
REMARK                         _______ _______ _______ _____ _____    ______ ____
ROOT
ATOM      1  C   UNL     1       3.396   4.633  17.139  0.00  0.00    +0.000 A 
ATOM      2  N   UNL     1       2.660   5.582  17.759  0.00  0.00    +0.000 NA
ATOM      3  C   UNL     1       3.203   6.805  17.932  0.00  0.00    +0.000 A 
ATOM      4  C   UNL     1       4.496   7.089  17.525  0.00  0.00    +0.000 A 
ATOM      5  C   UNL     1       5.255   6.128  16.898  0.00  0.00    +0.000 A 
ATOM      6  N   UNL     1       6.489   6.484  16.510  0.00  0.00    +0.000 NA
ATOM      7  C   UNL     1       7.247   5.571  15.874  0.00  0.00    +0.000 A 
ATOM      8  C   UNL     1       6.819   4.285  15.600  0.00  0.00    +0.000 A 
ATOM      9  C   UNL     1       5.538   3.916  16.012  0.00  0.00    +0.000 A 
ATOM     10  C   UNL     1       4.712   4.848  16.682  0.00  0.00    +0.000 A 
ENDROOT
BRANCH   3  11
ATOM     11  C   UNL     1       2.328   7.818  18.554  0.00  0.00    +0.000 A 
ATOM     12  C   UNL     1       1.992   7.744  19.919  0.00  0.00    +0.000 A 
ATOM     13  C   UNL     1       1.157   8.695  20.515  0.00  0.00    +0.000 A 
ATOM     14  C   UNL     1       0.635   9.742  19.753  0.00  0.00    +0.000 A 
ATOM     15  C   UNL     1       0.949   9.833  18.397  0.00  0.00    +0.000 A 
ATOM     16  C   UNL     1       1.783   8.879  17.807  0.00  0.00    +0.000 A 
BRANCH  14  17
ATOM     17  C   UNL     1      -0.224  10.713  20.356  0.00  0.00    +0.000 C 
ATOM     18  N   UNL     1      -0.929  11.498  20.844  0.00  0.00    +0.000 NA
ENDBRANCH  14  17
ENDBRANCH   3  11
BRANCH   1  19
ATOM     19  O   UNL     1       2.810   3.382  16.972  0.00  0.00    +0.000 OA
BRANCH  19  20
ATOM     20  C   UNL     1       1.632   3.230  17.791  0.00  0.00    +0.000 C 
BRANCH  20  27
ATOM     21  C   UNL     1       4.201   2.391  19.763  0.00  0.00    +0.000 C 
ATOM     22  C   UNL     1       2.697   2.361  19.957  0.00  0.00    +0.000 C 
ATOM     23  C   UNL     1       2.304   2.544  21.411  0.00  0.00    +0.000 C 
ATOM     24  O   UNL     1       2.857   2.075  22.391  0.00  0.00    +0.000 OA
ATOM     25  N   UNL     1       1.148   3.298  21.435  0.00  0.00    +0.000 N 
ATOM     26  C   UNL     1       0.686   3.640  20.121  0.00  0.00    +0.000 C 
ATOM     27  C   UNL     1       1.941   3.516  19.261  0.00  0.00    +0.000 C 
ATOM     28  H   UNL     1       0.659   3.465  22.307  0.00  0.00    +0.000 HD
ENDBRANCH  20  27
ENDBRANCH  19  20
ENDBRANCH   1  19
TORSDOF 5
ENDMDL
MODEL 7
REMARK VINA RESULT:      -8.1      1.555      2.331
REMARK  Name = 
REMARK  6 active torsions:
REMARK  status: ('A' for Active; 'I' for Inactive)
REMARK    1  A    between atoms: C_1  and  C_2
REMARK    2  A    between atoms: C_7  and  C_8
REMARK    3  A    between atoms: C_8  and  O_9
REMARK    4  A    between atoms: O_9  and  C_10
REMARK    5  A    between atoms: C_12  and  C_13
REMARK    6  A    between atoms: C_16  and  C_17
REMARK                            x       y       z     vdW  Elec       q    Type
REMARK                         _______ _______ _______ _____ _____    ______ ____
ROOT
ATOM      1  C   UNL     1       4.578   4.906  18.433  0.00  0.00    +0.000 A 
ATOM      2  N   UNL     1       3.736   5.864  18.880  0.00  0.00    +0.000 NA
ATOM      3  C   UNL     1       3.479   6.919  18.079  0.00  0.00    +0.000 A 
ATOM      4  C   UNL     1       4.085   7.054  16.841  0.00  0.00    +0.000 A 
ATOM      5  C   UNL     1       4.949   6.087  16.380  0.00  0.00    +0.000 A 
ATOM      6  N   UNL     1       5.479   6.275  15.161  0.00  0.00    +0.000 NA
ATOM      7  C   UNL     1       6.310   5.334  14.675  0.00  0.00    +0.000 A 
ATOM      8  C   UNL     1       6.647   4.185  15.366  0.00  0.00    +0.000 A 
ATOM      9  C   UNL     1       6.100   3.998  16.636  0.00  0.00    +0.000 A 
ATOM     10  C   UNL     1       5.222   4.963  17.181  0.00  0.00    +0.000 A 
ENDROOT
BRANCH   3  11
ATOM     11  C   UNL     1       2.500   7.897  18.592  0.00  0.00    +0.000 A 
ATOM     12  C   UNL     1       2.008   7.806  19.907  0.00  0.00    +0.000 A 
ATOM     13  C   UNL     1       1.074   8.724  20.399  0.00  0.00    +0.000 A 
ATOM     14  C   UNL     1       0.608   9.754  19.580  0.00  0.00    +0.000 A 
ATOM     15  C   UNL     1       1.076   9.861  18.270  0.00  0.00    +0.000 A 
ATOM     16  C   UNL     1       2.009   8.940  17.784  0.00  0.00    +0.000 A 
BRANCH  14  17
ATOM     17  C   UNL     1      -0.352  10.691  20.076  0.00  0.00    +0.000 C 
ATOM     18  N   UNL     1      -1.137  11.446  20.481  0.00  0.00    +0.000 NA
ENDBRANCH  14  17
ENDBRANCH   3  11
BRANCH   1  19
ATOM     19  O   UNL     1       4.822   3.828  19.280  0.00  0.00    +0.000 OA
BRANCH  19  20
ATOM     20  C   UNL     1       4.053   3.920  20.497  0.00  0.00    +0.000 C 
BRANCH  20  27
ATOM     21  C   UNL     1       3.087   1.513  18.382  0.00  0.00    +0.000 C 
ATOM     22  C   UNL     1       2.378   2.720  18.968  0.00  0.00    +0.000 C 
ATOM     23  C   UNL     1       0.883   2.497  19.097  0.00  0.00    +0.000 C 
ATOM     24  O   UNL     1       0.149   1.929  18.307  0.00  0.00    +0.000 OA
ATOM     25  N   UNL     1       0.472   3.117  20.260  0.00  0.00    +0.000 N 
ATOM     26  C   UNL     1       1.548   3.774  20.944  0.00  0.00    +0.000 C 
ATOM     27  C   UNL     1       2.790   3.059  20.418  0.00  0.00    +0.000 C 
ATOM     28  H   UNL     1      -0.512   3.169  20.497  0.00  0.00    +0.000 HD
ENDBRANCH  20  27
ENDBRANCH  19  20
ENDBRANCH   1  19
TORSDOF 5
ENDMDL
MODEL 8
REMARK VINA RESULT:      -8.0      2.164      4.977
REMARK  Name = 
REMARK  6 active torsions:
REMARK  status: ('A' for Active; 'I' for Inactive)
REMARK    1  A    between atoms: C_1  and  C_2
REMARK    2  A    between atoms: C_7  and  C_8
REMARK    3  A    between atoms: C_8  and  O_9
REMARK    4  A    between atoms: O_9  and  C_10
REMARK    5  A    between atoms: C_12  and  C_13
REMARK    6  A    between atoms: C_16  and  C_17
REMARK                            x       y       z     vdW  Elec       q    Type
REMARK                         _______ _______ _______ _____ _____    ______ ____
ROOT
ATOM      1  C   UNL     1       3.840   4.824  19.000  0.00  0.00    +0.000 A 
ATOM      2  N   UNL     1       3.390   6.082  18.797  0.00  0.00    +0.000 NA
ATOM      3  C   UNL     1       2.355   6.522  19.542  0.00  0.00    +0.000 A 
ATOM      4  C   UNL     1       1.730   5.705  20.471  0.00  0.00    +0.000 A 
ATOM      5  C   UNL     1       2.178   4.421  20.679  0.00  0.00    +0.000 A 
ATOM      6  N   UNL     1       1.538   3.698  21.612  0.00  0.00    +0.000 NA
ATOM      7  C   UNL     1       1.969   2.445  21.854  0.00  0.00    +0.000 A 
ATOM      8  C   UNL     1       3.034   1.864  21.191  0.00  0.00    +0.000 A 
ATOM      9  C   UNL     1       3.691   2.617  20.216  0.00  0.00    +0.000 A 
ATOM     10  C   UNL     1       3.269   3.937  19.935  0.00  0.00    +0.000 A 
ENDROOT
BRANCH   3  11
ATOM     11  C   UNL     1       1.952   7.925  19.324  0.00  0.00    +0.000 A 
ATOM     12  C   UNL     1       2.255   8.586  18.119  0.00  0.00    +0.000 A 
ATOM     13  C   UNL     1       1.883   9.917  17.908  0.00  0.00    +0.000 A 
ATOM     14  C   UNL     1       1.203  10.620  18.903  0.00  0.00    +0.000 A 
ATOM     15  C   UNL     1       0.897   9.989  20.109  0.00  0.00    +0.000 A 
ATOM     16  C   UNL     1       1.271   8.658  20.315  0.00  0.00    +0.000 A 
BRANCH  14  17
ATOM     17  C   UNL     1       0.828  11.984  18.694  0.00  0.00    +0.000 C 
ATOM     18  N   UNL     1       0.524  13.094  18.531  0.00  0.00    +0.000 NA
ENDBRANCH  14  17
ENDBRANCH   3  11
BRANCH   1  19
ATOM     19  O   UNL     1       4.911   4.398  18.219  0.00  0.00    +0.000 OA
BRANCH  19  20
ATOM     20  C   UNL     1       4.537   4.253  16.833  0.00  0.00    +0.000 C 
BRANCH  20  27
ATOM     21  C   UNL     1       5.399   4.045  13.607  0.00  0.00    +0.000 C 
ATOM     22  C   UNL     1       6.184   4.350  14.869  0.00  0.00    +0.000 C 
ATOM     23  C   UNL     1       7.370   5.256  14.598  0.00  0.00    +0.000 C 
ATOM     24  O   UNL     1       8.123   5.222  13.640  0.00  0.00    +0.000 OA
ATOM     25  N   UNL     1       7.496   6.106  15.678  0.00  0.00    +0.000 N 
ATOM     26  C   UNL     1       6.512   5.858  16.692  0.00  0.00    +0.000 C 
ATOM     27  C   UNL     1       5.395   5.144  15.934  0.00  0.00    +0.000 C 
ATOM     28  H   UNL     1       8.283   6.739  15.748  0.00  0.00    +0.000 HD
ENDBRANCH  20  27
ENDBRANCH  19  20
ENDBRANCH   1  19
TORSDOF 5
ENDMDL
MODEL 9
REMARK VINA RESULT:      -8.0      3.911      9.061
REMARK  Name = 
REMARK  6 active torsions:
REMARK  status: ('A' for Active; 'I' for Inactive)
REMARK    1  A    between atoms: C_1  and  C_2
REMARK    2  A    between atoms: C_7  and  C_8
REMARK    3  A    between atoms: C_8  and  O_9
REMARK    4  A    between atoms: O_9  and  C_10
REMARK    5  A    between atoms: C_12  and  C_13
REMARK    6  A    between atoms: C_16  and  C_17
REMARK                            x       y       z     vdW  Elec       q    Type
REMARK                         _______ _______ _______ _____ _____    ______ ____
ROOT
ATOM      1  C   UNL     1       0.426   9.800  18.907  0.00  0.00    +0.000 A 
ATOM      2  N   UNL     1       1.265   8.938  18.290  0.00  0.00    +0.000 NA
ATOM      3  C   UNL     1       1.950   8.056  19.046  0.00  0.00    +0.000 A 
ATOM      4  C   UNL     1       1.839   8.044  20.427  0.00  0.00    +0.000 A 
ATOM      5  C   UNL     1       0.992   8.922  21.064  0.00  0.00    +0.000 A 
ATOM      6  N   UNL     1       0.919   8.835  22.402  0.00  0.00    +0.000 NA
ATOM      7  C   UNL     1       0.081   9.666  23.050  0.00  0.00    +0.000 A 
ATOM      8  C   UNL     1      -0.706  10.604  22.411  0.00  0.00    +0.000 A 
ATOM      9  C   UNL     1      -0.621  10.697  21.021  0.00  0.00    +0.000 A 
ATOM     10  C   UNL     1       0.246   9.841  20.304  0.00  0.00    +0.000 A 
ENDROOT
BRANCH   3  11
ATOM     11  C   UNL     1       2.798   7.097  18.313  0.00  0.00    +0.000 A 
ATOM     12  C   UNL     1       3.877   7.540  17.524  0.00  0.00    +0.000 A 
ATOM     13  C   UNL     1       4.680   6.638  16.819  0.00  0.00    +0.000 A 
ATOM     14  C   UNL     1       4.418   5.269  16.884  0.00  0.00    +0.000 A 
ATOM     15  C   UNL     1       3.350   4.806  17.654  0.00  0.00    +0.000 A 
ATOM     16  C   UNL     1       2.550   5.712  18.356  0.00  0.00    +0.000 A 
BRANCH  14  17
ATOM     17  C   UNL     1       5.233   4.344  16.159  0.00  0.00    +0.000 C 
ATOM     18  N   UNL     1       5.897   3.589  15.576  0.00  0.00    +0.000 NA
ENDBRANCH  14  17
ENDBRANCH   3  11
BRANCH   1  19
ATOM     19  O   UNL     1      -0.270  10.697  18.100  0.00  0.00    +0.000 OA
BRANCH  19  20
ATOM     20  C   UNL     1      -1.393  10.069  17.449  0.00  0.00    +0.000 C 
BRANCH  20  27
ATOM     21  C   UNL     1      -3.553  11.999  19.124  0.00  0.00    +0.000 C 
ATOM     22  C   UNL     1      -3.683  11.141  17.879  0.00  0.00    +0.000 C 
ATOM     23  C   UNL     1      -4.736  11.675  16.926  0.00  0.00    +0.000 C 
ATOM     24  O   UNL     1      -5.819  12.154  17.214  0.00  0.00    +0.000 OA
ATOM     25  N   UNL     1      -4.276  11.462  15.642  0.00  0.00    +0.000 N 
ATOM     26  C   UNL     1      -3.002  10.805  15.615  0.00  0.00    +0.000 C 
ATOM     27  C   UNL     1      -2.418  11.108  16.993  0.00  0.00    +0.000 C 
ATOM     28  H   UNL     1      -4.866  11.663  14.843  0.00  0.00    +0.000 HD
ENDBRANCH  20  27
ENDBRANCH  19  20
ENDBRANCH   1  19
TORSDOF 5
ENDMDL
