MODEL 1
REMARK VINA RESULT:      -8.4      0.000      0.000
REMARK  Name = 
REMARK  4 active torsions:
REMARK  status: ('A' for Active; 'I' for Inactive)
REMARK    1  A    between atoms: C_1  and  O_2
REMARK    2  A    between atoms: O_2  and  C_3
REMARK    3  A    between atoms: C_7  and  C_8
REMARK    4  A    between atoms: N_13  and  C_14
REMARK                            x       y       z     vdW  Elec       q    Type
REMARK                         _______ _______ _______ _____ _____    ______ ____
ROOT
ATOM      1  C   UNL     1       6.898   5.345  15.823  0.00  0.00    +0.000 C 
ATOM      2  O   UNL     1       7.777   6.123  16.194  0.00  0.00    +0.000 OA
ATOM      3  N   UNL     1       5.929   4.816  16.697  0.00  0.00    +0.000 N 
ATOM      4  C   UNL     1       4.898   3.838  16.323  0.00  0.00    +0.000 C 
ATOM      5  C   UNL     1       4.374   2.985  17.492  0.00  0.00    +0.000 C 
ATOM      6  N   UNL     1       3.957   3.762  18.688  0.00  0.00    +0.000 NA
ATOM      7  C   UNL     1       5.145   4.563  19.077  0.00  0.00    +0.000 C 
ATOM      8  C   UNL     1       5.716   5.493  17.982  0.00  0.00    +0.000 C 
ENDROOT
BRANCH   1  13
ATOM      9  C   UNL     1       6.035   3.517  12.627  0.00  0.00    +0.000 A 
ATOM     10  C   UNL     1       6.981   4.040  11.746  0.00  0.00    +0.000 A 
ATOM     11  C   UNL     1       7.842   5.061  12.161  0.00  0.00    +0.000 A 
ATOM     12  C   UNL     1       7.813   5.503  13.486  0.00  0.00    +0.000 A 
ATOM     13  C   UNL     1       6.885   4.959  14.380  0.00  0.00    +0.000 A 
ATOM     14  C   UNL     1       5.932   4.053  13.904  0.00  0.00    +0.000 A 
BRANCH   9  16
ATOM     15  C   UNL     1       5.951   1.522  11.347  0.00  0.00    +0.000 C 
ATOM     16  O   UNL     1       5.272   2.480  12.162  0.00  0.00    +0.000 OA
ENDBRANCH   9  16
ENDBRANCH   1  13
BRANCH   6  17
ATOM     17  C   UNL     1       2.712   4.548  18.457  0.00  0.00    +0.000 C 
ATOM     18  C   UNL     1       1.528   3.642  18.030  0.00  0.00    +0.000 C 
ATOM     19  C   UNL     1       1.047   2.725  19.153  0.00  0.00    +0.000 C 
ATOM     20  C   UNL     1       0.620   3.516  20.385  0.00  0.00    +0.000 C 
ATOM     21  C   UNL     1       1.652   4.552  20.821  0.00  0.00    +0.000 C 
ATOM     22  C   UNL     1       2.210   5.380  19.662  0.00  0.00    +0.000 C 
ENDBRANCH   6  17
TORSDOF 3
ENDMDL
MODEL 2
REMARK VINA RESULT:      -7.7      1.426      1.850
REMARK  Name = 
REMARK  4 active torsions:
REMARK  status: ('A' for Active; 'I' for Inactive)
REMARK    1  A    between atoms: C_1  and  O_2
REMARK    2  A    between atoms: O_2  and  C_3
REMARK    3  A    between atoms: C_7  and  C_8
REMARK    4  A    between atoms: N_13  and  C_14
REMARK                            x       y       z     vdW  Elec       q    Type
REMARK                         _______ _______ _______ _____ _____    ______ ____
ROOT
ATOM      1  C   UNL     1       6.509   4.764  14.374  0.00  0.00    +0.000 C 
ATOM      2  O   UNL     1       7.451   5.550  14.272  0.00  0.00    +0.000 OA
ATOM      3  N   UNL     1       5.753   4.629  15.555  0.00  0.00    +0.000 N 
ATOM      4  C   UNL     1       4.661   3.666  15.753  0.00  0.00    +0.000 C 
ATOM      5  C   UNL     1       4.404   3.288  17.223  0.00  0.00    +0.000 C 
ATOM      6  N   UNL     1       4.263   4.445  18.144  0.00  0.00    +0.000 NA
ATOM      7  C   UNL     1       5.510   5.235  17.987  0.00  0.00    +0.000 C 
ATOM      8  C   UNL     1       5.830   5.705  16.550  0.00  0.00    +0.000 C 
ENDROOT
BRANCH   1  13
ATOM      9  C   UNL     1       4.532   3.173  11.571  0.00  0.00    +0.000 A 
ATOM     10  C   UNL     1       5.436   2.219  11.103  0.00  0.00    +0.000 A 
ATOM     11  C   UNL     1       6.729   2.153  11.632  0.00  0.00    +0.000 A 
ATOM     12  C   UNL     1       7.093   2.989  12.691  0.00  0.00    +0.000 A 
ATOM     13  C   UNL     1       6.178   3.927  13.183  0.00  0.00    +0.000 A 
ATOM     14  C   UNL     1       4.948   4.080  12.535  0.00  0.00    +0.000 A 
BRANCH   9  16
ATOM     15  C   UNL     1       3.039   3.965   9.907  0.00  0.00    +0.000 C 
ATOM     16  O   UNL     1       3.270   3.130  11.043  0.00  0.00    +0.000 OA
ENDBRANCH   9  16
ENDBRANCH   1  13
BRANCH   6  17
ATOM     17  C   UNL     1       3.001   5.206  17.923  0.00  0.00    +0.000 C 
ATOM     18  C   UNL     1       1.772   4.266  17.813  0.00  0.00    +0.000 C 
ATOM     19  C   UNL     1       1.428   3.581  19.134  0.00  0.00    +0.000 C 
ATOM     20  C   UNL     1       1.156   4.593  20.242  0.00  0.00    +0.000 C 
ATOM     21  C   UNL     1       2.235   5.666  20.354  0.00  0.00    +0.000 C 
ATOM     22  C   UNL     1       2.650   6.255  19.006  0.00  0.00    +0.000 C 
ENDBRANCH   6  17
TORSDOF 3
ENDMDL
MODEL 3
REMARK VINA RESULT:      -7.4      1.463      1.527
REMARK  Name = 
REMARK  4 active torsions:
REMARK  status: ('A' for Active; 'I' for Inactive)
REMARK    1  A    between atoms: C_1  and  O_2
REMARK    2  A    between atoms: O_2  and  C_3
REMARK    3  A    between atoms: C_7  and  C_8
REMARK    4  A    between atoms: N_13  and  C_14
REMARK                            x       y       z     vdW  Elec       q    Type
REMARK                         _______ _______ _______ _____ _____    ______ ____
ROOT
ATOM      1  C   UNL     1       5.292   5.935  15.308  0.00  0.00    +0.000 C 
ATOM      2  O   UNL     1       5.165   7.149  15.148  0.00  0.00    +0.000 OA
ATOM      3  N   UNL     1       4.915   5.278  16.495  0.00  0.00    +0.000 N 
ATOM      4  C   UNL     1       5.102   3.845  16.764  0.00  0.00    +0.000 C 
ATOM      5  C   UNL     1       5.185   3.483  18.258  0.00  0.00    +0.000 C 
ATOM      6  N   UNL     1       4.088   4.039  19.092  0.00  0.00    +0.000 NA
ATOM      7  C   UNL     1       4.130   5.507  18.878  0.00  0.00    +0.000 C 
ATOM      8  C   UNL     1       4.003   5.975  17.410  0.00  0.00    +0.000 C 
ENDROOT
BRANCH   1  13
ATOM      9  C   UNL     1       5.580   3.508  12.423  0.00  0.00    +0.000 A 
ATOM     10  C   UNL     1       6.959   3.489  12.215  0.00  0.00    +0.000 A 
ATOM     11  C   UNL     1       7.794   4.339  12.947  0.00  0.00    +0.000 A 
ATOM     12  C   UNL     1       7.258   5.151  13.949  0.00  0.00    +0.000 A 
ATOM     13  C   UNL     1       5.877   5.150  14.181  0.00  0.00    +0.000 A 
ATOM     14  C   UNL     1       5.047   4.410  13.333  0.00  0.00    +0.000 A 
BRANCH   9  16
ATOM     15  C   UNL     1       3.738   3.137  10.975  0.00  0.00    +0.000 C 
ATOM     16  O   UNL     1       4.841   2.603  11.709  0.00  0.00    +0.000 OA
ENDBRANCH   9  16
ENDBRANCH   1  13
BRANCH   6  17
ATOM     17  C   UNL     1       2.772   3.396  18.816  0.00  0.00    +0.000 C 
ATOM     18  C   UNL     1       2.605   2.066  19.595  0.00  0.00    +0.000 C 
ATOM     19  C   UNL     1       2.476   2.273  21.103  0.00  0.00    +0.000 C 
ATOM     20  C   UNL     1       1.300   3.179  21.451  0.00  0.00    +0.000 C 
ATOM     21  C   UNL     1       1.275   4.470  20.637  0.00  0.00    +0.000 C 
ATOM     22  C   UNL     1       1.525   4.252  19.144  0.00  0.00    +0.000 C 
ENDBRANCH   6  17
TORSDOF 3
ENDMDL
MODEL 4
REMARK VINA RESULT:      -7.1      1.346      1.918
REMARK  Name = 
REMARK  4 active torsions:
REMARK  status: ('A' for Active; 'I' for Inactive)
REMARK    1  A    between atoms: C_1  and  O_2
REMARK    2  A    between atoms: O_2  and  C_3
REMARK    3  A    between atoms: C_7  and  C_8
REMARK    4  A    between atoms: N_13  and  C_14
REMARK                            x       y       z     vdW  Elec       q    Type
REMARK                         _______ _______ _______ _____ _____    ______ ____
ROOT
ATOM      1  C   UNL     1       6.193   4.617  14.300  0.00  0.00    +0.000 C 
ATOM      2  O   UNL     1       7.175   5.325  14.083  0.00  0.00    +0.000 OA
ATOM      3  N   UNL     1       5.562   4.551  15.557  0.00  0.00    +0.000 N 
ATOM      4  C   UNL     1       4.428   3.678  15.889  0.00  0.00    +0.000 C 
ATOM      5  C   UNL     1       4.304   3.334  17.385  0.00  0.00    +0.000 C 
ATOM      6  N   UNL     1       4.353   4.506  18.296  0.00  0.00    +0.000 NA
ATOM      7  C   UNL     1       5.634   5.194  17.992  0.00  0.00    +0.000 C 
ATOM      8  C   UNL     1       5.830   5.626  16.521  0.00  0.00    +0.000 C 
ENDROOT
BRANCH   1  13
ATOM      9  C   UNL     1       5.987   1.968  11.609  0.00  0.00    +0.000 A 
ATOM     10  C   UNL     1       4.855   2.376  10.906  0.00  0.00    +0.000 A 
ATOM     11  C   UNL     1       4.095   3.459  11.360  0.00  0.00    +0.000 A 
ATOM     12  C   UNL     1       4.517   4.189  12.475  0.00  0.00    +0.000 A 
ATOM     13  C   UNL     1       5.670   3.798  13.165  0.00  0.00    +0.000 A 
ATOM     14  C   UNL     1       6.323   2.622  12.787  0.00  0.00    +0.000 A 
BRANCH   9  16
ATOM     15  C   UNL     1       6.177  -0.372  11.269  0.00  0.00    +0.000 C 
ATOM     16  O   UNL     1       6.708   0.939  11.065  0.00  0.00    +0.000 OA
ENDBRANCH   9  16
ENDBRANCH   1  13
BRANCH   6  17
ATOM     17  C   UNL     1       3.138   5.362  18.200  0.00  0.00    +0.000 C 
ATOM     18  C   UNL     1       1.875   4.532  17.849  0.00  0.00    +0.000 C 
ATOM     19  C   UNL     1       1.443   3.601  18.980  0.00  0.00    +0.000 C 
ATOM     20  C   UNL     1       1.166   4.368  20.269  0.00  0.00    +0.000 C 
ATOM     21  C   UNL     1       2.285   5.334  20.645  0.00  0.00    +0.000 C 
ATOM     22  C   UNL     1       2.785   6.173  19.470  0.00  0.00    +0.000 C 
ENDBRANCH   6  17
TORSDOF 3
ENDMDL
MODEL 5
REMARK VINA RESULT:      -7.0      5.044      7.120
REMARK  Name = 
REMARK  4 active torsions:
REMARK  status: ('A' for Active; 'I' for Inactive)
REMARK    1  A    between atoms: C_1  and  O_2
REMARK    2  A    between atoms: O_2  and  C_3
REMARK    3  A    between atoms: C_7  and  C_8
REMARK    4  A    between atoms: N_13  and  C_14
REMARK                            x       y       z     vdW  Elec       q    Type
REMARK                         _______ _______ _______ _____ _____    ______ ____
ROOT
ATOM      1  C   UNL     1       2.603   6.489  19.505  0.00  0.00    +0.000 C 
ATOM      2  O   UNL     1       2.446   5.773  20.493  0.00  0.00    +0.000 OA
ATOM      3  N   UNL     1       1.965   7.735  19.356  0.00  0.00    +0.000 N 
ATOM      4  C   UNL     1       2.068   8.601  18.172  0.00  0.00    +0.000 C 
ATOM      5  C   UNL     1       0.877   9.557  17.977  0.00  0.00    +0.000 C 
ATOM      6  N   UNL     1       0.513  10.348  19.181  0.00  0.00    +0.000 NA
ATOM      7  C   UNL     1       0.250   9.350  20.248  0.00  0.00    +0.000 C 
ATOM      8  C   UNL     1       1.409   8.374  20.554  0.00  0.00    +0.000 C 
ENDROOT
BRANCH   1  13
ATOM      9  C   UNL     1       5.448   6.353  17.017  0.00  0.00    +0.000 A 
ATOM     10  C   UNL     1       5.115   5.219  16.278  0.00  0.00    +0.000 A 
ATOM     11  C   UNL     1       4.016   4.436  16.646  0.00  0.00    +0.000 A 
ATOM     12  C   UNL     1       3.198   4.835  17.706  0.00  0.00    +0.000 A 
ATOM     13  C   UNL     1       3.514   5.990  18.431  0.00  0.00    +0.000 A 
ATOM     14  C   UNL     1       4.702   6.668  18.144  0.00  0.00    +0.000 A 
BRANCH   9  16
ATOM     15  C   UNL     1       7.474   7.475  17.530  0.00  0.00    +0.000 C 
ATOM     16  O   UNL     1       6.501   7.097  16.554  0.00  0.00    +0.000 OA
ENDBRANCH   9  16
ENDBRANCH   1  13
BRANCH   6  17
ATOM     17  C   UNL     1       1.530  11.383  19.518  0.00  0.00    +0.000 C 
ATOM     18  C   UNL     1       1.616  12.484  18.430  0.00  0.00    +0.000 C 
ATOM     19  C   UNL     1       0.368  13.362  18.373  0.00  0.00    +0.000 C 
ATOM     20  C   UNL     1       0.090  14.037  19.711  0.00  0.00    +0.000 C 
ATOM     21  C   UNL     1       0.122  13.069  20.890  0.00  0.00    +0.000 C 
ATOM     22  C   UNL     1       1.318  12.118  20.864  0.00  0.00    +0.000 C 
ENDBRANCH   6  17
TORSDOF 3
ENDMDL
MODEL 6
REMARK VINA RESULT:      -6.9      5.109      8.219
REMARK  Name = 
REMARK  4 active torsions:
REMARK  status: ('A' for Active; 'I' for Inactive)
REMARK    1  A    between atoms: C_1  and  O_2
REMARK    2  A    between atoms: O_2  and  C_3
REMARK    3  A    between atoms: C_7  and  C_8
REMARK    4  A    between atoms: N_13  and  C_14
REMARK                            x       y       z     vdW  Elec       q    Type
REMARK                         _______ _______ _______ _____ _____    ______ ____
ROOT
ATOM      1  C   UNL     1       1.075   8.969  20.508  0.00  0.00    +0.000 C 
ATOM      2  O   UNL     1       0.906   9.007  21.727  0.00  0.00    +0.000 OA
ATOM      3  N   UNL     1       1.740   7.908  19.864  0.00  0.00    +0.000 N 
ATOM      4  C   UNL     1       2.024   7.840  18.423  0.00  0.00    +0.000 C 
ATOM      5  C   UNL     1       3.225   6.951  18.052  0.00  0.00    +0.000 C 
ATOM      6  N   UNL     1       3.197   5.591  18.651  0.00  0.00    +0.000 NA
ATOM      7  C   UNL     1       3.100   5.803  20.117  0.00  0.00    +0.000 C 
ATOM      8  C   UNL     1       1.894   6.645  20.595  0.00  0.00    +0.000 C 
ENDROOT
BRANCH   1  13
ATOM      9  C   UNL     1       0.816  12.379  18.895  0.00  0.00    +0.000 A 
ATOM     10  C   UNL     1      -0.489  12.354  18.405  0.00  0.00    +0.000 A 
ATOM     11  C   UNL     1      -1.260  11.192  18.511  0.00  0.00    +0.000 A 
ATOM     12  C   UNL     1      -0.753  10.077  19.184  0.00  0.00    +0.000 A 
ATOM     13  C   UNL     1       0.546  10.110  19.703  0.00  0.00    +0.000 A 
ATOM     14  C   UNL     1       1.352  11.224  19.448  0.00  0.00    +0.000 A 
BRANCH   9  16
ATOM     15  C   UNL     1       2.812  13.509  18.290  0.00  0.00    +0.000 C 
ATOM     16  O   UNL     1       1.481  13.573  18.805  0.00  0.00    +0.000 OA
ENDBRANCH   9  16
ENDBRANCH   1  13
BRANCH   6  17
ATOM     17  C   UNL     1       2.135   4.726  18.065  0.00  0.00    +0.000 C 
ATOM     18  C   UNL     1       2.706   3.750  17.003  0.00  0.00    +0.000 C 
ATOM     19  C   UNL     1       3.607   2.675  17.608  0.00  0.00    +0.000 C 
ATOM     20  C   UNL     1       2.875   1.854  18.665  0.00  0.00    +0.000 C 
ATOM     21  C   UNL     1       2.146   2.712  19.694  0.00  0.00    +0.000 C 
ATOM     22  C   UNL     1       1.345   3.857  19.073  0.00  0.00    +0.000 C 
ENDBRANCH   6  17
TORSDOF 3
ENDMDL
MODEL 7
REMARK VINA RESULT:      -6.8      5.063      7.993
REMARK  Name = 
REMARK  4 active torsions:
REMARK  status: ('A' for Active; 'I' for Inactive)
REMARK    1  A    between atoms: C_1  and  O_2
REMARK    2  A    between atoms: O_2  and  C_3
REMARK    3  A    between atoms: C_7  and  C_8
REMARK    4  A    between atoms: N_13  and  C_14
REMARK                            x       y       z     vdW  Elec       q    Type
REMARK                         _______ _______ _______ _____ _____    ______ ____
ROOT
ATOM      1  C   UNL     1       1.105   8.815  20.712  0.00  0.00    +0.000 C 
ATOM      2  O   UNL     1       0.938   8.785  21.931  0.00  0.00    +0.000 OA
ATOM      3  N   UNL     1       1.764   7.789  20.007  0.00  0.00    +0.000 N 
ATOM      4  C   UNL     1       2.045   7.802  18.565  0.00  0.00    +0.000 C 
ATOM      5  C   UNL     1       3.241   6.931  18.141  0.00  0.00    +0.000 C 
ATOM      6  N   UNL     1       3.209   5.539  18.662  0.00  0.00    +0.000 NA
ATOM      7  C   UNL     1       3.116   5.668  20.138  0.00  0.00    +0.000 C 
ATOM      8  C   UNL     1       1.915   6.486  20.665  0.00  0.00    +0.000 C 
ENDROOT
BRANCH   1  13
ATOM      9  C   UNL     1      -1.126  10.970  18.549  0.00  0.00    +0.000 A 
ATOM     10  C   UNL     1      -0.339  12.111  18.392  0.00  0.00    +0.000 A 
ATOM     11  C   UNL     1       0.879  12.225  19.069  0.00  0.00    +0.000 A 
ATOM     12  C   UNL     1       1.353  11.160  19.840  0.00  0.00    +0.000 A 
ATOM     13  C   UNL     1       0.579  10.002  19.974  0.00  0.00    +0.000 A 
ATOM     14  C   UNL     1      -0.703   9.973  19.417  0.00  0.00    +0.000 A 
BRANCH   9  16
ATOM     15  C   UNL     1      -2.322   9.887  16.811  0.00  0.00    +0.000 C 
ATOM     16  O   UNL     1      -2.274  10.911  17.805  0.00  0.00    +0.000 OA
ENDBRANCH   9  16
ENDBRANCH   1  13
BRANCH   6  17
ATOM     17  C   UNL     1       2.143   4.713  18.030  0.00  0.00    +0.000 C 
ATOM     18  C   UNL     1       2.713   3.772  16.938  0.00  0.00    +0.000 C 
ATOM     19  C   UNL     1       3.591   2.660  17.510  0.00  0.00    +0.000 C 
ATOM     20  C   UNL     1       2.836   1.809  18.525  0.00  0.00    +0.000 C 
ATOM     21  C   UNL     1       2.105   2.637  19.578  0.00  0.00    +0.000 C 
ATOM     22  C   UNL     1       1.328   3.816  18.994  0.00  0.00    +0.000 C 
ENDBRANCH   6  17
TORSDOF 3
ENDMDL
MODEL 8
REMARK VINA RESULT:      -6.8      5.113      7.349
REMARK  Name = 
REMARK  4 active torsions:
REMARK  status: ('A' for Active; 'I' for Inactive)
REMARK    1  A    between atoms: C_1  and  O_2
REMARK    2  A    between atoms: O_2  and  C_3
REMARK    3  A    between atoms: C_7  and  C_8
REMARK    4  A    between atoms: N_13  and  C_14
REMARK                            x       y       z     vdW  Elec       q    Type
REMARK                         _______ _______ _______ _____ _____    ______ ____
ROOT
ATOM      1  C   UNL     1       2.170   6.419  19.976  0.00  0.00    +0.000 C 
ATOM      2  O   UNL     1       1.804   5.802  20.976  0.00  0.00    +0.000 OA
ATOM      3  N   UNL     1       1.717   7.717  19.672  0.00  0.00    +0.000 N 
ATOM      4  C   UNL     1       2.071   8.474  18.464  0.00  0.00    +0.000 C 
ATOM      5  C   UNL     1       1.043   9.546  18.059  0.00  0.00    +0.000 C 
ATOM      6  N   UNL     1       0.637  10.461  19.157  0.00  0.00    +0.000 NA
ATOM      7  C   UNL     1       0.122   9.583  20.237  0.00  0.00    +0.000 C 
ATOM      8  C   UNL     1       1.103   8.503  20.749  0.00  0.00    +0.000 C 
ENDROOT
BRANCH   1  13
ATOM      9  C   UNL     1       5.426   5.380  18.357  0.00  0.00    +0.000 A 
ATOM     10  C   UNL     1       4.968   4.676  17.244  0.00  0.00    +0.000 A 
ATOM     11  C   UNL     1       3.599   4.452  17.065  0.00  0.00    +0.000 A 
ATOM     12  C   UNL     1       2.679   5.006  17.959  0.00  0.00    +0.000 A 
ATOM     13  C   UNL     1       3.135   5.738  19.061  0.00  0.00    +0.000 A 
ATOM     14  C   UNL     1       4.509   5.815  19.304  0.00  0.00    +0.000 A 
BRANCH   9  16
ATOM     15  C   UNL     1       7.601   4.672  17.731  0.00  0.00    +0.000 C 
ATOM     16  O   UNL     1       6.774   5.607  18.425  0.00  0.00    +0.000 OA
ENDBRANCH   9  16
ENDBRANCH   1  13
BRANCH   6  17
ATOM     17  C   UNL     1       1.727  11.392  19.563  0.00  0.00    +0.000 C 
ATOM     18  C   UNL     1       2.050  12.423  18.451  0.00  0.00    +0.000 C 
ATOM     19  C   UNL     1       0.924  13.431  18.229  0.00  0.00    +0.000 C 
ATOM     20  C   UNL     1       0.591  14.196  19.506  0.00  0.00    +0.000 C 
ATOM     21  C   UNL     1       0.392  13.288  20.716  0.00  0.00    +0.000 C 
ATOM     22  C   UNL     1       1.467  12.210  20.851  0.00  0.00    +0.000 C 
ENDBRANCH   6  17
TORSDOF 3
ENDMDL
MODEL 9
REMARK VINA RESULT:      -6.8      2.931      4.995
REMARK  Name = 
REMARK  4 active torsions:
REMARK  status: ('A' for Active; 'I' for Inactive)
REMARK    1  A    between atoms: C_1  and  O_2
REMARK    2  A    between atoms: O_2  and  C_3
REMARK    3  A    between atoms: C_7  and  C_8
REMARK    4  A    between atoms: N_13  and  C_14
REMARK                            x       y       z     vdW  Elec       q    Type
REMARK                         _______ _______ _______ _____ _____    ______ ____
ROOT
ATOM      1  C   UNL     1       4.624   4.207  18.893  0.00  0.00    +0.000 C 
ATOM      2  O   UNL     1       4.888   3.245  19.614  0.00  0.00    +0.000 OA
ATOM      3  N   UNL     1       3.546   5.077  19.146  0.00  0.00    +0.000 N 
ATOM      4  C   UNL     1       3.148   6.200  18.287  0.00  0.00    +0.000 C 
ATOM      5  C   UNL     1       1.669   6.607  18.414  0.00  0.00    +0.000 C 
ATOM      6  N   UNL     1       1.202   6.816  19.809  0.00  0.00    +0.000 NA
ATOM      7  C   UNL     1       1.488   5.545  20.520  0.00  0.00    +0.000 C 
ATOM      8  C   UNL     1       2.961   5.077  20.492  0.00  0.00    +0.000 C 
ENDROOT
BRANCH   1  13
ATOM      9  C   UNL     1       7.119   5.826  16.558  0.00  0.00    +0.000 A 
ATOM     10  C   UNL     1       6.980   5.038  15.416  0.00  0.00    +0.000 A 
ATOM     11  C   UNL     1       6.144   3.916  15.431  0.00  0.00    +0.000 A 
ATOM     12  C   UNL     1       5.382   3.629  16.566  0.00  0.00    +0.000 A 
ATOM     13  C   UNL     1       5.498   4.436  17.703  0.00  0.00    +0.000 A 
ATOM     14  C   UNL     1       6.453   5.456  17.718  0.00  0.00    +0.000 A 
BRANCH   9  16
ATOM     15  C   UNL     1       7.780   7.907  17.484  0.00  0.00    +0.000 C 
ATOM     16  O   UNL     1       7.908   6.939  16.441  0.00  0.00    +0.000 OA
ENDBRANCH   9  16
ENDBRANCH   1  13
BRANCH   6  17
ATOM     17  C   UNL     1       1.786   8.036  20.434  0.00  0.00    +0.000 C 
ATOM     18  C   UNL     1       1.597   9.289  19.541  0.00  0.00    +0.000 C 
ATOM     19  C   UNL     1       0.138   9.730  19.436  0.00  0.00    +0.000 C 
ATOM     20  C   UNL     1      -0.462  10.027  20.806  0.00  0.00    +0.000 C 
ATOM     21  C   UNL     1      -0.214   8.919  21.824  0.00  0.00    +0.000 C 
ATOM     22  C   UNL     1       1.227   8.409  21.829  0.00  0.00    +0.000 C 
ENDBRANCH   6  17
TORSDOF 3
ENDMDL
