MODEL 1
REMARK VINA RESULT:      -7.9      0.000      0.000
REMARK  Name = 
REMARK  3 active torsions:
REMARK  status: ('A' for Active; 'I' for Inactive)
REMARK    1  A    between atoms: C_1  and  N_2
REMARK    2  A    between atoms: C_8  and  C_9
REMARK    3  A    between atoms: C_18  and  C_19
REMARK                            x       y       z     vdW  Elec       q    Type
REMARK                         _______ _______ _______ _____ _____    ______ ____
ROOT
ATOM      1  C   UNL     1       0.806   5.655  20.804  0.00  0.00    +0.000 C 
ATOM      2  N   UNL     1       2.085   5.506  20.082  0.00  0.00    +0.000 N 
ATOM      3  C   UNL     1       2.693   6.505  19.339  0.00  0.00    +0.000 A 
ATOM      4  N   UNL     1       2.241   7.879  19.264  0.00  0.00    +0.000 N 
ATOM      5  C   UNL     1       2.456   8.640  18.043  0.00  0.00    +0.000 C 
ATOM      6  C   UNL     1       1.123   9.242  17.606  0.00  0.00    +0.000 C 
ATOM      7  N   UNL     1       0.594  10.098  18.679  0.00  0.00    +0.000 NA
ATOM      8  C   UNL     1       0.367   9.332  19.921  0.00  0.00    +0.000 C 
ATOM      9  C   UNL     1       1.689   8.652  20.371  0.00  0.00    +0.000 C 
ATOM     10  N   UNL     1       3.795   6.191  18.596  0.00  0.00    +0.000 NA
ATOM     11  C   UNL     1       4.325   4.946  18.531  0.00  0.00    +0.000 A 
ATOM     12  C   UNL     1       3.756   3.941  19.307  0.00  0.00    +0.000 A 
ATOM     13  C   UNL     1       2.640   4.235  20.086  0.00  0.00    +0.000 A 
ATOM     14  O   UNL     1       2.140   3.336  20.740  0.00  0.00    +0.000 OA
ATOM     15  H   UNL     1      -0.314  10.508  18.355  0.00  0.00    +0.000 HD
ENDROOT
BRANCH   8  16
ATOM     16  C   UNL     1      -0.146  10.275  20.996  0.00  0.00    +0.000 A 
ATOM     17  C   UNL     1      -0.101  11.669  20.790  0.00  0.00    +0.000 A 
ATOM     18  C   UNL     1      -0.573  12.549  21.765  0.00  0.00    +0.000 A 
ATOM     19  C   UNL     1      -1.105  12.053  22.955  0.00  0.00    +0.000 A 
ATOM     20  C   UNL     1      -1.167  10.676  23.173  0.00  0.00    +0.000 A 
ATOM     21  C   UNL     1      -0.691   9.786  22.201  0.00  0.00    +0.000 A 
ATOM     22  F   UNL     1      -0.771   8.451  22.440  0.00  0.00    +0.000 F 
ENDBRANCH   8  16
BRANCH  11  23
ATOM     23  C   UNL     1       5.422   4.677  17.557  0.00  0.00    +0.000 A 
ATOM     24  C   UNL     1       6.770   4.729  17.956  0.00  0.00    +0.000 A 
ATOM     25  C   UNL     1       7.782   4.547  17.006  0.00  0.00    +0.000 A 
ATOM     26  N   UNL     1       7.466   4.348  15.699  0.00  0.00    +0.000 NA
ATOM     27  C   UNL     1       6.175   4.302  15.280  0.00  0.00    +0.000 A 
ATOM     28  C   UNL     1       5.134   4.453  16.197  0.00  0.00    +0.000 A 
ENDBRANCH  11  23
TORSDOF 2
ENDMDL
MODEL 2
REMARK VINA RESULT:      -7.4      0.941      1.267
REMARK  Name = 
REMARK  3 active torsions:
REMARK  status: ('A' for Active; 'I' for Inactive)
REMARK    1  A    between atoms: C_1  and  N_2
REMARK    2  A    between atoms: C_8  and  C_9
REMARK    3  A    between atoms: C_18  and  C_19
REMARK                            x       y       z     vdW  Elec       q    Type
REMARK                         _______ _______ _______ _____ _____    ______ ____
ROOT
ATOM      1  C   UNL     1       0.647   5.375  20.540  0.00  0.00    +0.000 C 
ATOM      2  N   UNL     1       1.981   5.271  19.915  0.00  0.00    +0.000 N 
ATOM      3  C   UNL     1       2.648   6.317  19.299  0.00  0.00    +0.000 A 
ATOM      4  N   UNL     1       2.204   7.695  19.288  0.00  0.00    +0.000 N 
ATOM      5  C   UNL     1       2.519   8.542  18.148  0.00  0.00    +0.000 C 
ATOM      6  C   UNL     1       1.226   9.183  17.649  0.00  0.00    +0.000 C 
ATOM      7  N   UNL     1       0.612   9.962  18.735  0.00  0.00    +0.000 NA
ATOM      8  C   UNL     1       0.284   9.109  19.895  0.00  0.00    +0.000 C 
ATOM      9  C   UNL     1       1.565   8.389  20.400  0.00  0.00    +0.000 C 
ATOM     10  N   UNL     1       3.806   6.051  18.627  0.00  0.00    +0.000 NA
ATOM     11  C   UNL     1       4.340   4.810  18.515  0.00  0.00    +0.000 A 
ATOM     12  C   UNL     1       3.709   3.755  19.167  0.00  0.00    +0.000 A 
ATOM     13  C   UNL     1       2.533   3.999  19.872  0.00  0.00    +0.000 A 
ATOM     14  O   UNL     1       1.980   3.058  20.415  0.00  0.00    +0.000 OA
ATOM     15  H   UNL     1      -0.266  10.401  18.369  0.00  0.00    +0.000 HD
ENDROOT
BRANCH   8  16
ATOM     16  C   UNL     1      -0.315   9.975  20.991  0.00  0.00    +0.000 A 
ATOM     17  C   UNL     1      -0.195   9.585  22.340  0.00  0.00    +0.000 A 
ATOM     18  C   UNL     1      -0.735  10.372  23.359  0.00  0.00    +0.000 A 
ATOM     19  C   UNL     1      -1.394  11.562  23.049  0.00  0.00    +0.000 A 
ATOM     20  C   UNL     1      -1.514  11.968  21.719  0.00  0.00    +0.000 A 
ATOM     21  C   UNL     1      -0.979  11.183  20.690  0.00  0.00    +0.000 A 
ATOM     22  F   UNL     1      -1.107  11.609  19.407  0.00  0.00    +0.000 F 
ENDBRANCH   8  16
BRANCH  11  23
ATOM     23  C   UNL     1       5.512   4.606  17.616  0.00  0.00    +0.000 A 
ATOM     24  C   UNL     1       6.826   4.696  18.112  0.00  0.00    +0.000 A 
ATOM     25  C   UNL     1       7.909   4.574  17.234  0.00  0.00    +0.000 A 
ATOM     26  N   UNL     1       7.694   4.397  15.904  0.00  0.00    +0.000 NA
ATOM     27  C   UNL     1       6.439   4.316  15.392  0.00  0.00    +0.000 A 
ATOM     28  C   UNL     1       5.330   4.406  16.234  0.00  0.00    +0.000 A 
ENDBRANCH  11  23
TORSDOF 2
ENDMDL
MODEL 3
REMARK VINA RESULT:      -7.0      1.014      1.615
REMARK  Name = 
REMARK  3 active torsions:
REMARK  status: ('A' for Active; 'I' for Inactive)
REMARK    1  A    between atoms: C_1  and  N_2
REMARK    2  A    between atoms: C_8  and  C_9
REMARK    3  A    between atoms: C_18  and  C_19
REMARK                            x       y       z     vdW  Elec       q    Type
REMARK                         _______ _______ _______ _____ _____    ______ ____
ROOT
ATOM      1  C   UNL     1       1.054   5.631  20.719  0.00  0.00    +0.000 C 
ATOM      2  N   UNL     1       2.291   5.621  19.912  0.00  0.00    +0.000 N 
ATOM      3  C   UNL     1       2.734   6.678  19.135  0.00  0.00    +0.000 A 
ATOM      4  N   UNL     1       2.130   7.993  19.095  0.00  0.00    +0.000 N 
ATOM      5  C   UNL     1       2.178   8.769  17.865  0.00  0.00    +0.000 C 
ATOM      6  C   UNL     1       0.760   9.220  17.521  0.00  0.00    +0.000 C 
ATOM      7  N   UNL     1       0.214  10.016  18.629  0.00  0.00    +0.000 NA
ATOM      8  C   UNL     1       0.156   9.234  19.881  0.00  0.00    +0.000 C 
ATOM      9  C   UNL     1       1.572   8.705  20.239  0.00  0.00    +0.000 C 
ATOM     10  N   UNL     1       3.812   6.484  18.318  0.00  0.00    +0.000 NA
ATOM     11  C   UNL     1       4.470   5.305  18.213  0.00  0.00    +0.000 A 
ATOM     12  C   UNL     1       4.068   4.246  19.022  0.00  0.00    +0.000 A 
ATOM     13  C   UNL     1       2.981   4.419  19.875  0.00  0.00    +0.000 A 
ATOM     14  O   UNL     1       2.627   3.472  20.558  0.00  0.00    +0.000 OA
ATOM     15  H   UNL     1      -0.753  10.323  18.368  0.00  0.00    +0.000 HD
ENDROOT
BRANCH   8  16
ATOM     16  C   UNL     1      -0.385  10.120  20.991  0.00  0.00    +0.000 A 
ATOM     17  C   UNL     1      -0.406   9.648  22.320  0.00  0.00    +0.000 A 
ATOM     18  C   UNL     1      -0.895  10.451  23.352  0.00  0.00    +0.000 A 
ATOM     19  C   UNL     1      -1.362  11.736  23.078  0.00  0.00    +0.000 A 
ATOM     20  C   UNL     1      -1.340  12.223  21.769  0.00  0.00    +0.000 A 
ATOM     21  C   UNL     1      -0.855  11.423  20.727  0.00  0.00    +0.000 A 
ATOM     22  F   UNL     1      -0.841  11.928  19.466  0.00  0.00    +0.000 F 
ENDBRANCH   8  16
BRANCH  11  23
ATOM     23  C   UNL     1       5.522   5.155  17.167  0.00  0.00    +0.000 A 
ATOM     24  C   UNL     1       5.219   5.342  15.806  0.00  0.00    +0.000 A 
ATOM     25  C   UNL     1       6.206   5.122  14.838  0.00  0.00    +0.000 A 
ATOM     26  N   UNL     1       7.445   4.703  15.208  0.00  0.00    +0.000 NA
ATOM     27  C   UNL     1       7.766   4.503  16.512  0.00  0.00    +0.000 A 
ATOM     28  C   UNL     1       6.821   4.735  17.512  0.00  0.00    +0.000 A 
ENDBRANCH  11  23
TORSDOF 2
ENDMDL
MODEL 4
REMARK VINA RESULT:      -7.0      2.792      4.350
REMARK  Name = 
REMARK  3 active torsions:
REMARK  status: ('A' for Active; 'I' for Inactive)
REMARK    1  A    between atoms: C_1  and  N_2
REMARK    2  A    between atoms: C_8  and  C_9
REMARK    3  A    between atoms: C_18  and  C_19
REMARK                            x       y       z     vdW  Elec       q    Type
REMARK                         _______ _______ _______ _____ _____    ______ ____
ROOT
ATOM      1  C   UNL     1       1.380  10.538  18.732  0.00  0.00    +0.000 C 
ATOM      2  N   UNL     1       1.594   9.099  18.981  0.00  0.00    +0.000 N 
ATOM      3  C   UNL     1       1.158   8.420  20.107  0.00  0.00    +0.000 A 
ATOM      4  N   UNL     1       0.317   8.981  21.144  0.00  0.00    +0.000 N 
ATOM      5  C   UNL     1       0.459   8.515  22.514  0.00  0.00    +0.000 C 
ATOM      6  C   UNL     1       0.648   9.729  23.422  0.00  0.00    +0.000 C 
ATOM      7  N   UNL     1      -0.505  10.630  23.286  0.00  0.00    +0.000 NA
ATOM      8  C   UNL     1      -0.654  11.113  21.898  0.00  0.00    +0.000 C 
ATOM      9  C   UNL     1      -0.791   9.905  20.930  0.00  0.00    +0.000 C 
ATOM     10  N   UNL     1       1.554   7.125  20.286  0.00  0.00    +0.000 NA
ATOM     11  C   UNL     1       2.366   6.464  19.427  0.00  0.00    +0.000 A 
ATOM     12  C   UNL     1       2.774   7.114  18.267  0.00  0.00    +0.000 A 
ATOM     13  C   UNL     1       2.375   8.431  18.050  0.00  0.00    +0.000 A 
ATOM     14  O   UNL     1       2.764   8.993  17.041  0.00  0.00    +0.000 OA
ATOM     15  H   UNL     1      -0.360  11.449  23.923  0.00  0.00    +0.000 HD
ENDROOT
BRANCH   8  16
ATOM     16  C   UNL     1      -1.877  12.010  21.816  0.00  0.00    +0.000 A 
ATOM     17  C   UNL     1      -2.732  12.139  22.930  0.00  0.00    +0.000 A 
ATOM     18  C   UNL     1      -3.857  12.963  22.872  0.00  0.00    +0.000 A 
ATOM     19  C   UNL     1      -4.142  13.678  21.709  0.00  0.00    +0.000 A 
ATOM     20  C   UNL     1      -3.302  13.569  20.599  0.00  0.00    +0.000 A 
ATOM     21  C   UNL     1      -2.173  12.742  20.646  0.00  0.00    +0.000 A 
ATOM     22  F   UNL     1      -1.372  12.663  19.553  0.00  0.00    +0.000 F 
ENDBRANCH   8  16
BRANCH  11  23
ATOM     23  C   UNL     1       2.873   5.114  19.805  0.00  0.00    +0.000 A 
ATOM     24  C   UNL     1       3.972   4.542  19.137  0.00  0.00    +0.000 A 
ATOM     25  C   UNL     1       4.381   3.243  19.461  0.00  0.00    +0.000 A 
ATOM     26  N   UNL     1       3.705   2.526  20.397  0.00  0.00    +0.000 NA
ATOM     27  C   UNL     1       2.635   3.045  21.053  0.00  0.00    +0.000 A 
ATOM     28  C   UNL     1       2.209   4.346  20.780  0.00  0.00    +0.000 A 
ENDBRANCH  11  23
TORSDOF 2
ENDMDL
MODEL 5
REMARK VINA RESULT:      -6.9      3.174      9.086
REMARK  Name = 
REMARK  3 active torsions:
REMARK  status: ('A' for Active; 'I' for Inactive)
REMARK    1  A    between atoms: C_1  and  N_2
REMARK    2  A    between atoms: C_8  and  C_9
REMARK    3  A    between atoms: C_18  and  C_19
REMARK                            x       y       z     vdW  Elec       q    Type
REMARK                         _______ _______ _______ _____ _____    ______ ____
ROOT
ATOM      1  C   UNL     1      -0.715   9.460  17.450  0.00  0.00    +0.000 C 
ATOM      2  N   UNL     1      -0.715  10.422  18.570  0.00  0.00    +0.000 N 
ATOM      3  C   UNL     1       0.021  10.277  19.734  0.00  0.00    +0.000 A 
ATOM      4  N   UNL     1       0.999   9.237  19.977  0.00  0.00    +0.000 N 
ATOM      5  C   UNL     1       1.203   8.746  21.331  0.00  0.00    +0.000 C 
ATOM      6  C   UNL     1       1.084   7.223  21.317  0.00  0.00    +0.000 C 
ATOM      7  N   UNL     1       2.078   6.660  20.393  0.00  0.00    +0.000 NA
ATOM      8  C   UNL     1       1.875   7.149  19.014  0.00  0.00    +0.000 C 
ATOM      9  C   UNL     1       1.930   8.701  18.991  0.00  0.00    +0.000 C 
ATOM     10  N   UNL     1      -0.186  11.160  20.755  0.00  0.00    +0.000 NA
ATOM     11  C   UNL     1      -1.088  12.170  20.701  0.00  0.00    +0.000 A 
ATOM     12  C   UNL     1      -1.802  12.359  19.522  0.00  0.00    +0.000 A 
ATOM     13  C   UNL     1      -1.601  11.482  18.458  0.00  0.00    +0.000 A 
ATOM     14  O   UNL     1      -2.255  11.649  17.443  0.00  0.00    +0.000 OA
ATOM     15  H   UNL     1       1.986   5.616  20.406  0.00  0.00    +0.000 HD
ENDROOT
BRANCH   8  16
ATOM     16  C   UNL     1       2.949   6.558  18.116  0.00  0.00    +0.000 A 
ATOM     17  C   UNL     1       3.893   7.403  17.498  0.00  0.00    +0.000 A 
ATOM     18  C   UNL     1       4.889   6.876  16.675  0.00  0.00    +0.000 A 
ATOM     19  C   UNL     1       4.965   5.499  16.463  0.00  0.00    +0.000 A 
ATOM     20  C   UNL     1       4.045   4.646  17.075  0.00  0.00    +0.000 A 
ATOM     21  C   UNL     1       3.039   5.167  17.899  0.00  0.00    +0.000 A 
ATOM     22  F   UNL     1       2.163   4.311  18.485  0.00  0.00    +0.000 F 
ENDBRANCH   8  16
BRANCH  11  23
ATOM     23  C   UNL     1      -1.355  12.968  21.932  0.00  0.00    +0.000 A 
ATOM     24  C   UNL     1      -2.532  12.771  22.678  0.00  0.00    +0.000 A 
ATOM     25  C   UNL     1      -2.794  13.584  23.787  0.00  0.00    +0.000 A 
ATOM     26  N   UNL     1      -1.931  14.577  24.127  0.00  0.00    +0.000 NA
ATOM     27  C   UNL     1      -0.792  14.799  23.422  0.00  0.00    +0.000 A 
ATOM     28  C   UNL     1      -0.477  13.996  22.325  0.00  0.00    +0.000 A 
ENDBRANCH  11  23
TORSDOF 2
ENDMDL
MODEL 6
REMARK VINA RESULT:      -6.9      1.353      1.580
REMARK  Name = 
REMARK  3 active torsions:
REMARK  status: ('A' for Active; 'I' for Inactive)
REMARK    1  A    between atoms: C_1  and  N_2
REMARK    2  A    between atoms: C_8  and  C_9
REMARK    3  A    between atoms: C_18  and  C_19
REMARK                            x       y       z     vdW  Elec       q    Type
REMARK                         _______ _______ _______ _____ _____    ______ ____
ROOT
ATOM      1  C   UNL     1       0.791   6.993  21.399  0.00  0.00    +0.000 C 
ATOM      2  N   UNL     1       1.843   6.762  20.390  0.00  0.00    +0.000 N 
ATOM      3  C   UNL     1       2.129   7.616  19.337  0.00  0.00    +0.000 A 
ATOM      4  N   UNL     1       1.534   8.921  19.140  0.00  0.00    +0.000 N 
ATOM      5  C   UNL     1       1.342   9.426  17.789  0.00  0.00    +0.000 C 
ATOM      6  C   UNL     1      -0.114   9.861  17.637  0.00  0.00    +0.000 C 
ATOM      7  N   UNL     1      -0.427  10.891  18.637  0.00  0.00    +0.000 NA
ATOM      8  C   UNL     1      -0.240  10.386  20.012  0.00  0.00    +0.000 C 
ATOM      9  C   UNL     1       1.217   9.877  20.194  0.00  0.00    +0.000 C 
ATOM     10  N   UNL     1       3.023   7.210  18.388  0.00  0.00    +0.000 NA
ATOM     11  C   UNL     1       3.643   6.005  18.408  0.00  0.00    +0.000 A 
ATOM     12  C   UNL     1       3.404   5.155  19.483  0.00  0.00    +0.000 A 
ATOM     13  C   UNL     1       2.507   5.547  20.474  0.00  0.00    +0.000 A 
ATOM     14  O   UNL     1       2.292   4.778  21.394  0.00  0.00    +0.000 OA
ATOM     15  H   UNL     1      -1.425  11.182  18.509  0.00  0.00    +0.000 HD
ENDROOT
BRANCH   8  16
ATOM     16  C   UNL     1      -0.547  11.503  20.995  0.00  0.00    +0.000 A 
ATOM     17  C   UNL     1      -0.442  12.848  20.587  0.00  0.00    +0.000 A 
ATOM     18  C   UNL     1      -0.726  13.886  21.477  0.00  0.00    +0.000 A 
ATOM     19  C   UNL     1      -1.126  13.599  22.781  0.00  0.00    +0.000 A 
ATOM     20  C   UNL     1      -1.245  12.273  23.200  0.00  0.00    +0.000 A 
ATOM     21  C   UNL     1      -0.958  11.225  22.316  0.00  0.00    +0.000 A 
ATOM     22  F   UNL     1      -1.089   9.946  22.752  0.00  0.00    +0.000 F 
ENDBRANCH   8  16
BRANCH  11  23
ATOM     23  C   UNL     1       4.467   5.597  17.234  0.00  0.00    +0.000 A 
ATOM     24  C   UNL     1       4.871   6.541  16.272  0.00  0.00    +0.000 A 
ATOM     25  C   UNL     1       5.580   6.119  15.141  0.00  0.00    +0.000 A 
ATOM     26  N   UNL     1       5.854   4.800  14.959  0.00  0.00    +0.000 NA
ATOM     27  C   UNL     1       5.469   3.863  15.863  0.00  0.00    +0.000 A 
ATOM     28  C   UNL     1       4.783   4.242  17.018  0.00  0.00    +0.000 A 
ENDBRANCH  11  23
TORSDOF 2
ENDMDL
MODEL 7
REMARK VINA RESULT:      -6.9      4.459     10.239
REMARK  Name = 
REMARK  3 active torsions:
REMARK  status: ('A' for Active; 'I' for Inactive)
REMARK    1  A    between atoms: C_1  and  N_2
REMARK    2  A    between atoms: C_8  and  C_9
REMARK    3  A    between atoms: C_18  and  C_19
REMARK                            x       y       z     vdW  Elec       q    Type
REMARK                         _______ _______ _______ _____ _____    ______ ____
ROOT
ATOM      1  C   UNL     1      -1.196  11.127  22.710  0.00  0.00    +0.000 C 
ATOM      2  N   UNL     1      -2.278  11.884  22.048  0.00  0.00    +0.000 N 
ATOM      3  C   UNL     1      -2.296  12.222  20.705  0.00  0.00    +0.000 A 
ATOM      4  N   UNL     1      -1.331  11.776  19.721  0.00  0.00    +0.000 N 
ATOM      5  C   UNL     1      -1.005  12.636  18.595  0.00  0.00    +0.000 C 
ATOM      6  C   UNL     1       0.513  12.789  18.526  0.00  0.00    +0.000 C 
ATOM      7  N   UNL     1       1.136  11.465  18.380  0.00  0.00    +0.000 NA
ATOM      8  C   UNL     1       0.814  10.587  19.523  0.00  0.00    +0.000 C 
ATOM      9  C   UNL     1      -0.727  10.449  19.666  0.00  0.00    +0.000 C 
ATOM     10  N   UNL     1      -3.279  13.054  20.251  0.00  0.00    +0.000 NA
ATOM     11  C   UNL     1      -4.238  13.585  21.048  0.00  0.00    +0.000 A 
ATOM     12  C   UNL     1      -4.263  13.219  22.390  0.00  0.00    +0.000 A 
ATOM     13  C   UNL     1      -3.281  12.360  22.878  0.00  0.00    +0.000 A 
ATOM     14  O   UNL     1      -3.305  12.071  24.062  0.00  0.00    +0.000 OA
ATOM     15  H   UNL     1       2.174  11.594  18.325  0.00  0.00    +0.000 HD
ENDROOT
BRANCH   8  16
ATOM     16  C   UNL     1       1.457   9.228  19.298  0.00  0.00    +0.000 A 
ATOM     17  C   UNL     1       2.027   8.918  18.046  0.00  0.00    +0.000 A 
ATOM     18  C   UNL     1       2.626   7.677  17.825  0.00  0.00    +0.000 A 
ATOM     19  C   UNL     1       2.673   6.731  18.848  0.00  0.00    +0.000 A 
ATOM     20  C   UNL     1       2.121   7.024  20.097  0.00  0.00    +0.000 A 
ATOM     21  C   UNL     1       1.515   8.265  20.327  0.00  0.00    +0.000 A 
ATOM     22  F   UNL     1       0.993   8.522  21.554  0.00  0.00    +0.000 F 
ENDBRANCH   8  16
BRANCH  11  23
ATOM     23  C   UNL     1      -5.157  14.615  20.485  0.00  0.00    +0.000 A 
ATOM     24  C   UNL     1      -6.237  14.246  19.661  0.00  0.00    +0.000 A 
ATOM     25  C   UNL     1      -7.040  15.237  19.084  0.00  0.00    +0.000 A 
ATOM     26  N   UNL     1      -6.763  16.551  19.296  0.00  0.00    +0.000 NA
ATOM     27  C   UNL     1      -5.722  16.940  20.077  0.00  0.00    +0.000 A 
ATOM     28  C   UNL     1      -4.912  15.986  20.693  0.00  0.00    +0.000 A 
ENDBRANCH  11  23
TORSDOF 2
ENDMDL
MODEL 8
REMARK VINA RESULT:      -6.9      2.914      8.599
REMARK  Name = 
REMARK  3 active torsions:
REMARK  status: ('A' for Active; 'I' for Inactive)
REMARK    1  A    between atoms: C_1  and  N_2
REMARK    2  A    between atoms: C_8  and  C_9
REMARK    3  A    between atoms: C_18  and  C_19
REMARK                            x       y       z     vdW  Elec       q    Type
REMARK                         _______ _______ _______ _____ _____    ______ ____
ROOT
ATOM      1  C   UNL     1       3.609   3.645  17.739  0.00  0.00    +0.000 C 
ATOM      2  N   UNL     1       3.036   4.890  18.287  0.00  0.00    +0.000 N 
ATOM      3  C   UNL     1       3.559   6.157  18.083  0.00  0.00    +0.000 A 
ATOM      4  N   UNL     1       4.663   6.468  17.198  0.00  0.00    +0.000 N 
ATOM      5  C   UNL     1       5.552   7.573  17.522  0.00  0.00    +0.000 C 
ATOM      6  C   UNL     1       6.991   7.064  17.483  0.00  0.00    +0.000 C 
ATOM      7  N   UNL     1       7.285   6.519  16.150  0.00  0.00    +0.000 NA
ATOM      8  C   UNL     1       6.391   5.393  15.815  0.00  0.00    +0.000 C 
ATOM      9  C   UNL     1       4.909   5.853  15.899  0.00  0.00    +0.000 C 
ATOM     10  N   UNL     1       3.022   7.207  18.771  0.00  0.00    +0.000 NA
ATOM     11  C   UNL     1       2.008   7.080  19.661  0.00  0.00    +0.000 A 
ATOM     12  C   UNL     1       1.439   5.824  19.843  0.00  0.00    +0.000 A 
ATOM     13  C   UNL     1       1.957   4.736  19.144  0.00  0.00    +0.000 A 
ATOM     14  O   UNL     1       1.462   3.639  19.336  0.00  0.00    +0.000 OA
ATOM     15  H   UNL     1       8.278   6.186  16.142  0.00  0.00    +0.000 HD
ENDROOT
BRANCH   8  16
ATOM     16  C   UNL     1       6.722   4.897  14.418  0.00  0.00    +0.000 A 
ATOM     17  C   UNL     1       7.718   5.544  13.659  0.00  0.00    +0.000 A 
ATOM     18  C   UNL     1       8.038   5.098  12.376  0.00  0.00    +0.000 A 
ATOM     19  C   UNL     1       7.378   3.996  11.833  0.00  0.00    +0.000 A 
ATOM     20  C   UNL     1       6.395   3.337  12.574  0.00  0.00    +0.000 A 
ATOM     21  C   UNL     1       6.064   3.780  13.861  0.00  0.00    +0.000 A 
ATOM     22  F   UNL     1       5.108   3.114  14.558  0.00  0.00    +0.000 F 
ENDBRANCH   8  16
BRANCH  11  23
ATOM     23  C   UNL     1       1.615   8.261  20.482  0.00  0.00    +0.000 A 
ATOM     24  C   UNL     1       1.548   8.175  21.885  0.00  0.00    +0.000 A 
ATOM     25  C   UNL     1       1.104   9.275  22.627  0.00  0.00    +0.000 A 
ATOM     26  N   UNL     1       0.713  10.414  21.995  0.00  0.00    +0.000 NA
ATOM     27  C   UNL     1       0.757  10.526  20.643  0.00  0.00    +0.000 A 
ATOM     28  C   UNL     1       1.217   9.463  19.865  0.00  0.00    +0.000 A 
ENDBRANCH  11  23
TORSDOF 2
ENDMDL
MODEL 9
REMARK VINA RESULT:      -6.9      3.719      5.888
REMARK  Name = 
REMARK  3 active torsions:
REMARK  status: ('A' for Active; 'I' for Inactive)
REMARK    1  A    between atoms: C_1  and  N_2
REMARK    2  A    between atoms: C_8  and  C_9
REMARK    3  A    between atoms: C_18  and  C_19
REMARK                            x       y       z     vdW  Elec       q    Type
REMARK                         _______ _______ _______ _____ _____    ______ ____
ROOT
ATOM      1  C   UNL     1      -1.513  11.192  23.171  0.00  0.00    +0.000 C 
ATOM      2  N   UNL     1      -0.576  10.567  22.216  0.00  0.00    +0.000 N 
ATOM      3  C   UNL     1      -0.621  10.735  20.842  0.00  0.00    +0.000 A 
ATOM      4  N   UNL     1      -1.503  11.647  20.143  0.00  0.00    +0.000 N 
ATOM      5  C   UNL     1      -1.975  11.309  18.809  0.00  0.00    +0.000 C 
ATOM      6  C   UNL     1      -3.497  11.425  18.789  0.00  0.00    +0.000 C 
ATOM      7  N   UNL     1      -3.891  12.792  19.161  0.00  0.00    +0.000 NA
ATOM      8  C   UNL     1      -3.422  13.141  20.516  0.00  0.00    +0.000 C 
ATOM      9  C   UNL     1      -1.879  12.980  20.599  0.00  0.00    +0.000 C 
ATOM     10  N   UNL     1       0.208   9.981  20.061  0.00  0.00    +0.000 NA
ATOM     11  C   UNL     1       1.069   9.059  20.556  0.00  0.00    +0.000 A 
ATOM     12  C   UNL     1       1.162   8.911  21.936  0.00  0.00    +0.000 A 
ATOM     13  C   UNL     1       0.339   9.677  22.758  0.00  0.00    +0.000 A 
ATOM     14  O   UNL     1       0.417   9.515  23.964  0.00  0.00    +0.000 OA
ATOM     15  H   UNL     1      -4.937  12.852  19.131  0.00  0.00    +0.000 HD
ENDROOT
BRANCH   8  16
ATOM     16  C   UNL     1      -3.831  14.572  20.828  0.00  0.00    +0.000 A 
ATOM     17  C   UNL     1      -2.851  15.581  20.915  0.00  0.00    +0.000 A 
ATOM     18  C   UNL     1      -3.211  16.900  21.195  0.00  0.00    +0.000 A 
ATOM     19  C   UNL     1      -4.552  17.235  21.383  0.00  0.00    +0.000 A 
ATOM     20  C   UNL     1      -5.537  16.250  21.290  0.00  0.00    +0.000 A 
ATOM     21  C   UNL     1      -5.185  14.923  21.014  0.00  0.00    +0.000 A 
ATOM     22  F   UNL     1      -6.167  13.989  20.924  0.00  0.00    +0.000 F 
ENDBRANCH   8  16
BRANCH  11  23
ATOM     23  C   UNL     1       1.801   8.172  19.607  0.00  0.00    +0.000 A 
ATOM     24  C   UNL     1       2.209   6.881  19.993  0.00  0.00    +0.000 A 
ATOM     25  C   UNL     1       2.960   6.098  19.110  0.00  0.00    +0.000 A 
ATOM     26  N   UNL     1       3.317   6.589  17.894  0.00  0.00    +0.000 NA
ATOM     27  C   UNL     1       2.948   7.833  17.495  0.00  0.00    +0.000 A 
ATOM     28  C   UNL     1       2.178   8.639  18.333  0.00  0.00    +0.000 A 
ENDBRANCH  11  23
TORSDOF 2
ENDMDL
