MODEL 1
REMARK VINA RESULT:      -8.0      0.000      0.000
REMARK  Name = 
REMARK  7 active torsions:
REMARK  status: ('A' for Active; 'I' for Inactive)
REMARK    1  A    between atoms: C_2  and  C_5
REMARK    2  A    between atoms: C_7  and  C_8
REMARK    3  A    between atoms: C_8  and  N_9
REMARK    4  A    between atoms: N_9  and  C_10
REMARK    5  A    between atoms: C_10  and  C_11
REMARK    6  A    between atoms: C_11  and  C_12
REMARK    7  A    between atoms: C_12  and  N_13
REMARK                            x       y       z     vdW  Elec       q    Type
REMARK                         _______ _______ _______ _____ _____    ______ ____
ROOT
ATOM      1  C   UNL     1       2.277   4.362  21.176  0.00  0.00    +0.000 C 
ENDROOT
BRANCH   1   2
ATOM      2  N   UNL     1       2.014   5.795  21.028  0.00  0.00    +0.000 NA
ATOM      3  H   UNL     1       0.976   5.941  21.012  0.00  0.00    +0.000 HD
BRANCH   2   4
ATOM      4  C   UNL     1       2.574   6.290  19.765  0.00  0.00    +0.000 C 
BRANCH   4   7
ATOM      5  C   UNL     1       0.876   9.684  20.207  0.00  0.00    +0.000 A 
ATOM      6  C   UNL     1       1.378   8.395  20.467  0.00  0.00    +0.000 A 
ATOM      7  C   UNL     1       2.027   7.659  19.464  0.00  0.00    +0.000 A 
ATOM      8  C   UNL     1       2.170   8.211  18.186  0.00  0.00    +0.000 A 
ATOM      9  C   UNL     1       1.682   9.490  17.916  0.00  0.00    +0.000 A 
ATOM     10  C   UNL     1       1.040  10.232  18.914  0.00  0.00    +0.000 A 
ATOM     11 CL   UNL     1       0.461  11.846  18.511  0.00  0.00    +0.000 Cl
BRANCH   5  13
ATOM     12  F   UNL     1       0.116   9.754  22.484  0.00  0.00    +0.000 F 
ATOM     13  C   UNL     1       0.179  10.466  21.298  0.00  0.00    +0.000 C 
ATOM     14  F   UNL     1      -1.114  10.762  20.903  0.00  0.00    +0.000 F 
ATOM     15  F   UNL     1       0.864  11.643  21.537  0.00  0.00    +0.000 F 
ENDBRANCH   5  13
ENDBRANCH   4   7
ENDBRANCH   2   4
ENDBRANCH   1   2
BRANCH   1  16
ATOM     16  C   UNL     1       1.465   3.567  20.152  0.00  0.00    +0.000 C 
BRANCH  16  17
ATOM     17  C   UNL     1       2.372   2.619  19.362  0.00  0.00    +0.000 C 
BRANCH  17  18
ATOM     18  N   UNL     1       3.767   2.952  19.555  0.00  0.00    +0.000 N 
ATOM     19  C   UNL     1       4.536   3.490  18.493  0.00  0.00    +0.000 A 
ATOM     20  N   UNL     1       4.033   3.745  17.257  0.00  0.00    +0.000 NA
ATOM     21  C   UNL     1       5.093   4.236  16.588  0.00  0.00    +0.000 A 
ATOM     22  C   UNL     1       5.154   4.668  15.268  0.00  0.00    +0.000 A 
ATOM     23  C   UNL     1       6.398   5.140  14.811  0.00  0.00    +0.000 A 
ATOM     24  N   UNL     1       7.485   5.164  15.649  0.00  0.00    +0.000 NA
ATOM     25  C   UNL     1       7.409   4.735  16.946  0.00  0.00    +0.000 A 
ATOM     26  C   UNL     1       6.180   4.269  17.404  0.00  0.00    +0.000 A 
ATOM     27  N   UNL     1       5.849   3.802  18.613  0.00  0.00    +0.000 N 
ATOM     28  H   UNL     1       4.220   2.797  20.468  0.00  0.00    +0.000 HD
ATOM     29  H   UNL     1       6.459   3.699  19.453  0.00  0.00    +0.000 HD
ENDBRANCH  17  18
ENDBRANCH  16  17
ENDBRANCH   1  16
TORSDOF 7
ENDMDL
MODEL 2
REMARK VINA RESULT:      -7.9      4.299      7.234
REMARK  Name = 
REMARK  7 active torsions:
REMARK  status: ('A' for Active; 'I' for Inactive)
REMARK    1  A    between atoms: C_2  and  C_5
REMARK    2  A    between atoms: C_7  and  C_8
REMARK    3  A    between atoms: C_8  and  N_9
REMARK    4  A    between atoms: N_9  and  C_10
REMARK    5  A    between atoms: C_10  and  C_11
REMARK    6  A    between atoms: C_11  and  C_12
REMARK    7  A    between atoms: C_12  and  N_13
REMARK                            x       y       z     vdW  Elec       q    Type
REMARK                         _______ _______ _______ _____ _____    ______ ____
ROOT
ATOM      1  C   UNL     1       1.585   2.550  19.919  0.00  0.00    +0.000 C 
ENDROOT
BRANCH   1   2
ATOM      2  N   UNL     1       1.948   2.766  18.516  0.00  0.00    +0.000 NA
ATOM      3  H   UNL     1       1.226   2.305  17.912  0.00  0.00    +0.000 HD
BRANCH   2   4
ATOM      4  C   UNL     1       3.254   2.162  18.227  0.00  0.00    +0.000 C 
BRANCH   4   7
ATOM      5  C   UNL     1       5.432   4.758  16.461  0.00  0.00    +0.000 A 
ATOM      6  C   UNL     1       4.493   3.737  16.696  0.00  0.00    +0.000 A 
ATOM      7  C   UNL     1       4.275   3.241  17.991  0.00  0.00    +0.000 A 
ATOM      8  C   UNL     1       5.010   3.765  19.062  0.00  0.00    +0.000 A 
ATOM      9  C   UNL     1       5.940   4.782  18.844  0.00  0.00    +0.000 A 
ATOM     10  C   UNL     1       6.155   5.285  17.556  0.00  0.00    +0.000 A 
ATOM     11 CL   UNL     1       7.333   6.579  17.352  0.00  0.00    +0.000 Cl
BRANCH   5  13
ATOM     12  F   UNL     1       5.023   4.498  14.109  0.00  0.00    +0.000 F 
ATOM     13  C   UNL     1       5.655   5.283  15.060  0.00  0.00    +0.000 C 
ATOM     14  F   UNL     1       7.009   5.295  14.779  0.00  0.00    +0.000 F 
ATOM     15  F   UNL     1       5.156   6.568  14.959  0.00  0.00    +0.000 F 
ENDBRANCH   5  13
ENDBRANCH   4   7
ENDBRANCH   2   4
ENDBRANCH   1   2
BRANCH   1  16
ATOM     16  C   UNL     1       0.978   3.825  20.508  0.00  0.00    +0.000 C 
BRANCH  16  17
ATOM     17  C   UNL     1       2.070   4.858  20.801  0.00  0.00    +0.000 C 
BRANCH  17  18
ATOM     18  N   UNL     1       2.290   5.720  19.659  0.00  0.00    +0.000 N 
ATOM     19  C   UNL     1       1.920   7.087  19.702  0.00  0.00    +0.000 A 
ATOM     20  N   UNL     1       1.364   7.680  20.791  0.00  0.00    +0.000 NA
ATOM     21  C   UNL     1       1.182   8.951  20.391  0.00  0.00    +0.000 A 
ATOM     22  C   UNL     1       0.643  10.012  21.110  0.00  0.00    +0.000 A 
ATOM     23  C   UNL     1       0.563  11.252  20.450  0.00  0.00    +0.000 A 
ATOM     24  N   UNL     1       1.005  11.382  19.156  0.00  0.00    +0.000 NA
ATOM     25  C   UNL     1       1.533  10.328  18.461  0.00  0.00    +0.000 A 
ATOM     26  C   UNL     1       1.616   9.101  19.111  0.00  0.00    +0.000 A 
ATOM     27  N   UNL     1       2.087   7.932  18.658  0.00  0.00    +0.000 N 
ATOM     28  H   UNL     1       2.717   5.347  18.797  0.00  0.00    +0.000 HD
ATOM     29  H   UNL     1       2.488   7.721  17.717  0.00  0.00    +0.000 HD
ENDBRANCH  17  18
ENDBRANCH  16  17
ENDBRANCH   1  16
TORSDOF 7
ENDMDL
MODEL 3
REMARK VINA RESULT:      -7.8      1.796      4.164
REMARK  Name = 
REMARK  7 active torsions:
REMARK  status: ('A' for Active; 'I' for Inactive)
REMARK    1  A    between atoms: C_2  and  C_5
REMARK    2  A    between atoms: C_7  and  C_8
REMARK    3  A    between atoms: C_8  and  N_9
REMARK    4  A    between atoms: N_9  and  C_10
REMARK    5  A    between atoms: C_10  and  C_11
REMARK    6  A    between atoms: C_11  and  C_12
REMARK    7  A    between atoms: C_12  and  N_13
REMARK                            x       y       z     vdW  Elec       q    Type
REMARK                         _______ _______ _______ _____ _____    ______ ____
ROOT
ATOM      1  C   UNL     1       5.923   6.831  16.860  0.00  0.00    +0.000 C 
ENDROOT
BRANCH   1   2
ATOM      2  N   UNL     1       4.911   7.199  17.852  0.00  0.00    +0.000 NA
ATOM      3  H   UNL     1       4.918   6.480  18.616  0.00  0.00    +0.000 HD
BRANCH   2   4
ATOM      4  C   UNL     1       3.577   7.217  17.240  0.00  0.00    +0.000 C 
BRANCH   4   7
ATOM      5  C   UNL     1       1.365   8.550  20.056  0.00  0.00    +0.000 A 
ATOM      6  C   UNL     1       2.207   7.716  19.296  0.00  0.00    +0.000 A 
ATOM      7  C   UNL     1       2.663   8.113  18.030  0.00  0.00    +0.000 A 
ATOM      8  C   UNL     1       2.269   9.353  17.513  0.00  0.00    +0.000 A 
ATOM      9  C   UNL     1       1.440  10.192  18.258  0.00  0.00    +0.000 A 
ATOM     10  C   UNL     1       0.988   9.804  19.524  0.00  0.00    +0.000 A 
ATOM     11 CL   UNL     1      -0.044  10.917  20.419  0.00  0.00    +0.000 Cl
BRANCH   5  13
ATOM     12  F   UNL     1      -0.500   8.140  21.513  0.00  0.00    +0.000 F 
ATOM     13  C   UNL     1       0.882   8.108  21.419  0.00  0.00    +0.000 C 
ATOM     14  F   UNL     1       1.399   8.948  22.389  0.00  0.00    +0.000 F 
ATOM     15  F   UNL     1       1.301   6.814  21.665  0.00  0.00    +0.000 F 
ENDBRANCH   5  13
ENDBRANCH   4   7
ENDBRANCH   2   4
ENDBRANCH   1   2
BRANCH   1  16
ATOM     16  C   UNL     1       7.231   6.450  17.558  0.00  0.00    +0.000 C 
BRANCH  16  17
ATOM     17  C   UNL     1       6.957   5.551  18.766  0.00  0.00    +0.000 C 
BRANCH  17  18
ATOM     18  N   UNL     1       6.406   4.277  18.353  0.00  0.00    +0.000 N 
ATOM     19  C   UNL     1       5.094   3.899  18.731  0.00  0.00    +0.000 A 
ATOM     20  N   UNL     1       4.271   4.686  19.472  0.00  0.00    +0.000 NA
ATOM     21  C   UNL     1       3.155   3.943  19.588  0.00  0.00    +0.000 A 
ATOM     22  C   UNL     1       1.973   4.259  20.250  0.00  0.00    +0.000 A 
ATOM     23  C   UNL     1       0.950   3.294  20.219  0.00  0.00    +0.000 A 
ATOM     24  N   UNL     1       1.134   2.105  19.558  0.00  0.00    +0.000 NA
ATOM     25  C   UNL     1       2.303   1.808  18.911  0.00  0.00    +0.000 A 
ATOM     26  C   UNL     1       3.317   2.760  18.936  0.00  0.00    +0.000 A 
ATOM     27  N   UNL     1       4.537   2.713  18.388  0.00  0.00    +0.000 N 
ATOM     28  H   UNL     1       6.965   3.627  17.779  0.00  0.00    +0.000 HD
ATOM     29  H   UNL     1       4.961   1.942  17.827  0.00  0.00    +0.000 HD
ENDBRANCH  17  18
ENDBRANCH  16  17
ENDBRANCH   1  16
TORSDOF 7
ENDMDL
MODEL 4
REMARK VINA RESULT:      -7.8      1.415      1.789
REMARK  Name = 
REMARK  7 active torsions:
REMARK  status: ('A' for Active; 'I' for Inactive)
REMARK    1  A    between atoms: C_2  and  C_5
REMARK    2  A    between atoms: C_7  and  C_8
REMARK    3  A    between atoms: C_8  and  N_9
REMARK    4  A    between atoms: N_9  and  C_10
REMARK    5  A    between atoms: C_10  and  C_11
REMARK    6  A    between atoms: C_11  and  C_12
REMARK    7  A    between atoms: C_12  and  N_13
REMARK                            x       y       z     vdW  Elec       q    Type
REMARK                         _______ _______ _______ _____ _____    ______ ____
ROOT
ATOM      1  C   UNL     1       1.255   4.031  18.704  0.00  0.00    +0.000 C 
ENDROOT
BRANCH   1   2
ATOM      2  N   UNL     1       1.298   4.304  20.143  0.00  0.00    +0.000 NA
ATOM      3  H   UNL     1       0.401   4.771  20.419  0.00  0.00    +0.000 HD
BRANCH   2   4
ATOM      4  C   UNL     1       2.411   5.205  20.460  0.00  0.00    +0.000 C 
BRANCH   4   7
ATOM      5  C   UNL     1       1.081   8.786  20.366  0.00  0.00    +0.000 A 
ATOM      6  C   UNL     1       1.369   7.476  20.794  0.00  0.00    +0.000 A 
ATOM      7  C   UNL     1       2.097   6.595  19.979  0.00  0.00    +0.000 A 
ATOM      8  C   UNL     1       2.537   7.023  18.721  0.00  0.00    +0.000 A 
ATOM      9  C   UNL     1       2.264   8.321  18.287  0.00  0.00    +0.000 A 
ATOM     10  C   UNL     1       1.544   9.206  19.098  0.00  0.00    +0.000 A 
ATOM     11 CL   UNL     1       1.247  10.835  18.497  0.00  0.00    +0.000 Cl
BRANCH   5  13
ATOM     12  F   UNL     1       1.020  10.860  21.575  0.00  0.00    +0.000 F 
ATOM     13  C   UNL     1       0.295   9.724  21.255  0.00  0.00    +0.000 C 
ATOM     14  F   UNL     1      -0.036   9.078  22.433  0.00  0.00    +0.000 F 
ATOM     15  F   UNL     1      -0.862  10.118  20.609  0.00  0.00    +0.000 F 
ENDBRANCH   5  13
ENDBRANCH   4   7
ENDBRANCH   2   4
ENDBRANCH   1   2
BRANCH   1  16
ATOM     16  C   UNL     1       1.408   2.530  18.448  0.00  0.00    +0.000 C 
BRANCH  16  17
ATOM     17  C   UNL     1       2.729   2.236  17.732  0.00  0.00    +0.000 C 
BRANCH  17  18
ATOM     18  N   UNL     1       3.858   2.477  18.606  0.00  0.00    +0.000 N 
ATOM     19  C   UNL     1       4.718   3.583  18.390  0.00  0.00    +0.000 A 
ATOM     20  N   UNL     1       4.542   4.485  17.389  0.00  0.00    +0.000 NA
ATOM     21  C   UNL     1       5.567   5.340  17.561  0.00  0.00    +0.000 A 
ATOM     22  C   UNL     1       5.882   6.470  16.813  0.00  0.00    +0.000 A 
ATOM     23  C   UNL     1       7.020   7.196  17.208  0.00  0.00    +0.000 A 
ATOM     24  N   UNL     1       7.767   6.787  18.285  0.00  0.00    +0.000 NA
ATOM     25  C   UNL     1       7.445   5.673  19.011  0.00  0.00    +0.000 A 
ATOM     26  C   UNL     1       6.319   4.953  18.626  0.00  0.00    +0.000 A 
ATOM     27  N   UNL     1       5.797   3.844  19.164  0.00  0.00    +0.000 N 
ATOM     28  H   UNL     1       4.054   1.842  19.395  0.00  0.00    +0.000 HD
ATOM     29  H   UNL     1       6.144   3.304  19.987  0.00  0.00    +0.000 HD
ENDBRANCH  17  18
ENDBRANCH  16  17
ENDBRANCH   1  16
TORSDOF 7
ENDMDL
MODEL 5
REMARK VINA RESULT:      -7.8      6.091      7.740
REMARK  Name = 
REMARK  7 active torsions:
REMARK  status: ('A' for Active; 'I' for Inactive)
REMARK    1  A    between atoms: C_2  and  C_5
REMARK    2  A    between atoms: C_7  and  C_8
REMARK    3  A    between atoms: C_8  and  N_9
REMARK    4  A    between atoms: N_9  and  C_10
REMARK    5  A    between atoms: C_10  and  C_11
REMARK    6  A    between atoms: C_11  and  C_12
REMARK    7  A    between atoms: C_12  and  N_13
REMARK                            x       y       z     vdW  Elec       q    Type
REMARK                         _______ _______ _______ _____ _____    ______ ____
ROOT
ATOM      1  C   UNL     1       7.121   5.953  16.378  0.00  0.00    +0.000 C 
ENDROOT
BRANCH   1   2
ATOM      2  N   UNL     1       5.820   5.280  16.399  0.00  0.00    +0.000 NA
ATOM      3  H   UNL     1       5.672   4.815  15.471  0.00  0.00    +0.000 HD
BRANCH   2   4
ATOM      4  C   UNL     1       4.743   6.254  16.611  0.00  0.00    +0.000 C 
BRANCH   4   7
ATOM      5  C   UNL     1       2.424   3.852  18.471  0.00  0.00    +0.000 A 
ATOM      6  C   UNL     1       3.335   4.378  17.535  0.00  0.00    +0.000 A 
ATOM      7  C   UNL     1       3.755   5.714  17.609  0.00  0.00    +0.000 A 
ATOM      8  C   UNL     1       3.255   6.539  18.624  0.00  0.00    +0.000 A 
ATOM      9  C   UNL     1       2.356   6.030  19.562  0.00  0.00    +0.000 A 
ATOM     10  C   UNL     1       1.939   4.696  19.497  0.00  0.00    +0.000 A 
ATOM     11 CL   UNL     1       0.815   4.112  20.721  0.00  0.00    +0.000 Cl
BRANCH   5  13
ATOM     12  F   UNL     1       0.601   2.293  18.365  0.00  0.00    +0.000 F 
ATOM     13  C   UNL     1       1.981   2.409  18.378  0.00  0.00    +0.000 C 
ATOM     14  F   UNL     1       2.463   1.705  19.467  0.00  0.00    +0.000 F 
ATOM     15  F   UNL     1       2.472   1.845  17.215  0.00  0.00    +0.000 F 
ENDBRANCH   5  13
ENDBRANCH   4   7
ENDBRANCH   2   4
ENDBRANCH   1   2
BRANCH   1  16
ATOM     16  C   UNL     1       7.432   6.542  17.755  0.00  0.00    +0.000 C 
BRANCH  16  17
ATOM     17  C   UNL     1       7.846   8.011  17.634  0.00  0.00    +0.000 C 
BRANCH  17  18
ATOM     18  N   UNL     1       8.565   8.448  18.812  0.00  0.00    +0.000 N 
ATOM     19  C   UNL     1       9.019   9.785  18.928  0.00  0.00    +0.000 A 
ATOM     20  N   UNL     1       8.805  10.735  17.980  0.00  0.00    +0.000 NA
ATOM     21  C   UNL     1       9.397  11.827  18.498  0.00  0.00    +0.000 A 
ATOM     22  C   UNL     1       9.484  13.102  17.949  0.00  0.00    +0.000 A 
ATOM     23  C   UNL     1      10.167  14.073  18.705  0.00  0.00    +0.000 A 
ATOM     24  N   UNL     1      10.710  13.751  19.924  0.00  0.00    +0.000 NA
ATOM     25  C   UNL     1      10.616  12.492  20.450  0.00  0.00    +0.000 A 
ATOM     26  C   UNL     1       9.940  11.529  19.708  0.00  0.00    +0.000 A 
ATOM     27  N   UNL     1       9.712  10.242  19.998  0.00  0.00    +0.000 N 
ATOM     28  H   UNL     1       8.760   7.789  19.580  0.00  0.00    +0.000 HD
ATOM     29  H   UNL     1      10.002   9.713  20.849  0.00  0.00    +0.000 HD
ENDBRANCH  17  18
ENDBRANCH  16  17
ENDBRANCH   1  16
TORSDOF 7
ENDMDL
MODEL 6
REMARK VINA RESULT:      -7.8      5.433      7.190
REMARK  Name = 
REMARK  7 active torsions:
REMARK  status: ('A' for Active; 'I' for Inactive)
REMARK    1  A    between atoms: C_2  and  C_5
REMARK    2  A    between atoms: C_7  and  C_8
REMARK    3  A    between atoms: C_8  and  N_9
REMARK    4  A    between atoms: N_9  and  C_10
REMARK    5  A    between atoms: C_10  and  C_11
REMARK    6  A    between atoms: C_11  and  C_12
REMARK    7  A    between atoms: C_12  and  N_13
REMARK                            x       y       z     vdW  Elec       q    Type
REMARK                         _______ _______ _______ _____ _____    ______ ____
ROOT
ATOM      1  C   UNL     1       7.070   5.214  16.406  0.00  0.00    +0.000 C 
ENDROOT
BRANCH   1   2
ATOM      2  N   UNL     1       6.285   4.005  16.667  0.00  0.00    +0.000 NA
ATOM      3  H   UNL     1       6.729   3.205  16.155  0.00  0.00    +0.000 HD
BRANCH   2   4
ATOM      4  C   UNL     1       4.912   4.170  16.176  0.00  0.00    +0.000 C 
BRANCH   4   7
ATOM      5  C   UNL     1       2.493   4.006  19.130  0.00  0.00    +0.000 A 
ATOM      6  C   UNL     1       3.326   3.629  18.059  0.00  0.00    +0.000 A 
ATOM      7  C   UNL     1       4.012   4.593  17.305  0.00  0.00    +0.000 A 
ATOM      8  C   UNL     1       3.860   5.949  17.618  0.00  0.00    +0.000 A 
ATOM      9  C   UNL     1       3.042   6.336  18.680  0.00  0.00    +0.000 A 
ATOM     10  C   UNL     1       2.362   5.379  19.440  0.00  0.00    +0.000 A 
ATOM     11 CL   UNL     1       1.358   5.934  20.777  0.00  0.00    +0.000 Cl
BRANCH   5  13
ATOM     12  F   UNL     1       2.158   2.951  21.262  0.00  0.00    +0.000 F 
ATOM     13  C   UNL     1       1.761   2.955  19.934  0.00  0.00    +0.000 C 
ATOM     14  F   UNL     1       2.017   1.703  19.404  0.00  0.00    +0.000 F 
ATOM     15  F   UNL     1       0.401   3.200  19.892  0.00  0.00    +0.000 F 
ENDBRANCH   5  13
ENDBRANCH   4   7
ENDBRANCH   2   4
ENDBRANCH   1   2
BRANCH   1  16
ATOM     16  C   UNL     1       7.544   5.829  17.724  0.00  0.00    +0.000 C 
BRANCH  16  17
ATOM     17  C   UNL     1       7.697   7.347  17.588  0.00  0.00    +0.000 C 
BRANCH  17  18
ATOM     18  N   UNL     1       8.403   7.903  18.723  0.00  0.00    +0.000 N 
ATOM     19  C   UNL     1       8.750   9.276  18.758  0.00  0.00    +0.000 A 
ATOM     20  N   UNL     1       8.439  10.153  17.767  0.00  0.00    +0.000 NA
ATOM     21  C   UNL     1       8.952  11.315  18.212  0.00  0.00    +0.000 A 
ATOM     22  C   UNL     1       8.925  12.562  17.596  0.00  0.00    +0.000 A 
ATOM     23  C   UNL     1       9.542  13.623  18.282  0.00  0.00    +0.000 A 
ATOM     24  N   UNL     1      10.135  13.412  19.502  0.00  0.00    +0.000 NA
ATOM     25  C   UNL     1      10.154  12.180  20.096  0.00  0.00    +0.000 A 
ATOM     26  C   UNL     1       9.542  11.127  19.423  0.00  0.00    +0.000 A 
ATOM     27  N   UNL     1       9.425   9.844  19.785  0.00  0.00    +0.000 N 
ATOM     28  H   UNL     1       8.666   7.303  19.520  0.00  0.00    +0.000 HD
ATOM     29  H   UNL     1       9.774   9.386  20.655  0.00  0.00    +0.000 HD
ENDBRANCH  17  18
ENDBRANCH  16  17
ENDBRANCH   1  16
TORSDOF 7
ENDMDL
MODEL 7
REMARK VINA RESULT:      -7.7      0.911      1.404
REMARK  Name = 
REMARK  7 active torsions:
REMARK  status: ('A' for Active; 'I' for Inactive)
REMARK    1  A    between atoms: C_2  and  C_5
REMARK    2  A    between atoms: C_7  and  C_8
REMARK    3  A    between atoms: C_8  and  N_9
REMARK    4  A    between atoms: N_9  and  C_10
REMARK    5  A    between atoms: C_10  and  C_11
REMARK    6  A    between atoms: C_11  and  C_12
REMARK    7  A    between atoms: C_12  and  N_13
REMARK                            x       y       z     vdW  Elec       q    Type
REMARK                         _______ _______ _______ _____ _____    ______ ____
ROOT
ATOM      1  C   UNL     1       2.080   4.392  21.058  0.00  0.00    +0.000 C 
ENDROOT
BRANCH   1   2
ATOM      2  N   UNL     1       1.880   5.132  19.809  0.00  0.00    +0.000 NA
ATOM      3  H   UNL     1       2.019   4.472  19.007  0.00  0.00    +0.000 HD
BRANCH   2   4
ATOM      4  C   UNL     1       2.859   6.219  19.696  0.00  0.00    +0.000 C 
BRANCH   4   7
ATOM      5  C   UNL     1       0.910   9.449  20.305  0.00  0.00    +0.000 A 
ATOM      6  C   UNL     1       1.562   8.219  20.516  0.00  0.00    +0.000 A 
ATOM      7  C   UNL     1       2.150   7.523  19.449  0.00  0.00    +0.000 A 
ATOM      8  C   UNL     1       2.081   8.055  18.156  0.00  0.00    +0.000 A 
ATOM      9  C   UNL     1       1.443   9.276  17.934  0.00  0.00    +0.000 A 
ATOM     10  C   UNL     1       0.861   9.978  18.995  0.00  0.00    +0.000 A 
ATOM     11 CL   UNL     1       0.084  11.521  18.648  0.00  0.00    +0.000 Cl
BRANCH   5  13
ATOM     12  F   UNL     1       0.475   9.525  22.666  0.00  0.00    +0.000 F 
ATOM     13  C   UNL     1       0.281  10.188  21.465  0.00  0.00    +0.000 C 
ATOM     14  F   UNL     1      -1.081  10.310  21.254  0.00  0.00    +0.000 F 
ATOM     15  F   UNL     1       0.841  11.448  21.573  0.00  0.00    +0.000 F 
ENDBRANCH   5  13
ENDBRANCH   4   7
ENDBRANCH   2   4
ENDBRANCH   1   2
BRANCH   1  16
ATOM     16  C   UNL     1       2.104   2.888  20.780  0.00  0.00    +0.000 C 
BRANCH  16  17
ATOM     17  C   UNL     1       3.528   2.418  20.474  0.00  0.00    +0.000 C 
BRANCH  17  18
ATOM     18  N   UNL     1       3.794   2.454  19.051  0.00  0.00    +0.000 N 
ATOM     19  C   UNL     1       4.710   3.390  18.510  0.00  0.00    +0.000 A 
ATOM     20  N   UNL     1       5.402   4.284  19.263  0.00  0.00    +0.000 NA
ATOM     21  C   UNL     1       6.132   4.954  18.353  0.00  0.00    +0.000 A 
ATOM     22  C   UNL     1       7.033   5.993  18.566  0.00  0.00    +0.000 A 
ATOM     23  C   UNL     1       7.670   6.524  17.430  0.00  0.00    +0.000 A 
ATOM     24  N   UNL     1       7.398   6.023  16.181  0.00  0.00    +0.000 NA
ATOM     25  C   UNL     1       6.509   5.001  15.988  0.00  0.00    +0.000 A 
ATOM     26  C   UNL     1       5.879   4.470  17.108  0.00  0.00    +0.000 A 
ATOM     27  N   UNL     1       4.982   3.480  17.186  0.00  0.00    +0.000 N 
ATOM     28  H   UNL     1       3.315   1.800  18.413  0.00  0.00    +0.000 HD
ATOM     29  H   UNL     1       4.583   2.910  16.408  0.00  0.00    +0.000 HD
ENDBRANCH  17  18
ENDBRANCH  16  17
ENDBRANCH   1  16
TORSDOF 7
ENDMDL
MODEL 8
REMARK VINA RESULT:      -7.7      1.441      1.948
REMARK  Name = 
REMARK  7 active torsions:
REMARK  status: ('A' for Active; 'I' for Inactive)
REMARK    1  A    between atoms: C_2  and  C_5
REMARK    2  A    between atoms: C_7  and  C_8
REMARK    3  A    between atoms: C_8  and  N_9
REMARK    4  A    between atoms: N_9  and  C_10
REMARK    5  A    between atoms: C_10  and  C_11
REMARK    6  A    between atoms: C_11  and  C_12
REMARK    7  A    between atoms: C_12  and  N_13
REMARK                            x       y       z     vdW  Elec       q    Type
REMARK                         _______ _______ _______ _____ _____    ______ ____
ROOT
ATOM      1  C   UNL     1       1.359   4.869  20.707  0.00  0.00    +0.000 C 
ENDROOT
BRANCH   1   2
ATOM      2  N   UNL     1       2.449   5.845  20.784  0.00  0.00    +0.000 NA
ATOM      3  H   UNL     1       2.416   6.305  21.726  0.00  0.00    +0.000 HD
BRANCH   2   4
ATOM      4  C   UNL     1       2.285   6.877  19.754  0.00  0.00    +0.000 C 
BRANCH   4   7
ATOM      5  C   UNL     1       0.199  10.068  20.007  0.00  0.00    +0.000 A 
ATOM      6  C   UNL     1       0.894   8.961  19.483  0.00  0.00    +0.000 A 
ATOM      7  C   UNL     1       1.563   8.064  20.329  0.00  0.00    +0.000 A 
ATOM      8  C   UNL     1       1.546   8.278  21.713  0.00  0.00    +0.000 A 
ATOM      9  C   UNL     1       0.856   9.368  22.246  0.00  0.00    +0.000 A 
ATOM     10  C   UNL     1       0.181  10.261  21.407  0.00  0.00    +0.000 A 
ATOM     11 CL   UNL     1      -0.683  11.607  22.145  0.00  0.00    +0.000 Cl
BRANCH   5  13
ATOM     12  F   UNL     1      -1.828  11.243  19.479  0.00  0.00    +0.000 F 
ATOM     13  C   UNL     1      -0.519  11.026  19.082  0.00  0.00    +0.000 C 
ATOM     14  F   UNL     1      -0.537  10.507  17.800  0.00  0.00    +0.000 F 
ATOM     15  F   UNL     1       0.136  12.244  19.073  0.00  0.00    +0.000 F 
ENDBRANCH   5  13
ENDBRANCH   4   7
ENDBRANCH   2   4
ENDBRANCH   1   2
BRANCH   1  16
ATOM     16  C   UNL     1       1.358   4.187  19.337  0.00  0.00    +0.000 C 
BRANCH  16  17
ATOM     17  C   UNL     1       2.251   2.943  19.352  0.00  0.00    +0.000 C 
BRANCH  17  18
ATOM     18  N   UNL     1       3.634   3.298  19.590  0.00  0.00    +0.000 N 
ATOM     19  C   UNL     1       4.480   3.672  18.516  0.00  0.00    +0.000 A 
ATOM     20  N   UNL     1       4.065   3.742  17.224  0.00  0.00    +0.000 NA
ATOM     21  C   UNL     1       5.173   4.127  16.565  0.00  0.00    +0.000 A 
ATOM     22  C   UNL     1       5.328   4.360  15.202  0.00  0.00    +0.000 A 
ATOM     23  C   UNL     1       6.606   4.757  14.767  0.00  0.00    +0.000 A 
ATOM     24  N   UNL     1       7.634   4.901  15.666  0.00  0.00    +0.000 NA
ATOM     25  C   UNL     1       7.465   4.669  17.004  0.00  0.00    +0.000 A 
ATOM     26  C   UNL     1       6.203   4.279  17.439  0.00  0.00    +0.000 A 
ATOM     27  N   UNL     1       5.785   3.995  18.679  0.00  0.00    +0.000 N 
ATOM     28  H   UNL     1       4.022   3.279  20.545  0.00  0.00    +0.000 HD
ATOM     29  H   UNL     1       6.336   4.017  19.565  0.00  0.00    +0.000 HD
ENDBRANCH  17  18
ENDBRANCH  16  17
ENDBRANCH   1  16
TORSDOF 7
ENDMDL
MODEL 9
REMARK VINA RESULT:      -7.7      0.662      1.033
REMARK  Name = 
REMARK  7 active torsions:
REMARK  status: ('A' for Active; 'I' for Inactive)
REMARK    1  A    between atoms: C_2  and  C_5
REMARK    2  A    between atoms: C_7  and  C_8
REMARK    3  A    between atoms: C_8  and  N_9
REMARK    4  A    between atoms: N_9  and  C_10
REMARK    5  A    between atoms: C_10  and  C_11
REMARK    6  A    between atoms: C_11  and  C_12
REMARK    7  A    between atoms: C_12  and  N_13
REMARK                            x       y       z     vdW  Elec       q    Type
REMARK                         _______ _______ _______ _____ _____    ______ ____
ROOT
ATOM      1  C   UNL     1       1.182   3.444  20.681  0.00  0.00    +0.000 C 
ENDROOT
BRANCH   1   2
ATOM      2  N   UNL     1       1.280   4.885  20.923  0.00  0.00    +0.000 NA
ATOM      3  H   UNL     1       0.397   5.339  20.585  0.00  0.00    +0.000 HD
BRANCH   2   4
ATOM      4  C   UNL     1       2.411   5.453  20.180  0.00  0.00    +0.000 C 
BRANCH   4   7
ATOM      5  C   UNL     1       1.108   9.045  20.220  0.00  0.00    +0.000 A 
ATOM      6  C   UNL     1       1.407   7.725  20.608  0.00  0.00    +0.000 A 
ATOM      7  C   UNL     1       2.083   6.854  19.741  0.00  0.00    +0.000 A 
ATOM      8  C   UNL     1       2.458   7.301  18.468  0.00  0.00    +0.000 A 
ATOM      9  C   UNL     1       2.173   8.609  18.072  0.00  0.00    +0.000 A 
ATOM     10  C   UNL     1       1.506   9.484  18.936  0.00  0.00    +0.000 A 
ATOM     11 CL   UNL     1       1.190  11.126  18.380  0.00  0.00    +0.000 Cl
BRANCH   5  13
ATOM     12  F   UNL     1       1.105  11.125  21.421  0.00  0.00    +0.000 F 
ATOM     13  C   UNL     1       0.379   9.973  21.166  0.00  0.00    +0.000 C 
ATOM     14  F   UNL     1       0.158   9.327  22.370  0.00  0.00    +0.000 F 
ATOM     15  F   UNL     1      -0.835  10.340  20.615  0.00  0.00    +0.000 F 
ENDBRANCH   5  13
ENDBRANCH   4   7
ENDBRANCH   2   4
ENDBRANCH   1   2
BRANCH   1  16
ATOM     16  C   UNL     1       1.475   3.135  19.212  0.00  0.00    +0.000 C 
BRANCH  16  17
ATOM     17  C   UNL     1       2.569   2.071  19.091  0.00  0.00    +0.000 C 
BRANCH  17  18
ATOM     18  N   UNL     1       3.872   2.628  19.385  0.00  0.00    +0.000 N 
ATOM     19  C   UNL     1       4.629   3.272  18.374  0.00  0.00    +0.000 A 
ATOM     20  N   UNL     1       4.194   3.427  17.096  0.00  0.00    +0.000 NA
ATOM     21  C   UNL     1       5.211   4.077  16.501  0.00  0.00    +0.000 A 
ATOM     22  C   UNL     1       5.309   4.498  15.179  0.00  0.00    +0.000 A 
ATOM     23  C   UNL     1       6.493   5.161  14.810  0.00  0.00    +0.000 A 
ATOM     24  N   UNL     1       7.490   5.371  15.731  0.00  0.00    +0.000 NA
ATOM     25  C   UNL     1       7.379   4.950  17.028  0.00  0.00    +0.000 A 
ATOM     26  C   UNL     1       6.209   4.296  17.399  0.00  0.00    +0.000 A 
ATOM     27  N   UNL     1       5.859   3.794  18.589  0.00  0.00    +0.000 N 
ATOM     28  H   UNL     1       4.268   2.560  20.335  0.00  0.00    +0.000 HD
ATOM     29  H   UNL     1       6.408   3.802  19.477  0.00  0.00    +0.000 HD
ENDBRANCH  17  18
ENDBRANCH  16  17
ENDBRANCH   1  16
TORSDOF 7
ENDMDL
