MODEL 1
REMARK VINA RESULT:      -8.2      0.000      0.000
REMARK  Name = 
REMARK  8 active torsions:
REMARK  status: ('A' for Active; 'I' for Inactive)
REMARK    1  A    between atoms: C_1  and  O_2
REMARK    2  A    between atoms: O_2  and  C_3
REMARK    3  A    between atoms: C_6  and  C_7
REMARK    4  A    between atoms: C_8  and  C_9
REMARK    5  A    between atoms: C_9  and  C_11
REMARK    6  A    between atoms: C_20  and  O_21
REMARK    7  A    between atoms: C_23  and  O_24
REMARK    8  A    between atoms: O_24  and  C_25
REMARK                            x       y       z     vdW  Elec       q    Type
REMARK                         _______ _______ _______ _____ _____    ______ ____
ROOT
ATOM      1  C   UNL     1       4.220   4.285  17.961  0.00  0.00    +0.000 C 
ATOM      2  O   UNL     1       4.175   3.237  18.581  0.00  0.00    +0.000 OA
ENDROOT
BRANCH   1   3
ATOM      3  C   UNL     1       5.258   4.518  16.937  0.00  0.00    +0.000 A 
ATOM      4  C   UNL     1       4.821   4.419  15.625  0.00  0.00    +0.000 A 
ATOM      5  C   UNL     1       5.749   4.332  14.570  0.00  0.00    +0.000 A 
ATOM      6  C   UNL     1       5.379   3.771  13.354  0.00  0.00    +0.000 A 
ATOM      7  C   UNL     1       6.359   3.524  12.356  0.00  0.00    +0.000 A 
ATOM      8  C   UNL     1       7.184   4.576  12.019  0.00  0.00    +0.000 A 
ATOM      9  C   UNL     1       7.697   4.862  13.280  0.00  0.00    +0.000 A 
ATOM     10  C   UNL     1       7.068   4.692  14.675  0.00  0.00    +0.000 A 
ATOM     11  C   UNL     1       7.518   4.792  16.069  0.00  0.00    +0.000 A 
ATOM     12  C   UNL     1       6.616   4.682  17.174  0.00  0.00    +0.000 A 
BRANCH  12  13
ATOM     13  O   UNL     1       7.018   4.670  18.484  0.00  0.00    +0.000 OA
ATOM     14  H   UNL     1       7.609   5.400  18.715  0.00  0.00    +0.000 HD
ENDBRANCH  12  13
ENDBRANCH   1   3
BRANCH   1  16
ATOM     15  C   UNL     1       3.368   6.679  17.953  0.00  0.00    +0.000 C 
ATOM     16  C   UNL     1       3.286   5.350  18.291  0.00  0.00    +0.000 C 
BRANCH  15  20
ATOM     17  C   UNL     1       0.872   9.882  19.565  0.00  0.00    +0.000 A 
ATOM     18  C   UNL     1       1.377   9.895  18.247  0.00  0.00    +0.000 A 
ATOM     19  C   UNL     1       2.103   8.816  17.709  0.00  0.00    +0.000 A 
ATOM     20  C   UNL     1       2.461   7.729  18.507  0.00  0.00    +0.000 A 
ATOM     21  C   UNL     1       1.943   7.698  19.807  0.00  0.00    +0.000 A 
ATOM     22  C   UNL     1       1.144   8.736  20.348  0.00  0.00    +0.000 A 
BRANCH  17  24
ATOM     23  C   UNL     1      -0.177  11.963  18.849  0.00  0.00    +0.000 C 
ATOM     24  O   UNL     1      -0.002  10.923  19.815  0.00  0.00    +0.000 OA
ENDBRANCH  17  24
BRANCH  22  25
ATOM     25  O   UNL     1       0.733   8.360  21.611  0.00  0.00    +0.000 OA
ATOM     26  C   UNL     1       1.052   9.282  22.608  0.00  0.00    +0.000 C 
ENDBRANCH  22  25
ENDBRANCH  15  20
ENDBRANCH   1  16
TORSDOF 6
ENDMDL
MODEL 2
REMARK VINA RESULT:      -8.0      5.354      7.233
REMARK  Name = 
REMARK  8 active torsions:
REMARK  status: ('A' for Active; 'I' for Inactive)
REMARK    1  A    between atoms: C_1  and  O_2
REMARK    2  A    between atoms: O_2  and  C_3
REMARK    3  A    between atoms: C_6  and  C_7
REMARK    4  A    between atoms: C_8  and  C_9
REMARK    5  A    between atoms: C_9  and  C_11
REMARK    6  A    between atoms: C_20  and  O_21
REMARK    7  A    between atoms: C_23  and  O_24
REMARK    8  A    between atoms: O_24  and  C_25
REMARK                            x       y       z     vdW  Elec       q    Type
REMARK                         _______ _______ _______ _____ _____    ______ ____
ROOT
ATOM      1  C   UNL     1       7.011   6.745  17.243  0.00  0.00    +0.000 C 
ATOM      2  O   UNL     1       7.478   6.483  16.149  0.00  0.00    +0.000 OA
ENDROOT
BRANCH   1   3
ATOM      3  C   UNL     1       6.006   5.865  17.871  0.00  0.00    +0.000 A 
ATOM      4  C   UNL     1       4.756   6.436  18.053  0.00  0.00    +0.000 A 
ATOM      5  C   UNL     1       3.805   5.819  18.888  0.00  0.00    +0.000 A 
ATOM      6  C   UNL     1       2.779   6.565  19.455  0.00  0.00    +0.000 A 
ATOM      7  C   UNL     1       1.930   5.981  20.431  0.00  0.00    +0.000 A 
ATOM      8  C   UNL     1       1.347   4.773  20.109  0.00  0.00    +0.000 A 
ATOM      9  C   UNL     1       2.499   4.046  19.830  0.00  0.00    +0.000 A 
ATOM     10  C   UNL     1       3.859   4.505  19.274  0.00  0.00    +0.000 A 
ATOM     11  C   UNL     1       5.188   3.911  19.078  0.00  0.00    +0.000 A 
ATOM     12  C   UNL     1       6.243   4.604  18.402  0.00  0.00    +0.000 A 
BRANCH  12  13
ATOM     13  O   UNL     1       7.519   4.119  18.291  0.00  0.00    +0.000 OA
ATOM     14  H   UNL     1       7.677   3.317  18.808  0.00  0.00    +0.000 HD
ENDBRANCH  12  13
ENDBRANCH   1   3
BRANCH   1  16
ATOM     15  C   UNL     1       8.214   8.976  17.426  0.00  0.00    +0.000 C 
ATOM     16  C   UNL     1       7.393   7.983  17.904  0.00  0.00    +0.000 C 
BRANCH  15  20
ATOM     17  C   UNL     1       9.483  12.277  19.992  0.00  0.00    +0.000 A 
ATOM     18  C   UNL     1       9.497  10.930  20.414  0.00  0.00    +0.000 A 
ATOM     19  C   UNL     1       9.173   9.867  19.550  0.00  0.00    +0.000 A 
ATOM     20  C   UNL     1       8.702  10.115  18.260  0.00  0.00    +0.000 A 
ATOM     21  C   UNL     1       8.709  11.446  17.827  0.00  0.00    +0.000 A 
ATOM     22  C   UNL     1       9.105  12.527  18.652  0.00  0.00    +0.000 A 
BRANCH  17  24
ATOM     23  C   UNL     1       9.307  13.559  22.057  0.00  0.00    +0.000 C 
ATOM     24  O   UNL     1      10.052  13.134  20.914  0.00  0.00    +0.000 OA
ENDBRANCH  17  24
BRANCH  22  25
ATOM     25  O   UNL     1       9.074  13.686  17.902  0.00  0.00    +0.000 OA
ATOM     26  C   UNL     1       8.104  14.600  18.312  0.00  0.00    +0.000 C 
ENDBRANCH  22  25
ENDBRANCH  15  20
ENDBRANCH   1  16
TORSDOF 6
ENDMDL
MODEL 3
REMARK VINA RESULT:      -7.9      3.472      9.004
REMARK  Name = 
REMARK  8 active torsions:
REMARK  status: ('A' for Active; 'I' for Inactive)
REMARK    1  A    between atoms: C_1  and  O_2
REMARK    2  A    between atoms: O_2  and  C_3
REMARK    3  A    between atoms: C_6  and  C_7
REMARK    4  A    between atoms: C_8  and  C_9
REMARK    5  A    between atoms: C_9  and  C_11
REMARK    6  A    between atoms: C_20  and  O_21
REMARK    7  A    between atoms: C_23  and  O_24
REMARK    8  A    between atoms: O_24  and  C_25
REMARK                            x       y       z     vdW  Elec       q    Type
REMARK                         _______ _______ _______ _____ _____    ______ ____
ROOT
ATOM      1  C   UNL     1       1.505   9.939  18.091  0.00  0.00    +0.000 C 
ATOM      2  O   UNL     1       2.332  10.666  17.569  0.00  0.00    +0.000 OA
ENDROOT
BRANCH   1   3
ATOM      3  C   UNL     1       0.145  10.428  18.392  0.00  0.00    +0.000 A 
ATOM      4  C   UNL     1      -0.856   9.915  17.583  0.00  0.00    +0.000 A 
ATOM      5  C   UNL     1      -2.135  10.505  17.570  0.00  0.00    +0.000 A 
ATOM      6  C   UNL     1      -2.974  10.339  16.476  0.00  0.00    +0.000 A 
ATOM      7  C   UNL     1      -4.185  11.075  16.389  0.00  0.00    +0.000 A 
ATOM      8  C   UNL     1      -5.024  11.028  17.483  0.00  0.00    +0.000 A 
ATOM      9  C   UNL     1      -4.137  11.479  18.455  0.00  0.00    +0.000 A 
ATOM     10  C   UNL     1      -2.607  11.336  18.553  0.00  0.00    +0.000 A 
ATOM     11  C   UNL     1      -1.537  11.874  19.402  0.00  0.00    +0.000 A 
ATOM     12  C   UNL     1      -0.180  11.431  19.296  0.00  0.00    +0.000 A 
BRANCH  12  13
ATOM     13  O   UNL     1       0.856  11.983  20.002  0.00  0.00    +0.000 OA
ATOM     14  H   UNL     1       1.585  12.290  19.446  0.00  0.00    +0.000 HD
ENDBRANCH  12  13
ENDBRANCH   1   3
BRANCH   1  16
ATOM     15  C   UNL     1       2.877   7.803  17.956  0.00  0.00    +0.000 C 
ATOM     16  C   UNL     1       1.890   8.596  18.493  0.00  0.00    +0.000 C 
BRANCH  15  20
ATOM     17  C   UNL     1       3.303   3.624  19.156  0.00  0.00    +0.000 A 
ATOM     18  C   UNL     1       2.073   4.181  18.747  0.00  0.00    +0.000 A 
ATOM     19  C   UNL     1       1.965   5.503  18.276  0.00  0.00    +0.000 A 
ATOM     20  C   UNL     1       3.062   6.364  18.309  0.00  0.00    +0.000 A 
ATOM     21  C   UNL     1       4.291   5.811  18.690  0.00  0.00    +0.000 A 
ATOM     22  C   UNL     1       4.441   4.462  19.095  0.00  0.00    +0.000 A 
BRANCH  17  24
ATOM     23  C   UNL     1       3.551   1.358  18.294  0.00  0.00    +0.000 C 
ATOM     24  O   UNL     1       3.233   2.259  19.358  0.00  0.00    +0.000 OA
ENDBRANCH  17  24
BRANCH  22  25
ATOM     25  O   UNL     1       5.781   4.220  19.323  0.00  0.00    +0.000 OA
ATOM     26  C   UNL     1       6.580   5.361  19.267  0.00  0.00    +0.000 C 
ENDBRANCH  22  25
ENDBRANCH  15  20
ENDBRANCH   1  16
TORSDOF 6
ENDMDL
MODEL 4
REMARK VINA RESULT:      -7.8      3.499      8.933
REMARK  Name = 
REMARK  8 active torsions:
REMARK  status: ('A' for Active; 'I' for Inactive)
REMARK    1  A    between atoms: C_1  and  O_2
REMARK    2  A    between atoms: O_2  and  C_3
REMARK    3  A    between atoms: C_6  and  C_7
REMARK    4  A    between atoms: C_8  and  C_9
REMARK    5  A    between atoms: C_9  and  C_11
REMARK    6  A    between atoms: C_20  and  O_21
REMARK    7  A    between atoms: C_23  and  O_24
REMARK    8  A    between atoms: O_24  and  C_25
REMARK                            x       y       z     vdW  Elec       q    Type
REMARK                         _______ _______ _______ _____ _____    ______ ____
ROOT
ATOM      1  C   UNL     1       1.587  10.251  18.205  0.00  0.00    +0.000 C 
ATOM      2  O   UNL     1       2.464  11.062  17.966  0.00  0.00    +0.000 OA
ENDROOT
BRANCH   1   3
ATOM      3  C   UNL     1       0.207  10.688  18.497  0.00  0.00    +0.000 A 
ATOM      4  C   UNL     1      -0.770  10.131  17.687  0.00  0.00    +0.000 A 
ATOM      5  C   UNL     1      -2.071  10.670  17.664  0.00  0.00    +0.000 A 
ATOM      6  C   UNL     1      -2.898  10.464  16.568  0.00  0.00    +0.000 A 
ATOM      7  C   UNL     1      -4.136  11.151  16.470  0.00  0.00    +0.000 A 
ATOM      8  C   UNL     1      -4.977  11.077  17.561  0.00  0.00    +0.000 A 
ATOM      9  C   UNL     1      -4.114  11.570  18.534  0.00  0.00    +0.000 A 
ATOM     10  C   UNL     1      -2.580  11.488  18.640  0.00  0.00    +0.000 A 
ATOM     11  C   UNL     1      -1.536  12.073  19.490  0.00  0.00    +0.000 A 
ATOM     12  C   UNL     1      -0.162  11.683  19.392  0.00  0.00    +0.000 A 
BRANCH  12  13
ATOM     13  O   UNL     1       0.849  12.280  20.100  0.00  0.00    +0.000 OA
ATOM     14  H   UNL     1       1.733  12.053  19.780  0.00  0.00    +0.000 HD
ENDBRANCH  12  13
ENDBRANCH   1   3
BRANCH   1  16
ATOM     15  C   UNL     1       1.855   8.011  19.376  0.00  0.00    +0.000 C 
ATOM     16  C   UNL     1       1.923   8.839  18.280  0.00  0.00    +0.000 C 
BRANCH  15  20
ATOM     17  C   UNL     1       3.361   3.911  19.278  0.00  0.00    +0.000 A 
ATOM     18  C   UNL     1       3.634   4.851  18.261  0.00  0.00    +0.000 A 
ATOM     19  C   UNL     1       3.220   6.194  18.347  0.00  0.00    +0.000 A 
ATOM     20  C   UNL     1       2.410   6.625  19.398  0.00  0.00    +0.000 A 
ATOM     21  C   UNL     1       2.157   5.705  20.422  0.00  0.00    +0.000 A 
ATOM     22  C   UNL     1       2.628   4.369  20.397  0.00  0.00    +0.000 A 
BRANCH  17  24
ATOM     23  C   UNL     1       3.452   1.644  18.389  0.00  0.00    +0.000 C 
ATOM     24  O   UNL     1       4.049   2.725  19.109  0.00  0.00    +0.000 OA
ENDBRANCH  17  24
BRANCH  22  25
ATOM     25  O   UNL     1       2.277   3.758  21.584  0.00  0.00    +0.000 OA
ATOM     26  C   UNL     1       1.370   2.709  21.435  0.00  0.00    +0.000 C 
ENDBRANCH  22  25
ENDBRANCH  15  20
ENDBRANCH   1  16
TORSDOF 6
ENDMDL
MODEL 5
REMARK VINA RESULT:      -7.8      3.067      8.897
REMARK  Name = 
REMARK  8 active torsions:
REMARK  status: ('A' for Active; 'I' for Inactive)
REMARK    1  A    between atoms: C_1  and  O_2
REMARK    2  A    between atoms: O_2  and  C_3
REMARK    3  A    between atoms: C_6  and  C_7
REMARK    4  A    between atoms: C_8  and  C_9
REMARK    5  A    between atoms: C_9  and  C_11
REMARK    6  A    between atoms: C_20  and  O_21
REMARK    7  A    between atoms: C_23  and  O_24
REMARK    8  A    between atoms: O_24  and  C_25
REMARK                            x       y       z     vdW  Elec       q    Type
REMARK                         _______ _______ _______ _____ _____    ______ ____
ROOT
ATOM      1  C   UNL     1       1.572   9.715  18.067  0.00  0.00    +0.000 C 
ATOM      2  O   UNL     1       2.503  10.445  17.776  0.00  0.00    +0.000 OA
ENDROOT
BRANCH   1   3
ATOM      3  C   UNL     1       0.231  10.266  18.340  0.00  0.00    +0.000 A 
ATOM      4  C   UNL     1      -0.784   9.766  17.540  0.00  0.00    +0.000 A 
ATOM      5  C   UNL     1      -2.039  10.405  17.497  0.00  0.00    +0.000 A 
ATOM      6  C   UNL     1      -2.876  10.234  16.402  0.00  0.00    +0.000 A 
ATOM      7  C   UNL     1      -4.057  11.013  16.280  0.00  0.00    +0.000 A 
ATOM      8  C   UNL     1      -4.904  11.036  17.368  0.00  0.00    +0.000 A 
ATOM      9  C   UNL     1      -4.007  11.485  18.331  0.00  0.00    +0.000 A 
ATOM     10  C   UNL     1      -2.485  11.287  18.448  0.00  0.00    +0.000 A 
ATOM     11  C   UNL     1      -1.400  11.811  19.287  0.00  0.00    +0.000 A 
ATOM     12  C   UNL     1      -0.061  11.312  19.207  0.00  0.00    +0.000 A 
BRANCH  12  13
ATOM     13  O   UNL     1       0.991  11.846  19.903  0.00  0.00    +0.000 OA
ATOM     14  H   UNL     1       0.729  12.295  20.718  0.00  0.00    +0.000 HD
ENDBRANCH  12  13
ENDBRANCH   1   3
BRANCH   1  16
ATOM     15  C   UNL     1       2.888   7.558  17.790  0.00  0.00    +0.000 C 
ATOM     16  C   UNL     1       1.807   8.288  18.224  0.00  0.00    +0.000 C 
BRANCH  15  20
ATOM     17  C   UNL     1       3.034   3.192  17.690  0.00  0.00    +0.000 A 
ATOM     18  C   UNL     1       4.061   4.005  17.164  0.00  0.00    +0.000 A 
ATOM     19  C   UNL     1       4.047   5.408  17.283  0.00  0.00    +0.000 A 
ATOM     20  C   UNL     1       2.943   6.066  17.826  0.00  0.00    +0.000 A 
ATOM     21  C   UNL     1       1.933   5.265  18.372  0.00  0.00    +0.000 A 
ATOM     22  C   UNL     1       1.960   3.850  18.334  0.00  0.00    +0.000 A 
BRANCH  17  24
ATOM     23  C   UNL     1       3.930   1.231  18.827  0.00  0.00    +0.000 C 
ATOM     24  O   UNL     1       3.353   1.848  17.674  0.00  0.00    +0.000 OA
ENDBRANCH  17  24
BRANCH  22  25
ATOM     25  O   UNL     1       0.866   3.371  19.026  0.00  0.00    +0.000 OA
ATOM     26  C   UNL     1       0.997   3.442  20.413  0.00  0.00    +0.000 C 
ENDBRANCH  22  25
ENDBRANCH  15  20
ENDBRANCH   1  16
TORSDOF 6
ENDMDL
MODEL 6
REMARK VINA RESULT:      -7.8      2.118      3.352
REMARK  Name = 
REMARK  8 active torsions:
REMARK  status: ('A' for Active; 'I' for Inactive)
REMARK    1  A    between atoms: C_1  and  O_2
REMARK    2  A    between atoms: O_2  and  C_3
REMARK    3  A    between atoms: C_6  and  C_7
REMARK    4  A    between atoms: C_8  and  C_9
REMARK    5  A    between atoms: C_9  and  C_11
REMARK    6  A    between atoms: C_20  and  O_21
REMARK    7  A    between atoms: C_23  and  O_24
REMARK    8  A    between atoms: O_24  and  C_25
REMARK                            x       y       z     vdW  Elec       q    Type
REMARK                         _______ _______ _______ _____ _____    ______ ____
ROOT
ATOM      1  C   UNL     1       2.238   5.293  20.201  0.00  0.00    +0.000 C 
ATOM      2  O   UNL     1       1.908   4.643  21.177  0.00  0.00    +0.000 OA
ENDROOT
BRANCH   1   3
ATOM      3  C   UNL     1       3.054   4.692  19.128  0.00  0.00    +0.000 A 
ATOM      4  C   UNL     1       3.938   5.560  18.507  0.00  0.00    +0.000 A 
ATOM      5  C   UNL     1       4.558   5.199  17.295  0.00  0.00    +0.000 A 
ATOM      6  C   UNL     1       5.044   6.177  16.436  0.00  0.00    +0.000 A 
ATOM      7  C   UNL     1       5.507   5.822  15.142  0.00  0.00    +0.000 A 
ATOM      8  C   UNL     1       6.432   4.802  15.069  0.00  0.00    +0.000 A 
ATOM      9  C   UNL     1       5.711   3.808  15.722  0.00  0.00    +0.000 A 
ATOM     10  C   UNL     1       4.650   3.911  16.833  0.00  0.00    +0.000 A 
ATOM     11  C   UNL     1       3.708   3.003  17.498  0.00  0.00    +0.000 A 
ATOM     12  C   UNL     1       2.912   3.410  18.615  0.00  0.00    +0.000 A 
BRANCH  12  13
ATOM     13  O   UNL     1       1.954   2.619  19.193  0.00  0.00    +0.000 OA
ATOM     14  H   UNL     1       2.234   1.702  19.322  0.00  0.00    +0.000 HD
ENDBRANCH  12  13
ENDBRANCH   1   3
BRANCH   1  16
ATOM     15  C   UNL     1       1.499   7.528  21.161  0.00  0.00    +0.000 C 
ATOM     16  C   UNL     1       1.888   6.703  20.133  0.00  0.00    +0.000 C 
BRANCH  15  20
ATOM     17  C   UNL     1       0.143  11.630  20.510  0.00  0.00    +0.000 A 
ATOM     18  C   UNL     1       0.617  10.806  19.467  0.00  0.00    +0.000 A 
ATOM     19  C   UNL     1       0.965   9.457  19.672  0.00  0.00    +0.000 A 
ATOM     20  C   UNL     1       0.970   8.909  20.956  0.00  0.00    +0.000 A 
ATOM     21  C   UNL     1       0.478   9.714  21.990  0.00  0.00    +0.000 A 
ATOM     22  C   UNL     1       0.048  11.049  21.797  0.00  0.00    +0.000 A 
BRANCH  17  24
ATOM     23  C   UNL     1      -1.736  12.949  19.694  0.00  0.00    +0.000 C 
ATOM     24  O   UNL     1      -0.358  12.835  20.056  0.00  0.00    +0.000 OA
ENDBRANCH  17  24
BRANCH  22  25
ATOM     25  O   UNL     1      -0.451  11.527  22.992  0.00  0.00    +0.000 OA
ATOM     26  C   UNL     1      -1.843  11.508  23.072  0.00  0.00    +0.000 C 
ENDBRANCH  22  25
ENDBRANCH  15  20
ENDBRANCH   1  16
TORSDOF 6
ENDMDL
MODEL 7
REMARK VINA RESULT:      -7.7      5.476      7.487
REMARK  Name = 
REMARK  8 active torsions:
REMARK  status: ('A' for Active; 'I' for Inactive)
REMARK    1  A    between atoms: C_1  and  O_2
REMARK    2  A    between atoms: O_2  and  C_3
REMARK    3  A    between atoms: C_6  and  C_7
REMARK    4  A    between atoms: C_8  and  C_9
REMARK    5  A    between atoms: C_9  and  C_11
REMARK    6  A    between atoms: C_20  and  O_21
REMARK    7  A    between atoms: C_23  and  O_24
REMARK    8  A    between atoms: O_24  and  C_25
REMARK                            x       y       z     vdW  Elec       q    Type
REMARK                         _______ _______ _______ _____ _____    ______ ____
ROOT
ATOM      1  C   UNL     1       7.199   6.289  17.555  0.00  0.00    +0.000 C 
ATOM      2  O   UNL     1       7.833   5.652  16.732  0.00  0.00    +0.000 OA
ENDROOT
BRANCH   1   3
ATOM      3  C   UNL     1       5.806   5.930  17.884  0.00  0.00    +0.000 A 
ATOM      4  C   UNL     1       5.659   5.069  18.960  0.00  0.00    +0.000 A 
ATOM      5  C   UNL     1       4.428   4.427  19.197  0.00  0.00    +0.000 A 
ATOM      6  C   UNL     1       4.381   3.248  19.930  0.00  0.00    +0.000 A 
ATOM      7  C   UNL     1       3.170   2.512  20.017  0.00  0.00    +0.000 A 
ATOM      8  C   UNL     1       2.043   3.209  20.403  0.00  0.00    +0.000 A 
ATOM      9  C   UNL     1       2.055   4.196  19.423  0.00  0.00    +0.000 A 
ATOM     10  C   UNL     1       3.232   4.840  18.669  0.00  0.00    +0.000 A 
ATOM     11  C   UNL     1       3.401   5.751  17.530  0.00  0.00    +0.000 A 
ATOM     12  C   UNL     1       4.680   6.263  17.142  0.00  0.00    +0.000 A 
BRANCH  12  13
ATOM     13  O   UNL     1       4.883   7.033  16.027  0.00  0.00    +0.000 OA
ATOM     14  H   UNL     1       5.589   7.686  16.130  0.00  0.00    +0.000 HD
ENDBRANCH  12  13
ENDBRANCH   1   3
BRANCH   1  16
ATOM     15  C   UNL     1       7.774   8.761  17.700  0.00  0.00    +0.000 C 
ATOM     16  C   UNL     1       7.800   7.466  18.162  0.00  0.00    +0.000 C 
BRANCH  15  20
ATOM     17  C   UNL     1      10.004  12.020  19.568  0.00  0.00    +0.000 A 
ATOM     18  C   UNL     1       9.727  10.805  20.229  0.00  0.00    +0.000 A 
ATOM     19  C   UNL     1       9.088   9.727  19.587  0.00  0.00    +0.000 A 
ATOM     20  C   UNL     1       8.588   9.864  18.292  0.00  0.00    +0.000 A 
ATOM     21  C   UNL     1       8.881  11.057  17.621  0.00  0.00    +0.000 A 
ATOM     22  C   UNL     1       9.591  12.127  18.219  0.00  0.00    +0.000 A 
BRANCH  17  24
ATOM     23  C   UNL     1      10.286  13.780  21.230  0.00  0.00    +0.000 C 
ATOM     24  O   UNL     1      10.836  12.849  20.295  0.00  0.00    +0.000 OA
ENDBRANCH  17  24
BRANCH  22  25
ATOM     25  O   UNL     1       9.781  13.112  17.270  0.00  0.00    +0.000 OA
ATOM     26  C   UNL     1      11.117  13.314  16.923  0.00  0.00    +0.000 C 
ENDBRANCH  22  25
ENDBRANCH  15  20
ENDBRANCH   1  16
TORSDOF 6
ENDMDL
MODEL 8
REMARK VINA RESULT:      -7.7      3.813      8.920
REMARK  Name = 
REMARK  8 active torsions:
REMARK  status: ('A' for Active; 'I' for Inactive)
REMARK    1  A    between atoms: C_1  and  O_2
REMARK    2  A    between atoms: O_2  and  C_3
REMARK    3  A    between atoms: C_6  and  C_7
REMARK    4  A    between atoms: C_8  and  C_9
REMARK    5  A    between atoms: C_9  and  C_11
REMARK    6  A    between atoms: C_20  and  O_21
REMARK    7  A    between atoms: C_23  and  O_24
REMARK    8  A    between atoms: O_24  and  C_25
REMARK                            x       y       z     vdW  Elec       q    Type
REMARK                         _______ _______ _______ _____ _____    ______ ____
ROOT
ATOM      1  C   UNL     1       0.746   9.756  20.883  0.00  0.00    +0.000 C 
ATOM      2  O   UNL     1       1.460  10.360  21.663  0.00  0.00    +0.000 OA
ENDROOT
BRANCH   1   3
ATOM      3  C   UNL     1      -0.420  10.410  20.257  0.00  0.00    +0.000 A 
ATOM      4  C   UNL     1      -0.929   9.762  19.142  0.00  0.00    +0.000 A 
ATOM      5  C   UNL     1      -1.840  10.417  18.291  0.00  0.00    +0.000 A 
ATOM      6  C   UNL     1      -1.989  10.006  16.972  0.00  0.00    +0.000 A 
ATOM      7  C   UNL     1      -2.773  10.774  16.072  0.00  0.00    +0.000 A 
ATOM      8  C   UNL     1      -4.048  11.104  16.481  0.00  0.00    +0.000 A 
ATOM      9  C   UNL     1      -3.733  11.748  17.672  0.00  0.00    +0.000 A 
ATOM     10  C   UNL     1      -2.561  11.527  18.647  0.00  0.00    +0.000 A 
ATOM     11  C   UNL     1      -2.012  12.205  19.827  0.00  0.00    +0.000 A 
ATOM     12  C   UNL     1      -0.940  11.651  20.598  0.00  0.00    +0.000 A 
BRANCH  12  13
ATOM     13  O   UNL     1      -0.340  12.304  21.643  0.00  0.00    +0.000 OA
ATOM     14  H   UNL     1      -0.806  12.201  22.484  0.00  0.00    +0.000 HD
ENDBRANCH  12  13
ENDBRANCH   1   3
BRANCH   1  16
ATOM     15  C   UNL     1       2.003   7.797  19.860  0.00  0.00    +0.000 C 
ATOM     16  C   UNL     1       1.003   8.347  20.626  0.00  0.00    +0.000 C 
BRANCH  15  20
ATOM     17  C   UNL     1       2.040   3.599  18.651  0.00  0.00    +0.000 A 
ATOM     18  C   UNL     1       2.522   4.637  17.826  0.00  0.00    +0.000 A 
ATOM     19  C   UNL     1       2.589   5.975  18.261  0.00  0.00    +0.000 A 
ATOM     20  C   UNL     1       2.063   6.350  19.498  0.00  0.00    +0.000 A 
ATOM     21  C   UNL     1       1.607   5.322  20.331  0.00  0.00    +0.000 A 
ATOM     22  C   UNL     1       1.600   3.959  19.947  0.00  0.00    +0.000 A 
BRANCH  17  24
ATOM     23  C   UNL     1       3.569   1.746  18.238  0.00  0.00    +0.000 C 
ATOM     24  O   UNL     1       2.275   2.343  18.126  0.00  0.00    +0.000 OA
ENDBRANCH  17  24
BRANCH  22  25
ATOM     25  O   UNL     1       1.170   3.203  21.019  0.00  0.00    +0.000 OA
ATOM     26  C   UNL     1       2.192   2.517  21.675  0.00  0.00    +0.000 C 
ENDBRANCH  22  25
ENDBRANCH  15  20
ENDBRANCH   1  16
TORSDOF 6
ENDMDL
MODEL 9
REMARK VINA RESULT:      -7.7      5.849      7.559
REMARK  Name = 
REMARK  8 active torsions:
REMARK  status: ('A' for Active; 'I' for Inactive)
REMARK    1  A    between atoms: C_1  and  O_2
REMARK    2  A    between atoms: O_2  and  C_3
REMARK    3  A    between atoms: C_6  and  C_7
REMARK    4  A    between atoms: C_8  and  C_9
REMARK    5  A    between atoms: C_9  and  C_11
REMARK    6  A    between atoms: C_20  and  O_21
REMARK    7  A    between atoms: C_23  and  O_24
REMARK    8  A    between atoms: O_24  and  C_25
REMARK                            x       y       z     vdW  Elec       q    Type
REMARK                         _______ _______ _______ _____ _____    ______ ____
ROOT
ATOM      1  C   UNL     1       7.586   7.116  17.374  0.00  0.00    +0.000 C 
ATOM      2  O   UNL     1       7.980   6.936  16.235  0.00  0.00    +0.000 OA
ENDROOT
BRANCH   1   3
ATOM      3  C   UNL     1       6.592   6.214  17.987  0.00  0.00    +0.000 A 
ATOM      4  C   UNL     1       5.316   6.297  17.452  0.00  0.00    +0.000 A 
ATOM      5  C   UNL     1       4.223   5.714  18.124  0.00  0.00    +0.000 A 
ATOM      6  C   UNL     1       2.931   6.168  17.889  0.00  0.00    +0.000 A 
ATOM      7  C   UNL     1       1.856   5.703  18.691  0.00  0.00    +0.000 A 
ATOM      8  C   UNL     1       1.726   4.337  18.829  0.00  0.00    +0.000 A 
ATOM      9  C   UNL     1       2.992   4.049  19.329  0.00  0.00    +0.000 A 
ATOM     10  C   UNL     1       4.341   4.753  19.094  0.00  0.00    +0.000 A 
ATOM     11  C   UNL     1       5.697   4.676  19.652  0.00  0.00    +0.000 A 
ATOM     12  C   UNL     1       6.792   5.420  19.108  0.00  0.00    +0.000 A 
BRANCH  12  13
ATOM     13  O   UNL     1       8.043   5.447  19.666  0.00  0.00    +0.000 OA
ATOM     14  H   UNL     1       8.756   5.523  19.017  0.00  0.00    +0.000 HD
ENDBRANCH  12  13
ENDBRANCH   1   3
BRANCH   1  16
ATOM     15  C   UNL     1       8.433   9.502  17.605  0.00  0.00    +0.000 C 
ATOM     16  C   UNL     1       8.046   8.283  18.110  0.00  0.00    +0.000 C 
BRANCH  15  20
ATOM     17  C   UNL     1      10.132  12.656  20.105  0.00  0.00    +0.000 A 
ATOM     18  C   UNL     1       9.672  11.429  20.629  0.00  0.00    +0.000 A 
ATOM     19  C   UNL     1       9.211  10.384  19.805  0.00  0.00    +0.000 A 
ATOM     20  C   UNL     1       9.076  10.569  18.428  0.00  0.00    +0.000 A 
ATOM     21  C   UNL     1       9.553  11.775  17.900  0.00  0.00    +0.000 A 
ATOM     22  C   UNL     1      10.093  12.811  18.700  0.00  0.00    +0.000 A 
BRANCH  17  24
ATOM     23  C   UNL     1      10.142  14.663  21.489  0.00  0.00    +0.000 C 
ATOM     24  O   UNL     1      10.753  13.445  21.055  0.00  0.00    +0.000 OA
ENDBRANCH  17  24
BRANCH  22  25
ATOM     25  O   UNL     1      10.542  13.818  17.869  0.00  0.00    +0.000 OA
ATOM     26  C   UNL     1      11.272  13.363  16.771  0.00  0.00    +0.000 C 
ENDBRANCH  22  25
ENDBRANCH  15  20
ENDBRANCH   1  16
TORSDOF 6
ENDMDL
