MODEL 1
REMARK VINA RESULT:      -7.2      0.000      0.000
REMARK  Name = 
REMARK  12 active torsions:
REMARK  status: ('A' for Active; 'I' for Inactive)
REMARK    1  A    between atoms: C_1  and  C_2
REMARK    2  A    between atoms: C_2  and  N_3
REMARK    3  A    between atoms: N_3  and  C_4
REMARK    4  A    between atoms: N_3  and  C_15
REMARK    5  A    between atoms: C_4  and  C_5
REMARK    6  A    between atoms: C_9  and  O_10
REMARK    7  A    between atoms: C_11  and  O_12
REMARK    8  A    between atoms: O_12  and  C_13
REMARK    9  A    between atoms: C_15  and  C_16
REMARK   10  A    between atoms: C_18  and  C_19
REMARK   11  A    between atoms: C_19  and  O_20
REMARK   12  A    between atoms: O_20  and  C_21
REMARK                            x       y       z     vdW  Elec       q    Type
REMARK                         _______ _______ _______ _____ _____    ______ ____
ROOT
ATOM      1  N   UNL     1       6.309   5.886  17.434  0.00  0.00    +0.000 NA
ENDROOT
BRANCH   1   3
ATOM      2  C   UNL     1       8.139   7.173  18.625  0.00  0.00    +0.000 C 
ATOM      3  C   UNL     1       7.287   6.989  17.373  0.00  0.00    +0.000 C 
ENDBRANCH   1   3
BRANCH   1   4
ATOM      4  C   UNL     1       4.966   6.224  16.903  0.00  0.00    +0.000 C 
BRANCH   4   5
ATOM      5  C   UNL     1       3.784   5.731  17.711  0.00  0.00    +0.000 A 
ATOM      6  C   UNL     1       3.153   6.549  18.653  0.00  0.00    +0.000 A 
ATOM      7  C   UNL     1       2.221   6.025  19.537  0.00  0.00    +0.000 A 
ATOM      8 CL   UNL     1       1.578   7.051  20.772  0.00  0.00    +0.000 Cl
ATOM      9  C   UNL     1       1.838   4.681  19.462  0.00  0.00    +0.000 A 
ATOM     10  C   UNL     1       2.369   3.874  18.453  0.00  0.00    +0.000 A 
ATOM     11  C   UNL     1       3.324   4.414  17.586  0.00  0.00    +0.000 A 
BRANCH   9  12
ATOM     12  O   UNL     1       0.959   4.190  20.390  0.00  0.00    +0.000 OA
ATOM     13  H   UNL     1       1.491   3.771  21.094  0.00  0.00    +0.000 HD
ENDBRANCH   9  12
BRANCH  10  14
ATOM     14  O   UNL     1       2.105   2.558  18.180  0.00  0.00    +0.000 OA
ATOM     15  C   UNL     1       3.151   1.619  18.362  0.00  0.00    +0.000 C 
ENDBRANCH  10  14
ENDBRANCH   4   5
ENDBRANCH   1   4
BRANCH   1  16
ATOM     16  C   UNL     1       6.913   4.672  16.819  0.00  0.00    +0.000 C 
BRANCH  16  17
ATOM     17  C   UNL     1       6.946   4.654  15.325  0.00  0.00    +0.000 A 
ATOM     18  N   UNL     1       6.384   3.801  14.503  0.00  0.00    +0.000 NA
ATOM     19  C   UNL     1       6.815   4.230  13.277  0.00  0.00    +0.000 A 
ATOM     20  N   UNL     1       7.579   5.331  13.313  0.00  0.00    +0.000 NA
ATOM     21  O   UNL     1       7.663   5.625  14.683  0.00  0.00    +0.000 OA
BRANCH  19  22
ATOM     22  C   UNL     1       6.563   3.443  12.035  0.00  0.00    +0.000 C 
BRANCH  22  23
ATOM     23  O   UNL     1       5.371   2.654  12.114  0.00  0.00    +0.000 OA
ATOM     24  C   UNL     1       4.294   3.262  11.417  0.00  0.00    +0.000 C 
ENDBRANCH  22  23
ENDBRANCH  19  22
ENDBRANCH  16  17
ENDBRANCH   1  16
TORSDOF 9
ENDMDL
MODEL 2
REMARK VINA RESULT:      -6.9      2.640      5.109
REMARK  Name = 
REMARK  12 active torsions:
REMARK  status: ('A' for Active; 'I' for Inactive)
REMARK    1  A    between atoms: C_1  and  C_2
REMARK    2  A    between atoms: C_2  and  N_3
REMARK    3  A    between atoms: N_3  and  C_4
REMARK    4  A    between atoms: N_3  and  C_15
REMARK    5  A    between atoms: C_4  and  C_5
REMARK    6  A    between atoms: C_9  and  O_10
REMARK    7  A    between atoms: C_11  and  O_12
REMARK    8  A    between atoms: O_12  and  C_13
REMARK    9  A    between atoms: C_15  and  C_16
REMARK   10  A    between atoms: C_18  and  C_19
REMARK   11  A    between atoms: C_19  and  O_20
REMARK   12  A    between atoms: O_20  and  C_21
REMARK                            x       y       z     vdW  Elec       q    Type
REMARK                         _______ _______ _______ _____ _____    ______ ____
ROOT
ATOM      1  N   UNL     1       5.352   4.668  15.892  0.00  0.00    +0.000 NA
ENDROOT
BRANCH   1   3
ATOM      2  C   UNL     1       6.749   4.313  13.805  0.00  0.00    +0.000 C 
ATOM      3  C   UNL     1       5.364   4.411  14.439  0.00  0.00    +0.000 C 
ENDBRANCH   1   3
BRANCH   1   4
ATOM      4  C   UNL     1       4.373   3.855  16.653  0.00  0.00    +0.000 C 
BRANCH   4   5
ATOM      5  C   UNL     1       3.830   4.476  17.923  0.00  0.00    +0.000 A 
ATOM      6  C   UNL     1       3.531   3.697  19.044  0.00  0.00    +0.000 A 
ATOM      7  C   UNL     1       2.834   4.236  20.117  0.00  0.00    +0.000 A 
ATOM      8 CL   UNL     1       2.367   3.191  21.414  0.00  0.00    +0.000 Cl
ATOM      9  C   UNL     1       2.476   5.588  20.133  0.00  0.00    +0.000 A 
ATOM     10  C   UNL     1       2.869   6.412  19.075  0.00  0.00    +0.000 A 
ATOM     11  C   UNL     1       3.550   5.846  17.992  0.00  0.00    +0.000 A 
BRANCH   9  12
ATOM     12  O   UNL     1       1.740   6.066  21.183  0.00  0.00    +0.000 OA
ATOM     13  H   UNL     1       2.150   5.723  22.000  0.00  0.00    +0.000 HD
ENDBRANCH   9  12
BRANCH  10  14
ATOM     14  O   UNL     1       2.658   7.755  18.911  0.00  0.00    +0.000 OA
ATOM     15  C   UNL     1       2.100   8.196  17.685  0.00  0.00    +0.000 C 
ENDBRANCH  10  14
ENDBRANCH   4   5
ENDBRANCH   1   4
BRANCH   1  16
ATOM     16  C   UNL     1       6.745   4.576  16.409  0.00  0.00    +0.000 C 
BRANCH  16  17
ATOM     17  C   UNL     1       7.218   5.754  17.198  0.00  0.00    +0.000 A 
ATOM     18  N   UNL     1       7.201   7.023  16.865  0.00  0.00    +0.000 NA
ATOM     19  C   UNL     1       7.825   7.624  17.924  0.00  0.00    +0.000 A 
ATOM     20  N   UNL     1       8.182   6.784  18.906  0.00  0.00    +0.000 NA
ATOM     21  O   UNL     1       7.769   5.530  18.428  0.00  0.00    +0.000 OA
BRANCH  19  22
ATOM     22  C   UNL     1       8.193   9.070  17.905  0.00  0.00    +0.000 C 
BRANCH  22  23
ATOM     23  O   UNL     1       9.053   9.435  18.989  0.00  0.00    +0.000 OA
ATOM     24  C   UNL     1       9.367  10.819  18.963  0.00  0.00    +0.000 C 
ENDBRANCH  22  23
ENDBRANCH  19  22
ENDBRANCH  16  17
ENDBRANCH   1  16
TORSDOF 9
ENDMDL
MODEL 3
REMARK VINA RESULT:      -6.9      1.985      2.703
REMARK  Name = 
REMARK  12 active torsions:
REMARK  status: ('A' for Active; 'I' for Inactive)
REMARK    1  A    between atoms: C_1  and  C_2
REMARK    2  A    between atoms: C_2  and  N_3
REMARK    3  A    between atoms: N_3  and  C_4
REMARK    4  A    between atoms: N_3  and  C_15
REMARK    5  A    between atoms: C_4  and  C_5
REMARK    6  A    between atoms: C_9  and  O_10
REMARK    7  A    between atoms: C_11  and  O_12
REMARK    8  A    between atoms: O_12  and  C_13
REMARK    9  A    between atoms: C_15  and  C_16
REMARK   10  A    between atoms: C_18  and  C_19
REMARK   11  A    between atoms: C_19  and  O_20
REMARK   12  A    between atoms: O_20  and  C_21
REMARK                            x       y       z     vdW  Elec       q    Type
REMARK                         _______ _______ _______ _____ _____    ______ ____
ROOT
ATOM      1  N   UNL     1       7.331   5.720  18.270  0.00  0.00    +0.000 NA
ENDROOT
BRANCH   1   3
ATOM      2  C   UNL     1       7.772   8.105  17.532  0.00  0.00    +0.000 C 
ATOM      3  C   UNL     1       6.928   6.841  17.400  0.00  0.00    +0.000 C 
ENDBRANCH   1   3
BRANCH   1   4
ATOM      4  C   UNL     1       6.402   5.448  19.393  0.00  0.00    +0.000 C 
BRANCH   4   5
ATOM      5  C   UNL     1       4.974   5.112  19.014  0.00  0.00    +0.000 A 
ATOM      6  C   UNL     1       4.543   3.787  18.902  0.00  0.00    +0.000 A 
ATOM      7  C   UNL     1       3.307   3.488  18.346  0.00  0.00    +0.000 A 
ATOM      8 CL   UNL     1       2.885   1.828  18.101  0.00  0.00    +0.000 Cl
ATOM      9  C   UNL     1       2.434   4.507  17.949  0.00  0.00    +0.000 A 
ATOM     10  C   UNL     1       2.796   5.839  18.161  0.00  0.00    +0.000 A 
ATOM     11  C   UNL     1       4.055   6.121  18.701  0.00  0.00    +0.000 A 
BRANCH   9  12
ATOM     12  O   UNL     1       1.249   4.169  17.352  0.00  0.00    +0.000 OA
ATOM     13  H   UNL     1       0.681   3.779  18.045  0.00  0.00    +0.000 HD
ENDBRANCH   9  12
BRANCH  10  14
ATOM     14  O   UNL     1       2.084   6.976  17.885  0.00  0.00    +0.000 OA
ATOM     15  C   UNL     1       2.044   7.993  18.872  0.00  0.00    +0.000 C 
ENDBRANCH  10  14
ENDBRANCH   4   5
ENDBRANCH   1   4
BRANCH   1  16
ATOM     16  C   UNL     1       7.619   4.531  17.423  0.00  0.00    +0.000 C 
BRANCH  16  17
ATOM     17  C   UNL     1       7.071   4.581  16.033  0.00  0.00    +0.000 A 
ATOM     18  N   UNL     1       5.995   4.002  15.556  0.00  0.00    +0.000 NA
ATOM     19  C   UNL     1       6.037   4.330  14.228  0.00  0.00    +0.000 A 
ATOM     20  N   UNL     1       7.066   5.118  13.884  0.00  0.00    +0.000 NA
ATOM     21  O   UNL     1       7.757   5.297  15.093  0.00  0.00    +0.000 OA
BRANCH  19  22
ATOM     22  C   UNL     1       5.090   3.735  13.240  0.00  0.00    +0.000 C 
BRANCH  22  23
ATOM     23  O   UNL     1       5.677   3.569  11.944  0.00  0.00    +0.000 OA
ATOM     24  C   UNL     1       6.093   2.229  11.727  0.00  0.00    +0.000 C 
ENDBRANCH  22  23
ENDBRANCH  19  22
ENDBRANCH  16  17
ENDBRANCH   1  16
TORSDOF 9
ENDMDL
MODEL 4
REMARK VINA RESULT:      -6.8      1.498      2.406
REMARK  Name = 
REMARK  12 active torsions:
REMARK  status: ('A' for Active; 'I' for Inactive)
REMARK    1  A    between atoms: C_1  and  C_2
REMARK    2  A    between atoms: C_2  and  N_3
REMARK    3  A    between atoms: N_3  and  C_4
REMARK    4  A    between atoms: N_3  and  C_15
REMARK    5  A    between atoms: C_4  and  C_5
REMARK    6  A    between atoms: C_9  and  O_10
REMARK    7  A    between atoms: C_11  and  O_12
REMARK    8  A    between atoms: O_12  and  C_13
REMARK    9  A    between atoms: C_15  and  C_16
REMARK   10  A    between atoms: C_18  and  C_19
REMARK   11  A    between atoms: C_19  and  O_20
REMARK   12  A    between atoms: O_20  and  C_21
REMARK                            x       y       z     vdW  Elec       q    Type
REMARK                         _______ _______ _______ _____ _____    ______ ____
ROOT
ATOM      1  N   UNL     1       6.553   5.332  17.909  0.00  0.00    +0.000 NA
ENDROOT
BRANCH   1   3
ATOM      2  C   UNL     1       7.018   7.759  17.342  0.00  0.00    +0.000 C 
ATOM      3  C   UNL     1       7.377   6.528  18.169  0.00  0.00    +0.000 C 
ENDBRANCH   1   3
BRANCH   1   4
ATOM      4  C   UNL     1       5.196   5.621  17.388  0.00  0.00    +0.000 C 
BRANCH   4   5
ATOM      5  C   UNL     1       4.036   5.177  18.256  0.00  0.00    +0.000 A 
ATOM      6  C   UNL     1       3.474   3.904  18.125  0.00  0.00    +0.000 A 
ATOM      7  C   UNL     1       2.283   3.586  18.763  0.00  0.00    +0.000 A 
ATOM      8 CL   UNL     1       1.560   2.045  18.452  0.00  0.00    +0.000 Cl
ATOM      9  C   UNL     1       1.654   4.506  19.608  0.00  0.00    +0.000 A 
ATOM     10  C   UNL     1       2.261   5.742  19.846  0.00  0.00    +0.000 A 
ATOM     11  C   UNL     1       3.448   6.054  19.176  0.00  0.00    +0.000 A 
BRANCH   9  12
ATOM     12  O   UNL     1       0.452   4.173  20.172  0.00  0.00    +0.000 OA
ATOM     13  H   UNL     1       0.342   3.209  20.062  0.00  0.00    +0.000 HD
ENDBRANCH   9  12
BRANCH  10  14
ATOM     14  O   UNL     1       1.839   6.761  20.658  0.00  0.00    +0.000 OA
ATOM     15  C   UNL     1       1.779   8.067  20.109  0.00  0.00    +0.000 C 
ENDBRANCH  10  14
ENDBRANCH   4   5
ENDBRANCH   1   4
BRANCH   1  16
ATOM     16  C   UNL     1       7.333   4.382  17.070  0.00  0.00    +0.000 C 
BRANCH  16  17
ATOM     17  C   UNL     1       7.149   4.527  15.593  0.00  0.00    +0.000 A 
ATOM     18  N   UNL     1       6.462   3.766  14.775  0.00  0.00    +0.000 NA
ATOM     19  C   UNL     1       6.717   4.326  13.552  0.00  0.00    +0.000 A 
ATOM     20  N   UNL     1       7.493   5.418  13.594  0.00  0.00    +0.000 NA
ATOM     21  O   UNL     1       7.778   5.562  14.962  0.00  0.00    +0.000 OA
BRANCH  19  22
ATOM     22  C   UNL     1       6.277   3.678  12.283  0.00  0.00    +0.000 C 
BRANCH  22  23
ATOM     23  O   UNL     1       5.038   2.973  12.424  0.00  0.00    +0.000 OA
ATOM     24  C   UNL     1       4.157   3.246  11.345  0.00  0.00    +0.000 C 
ENDBRANCH  22  23
ENDBRANCH  19  22
ENDBRANCH  16  17
ENDBRANCH   1  16
TORSDOF 9
ENDMDL
MODEL 5
REMARK VINA RESULT:      -6.7      1.651      1.934
REMARK  Name = 
REMARK  12 active torsions:
REMARK  status: ('A' for Active; 'I' for Inactive)
REMARK    1  A    between atoms: C_1  and  C_2
REMARK    2  A    between atoms: C_2  and  N_3
REMARK    3  A    between atoms: N_3  and  C_4
REMARK    4  A    between atoms: N_3  and  C_15
REMARK    5  A    between atoms: C_4  and  C_5
REMARK    6  A    between atoms: C_9  and  O_10
REMARK    7  A    between atoms: C_11  and  O_12
REMARK    8  A    between atoms: O_12  and  C_13
REMARK    9  A    between atoms: C_15  and  C_16
REMARK   10  A    between atoms: C_18  and  C_19
REMARK   11  A    between atoms: C_19  and  O_20
REMARK   12  A    between atoms: O_20  and  C_21
REMARK                            x       y       z     vdW  Elec       q    Type
REMARK                         _______ _______ _______ _____ _____    ______ ____
ROOT
ATOM      1  N   UNL     1       6.327   4.478  18.252  0.00  0.00    +0.000 NA
ENDROOT
BRANCH   1   3
ATOM      2  C   UNL     1       7.891   6.323  19.010  0.00  0.00    +0.000 C 
ATOM      3  C   UNL     1       6.620   5.517  19.258  0.00  0.00    +0.000 C 
ENDBRANCH   1   3
BRANCH   1   4
ATOM      4  C   UNL     1       5.010   4.620  17.586  0.00  0.00    +0.000 C 
BRANCH   4   5
ATOM      5  C   UNL     1       3.897   5.217  18.422  0.00  0.00    +0.000 A 
ATOM      6  C   UNL     1       3.371   6.481  18.139  0.00  0.00    +0.000 A 
ATOM      7  C   UNL     1       2.513   7.108  19.032  0.00  0.00    +0.000 A 
ATOM      8 CL   UNL     1       2.006   8.728  18.698  0.00  0.00    +0.000 Cl
ATOM      9  C   UNL     1       2.100   6.463  20.202  0.00  0.00    +0.000 A 
ATOM     10  C   UNL     1       2.520   5.154  20.447  0.00  0.00    +0.000 A 
ATOM     11  C   UNL     1       3.403   4.546  19.548  0.00  0.00    +0.000 A 
BRANCH   9  12
ATOM     12  O   UNL     1       1.300   7.140  21.084  0.00  0.00    +0.000 OA
ATOM     13  H   UNL     1       0.954   7.922  20.613  0.00  0.00    +0.000 HD
ENDBRANCH   9  12
BRANCH  10  14
ATOM     14  O   UNL     1       2.208   4.336  21.500  0.00  0.00    +0.000 OA
ATOM     15  C   UNL     1       2.409   2.941  21.342  0.00  0.00    +0.000 C 
ENDBRANCH  10  14
ENDBRANCH   4   5
ENDBRANCH   1   4
BRANCH   1  16
ATOM     16  C   UNL     1       7.474   4.382  17.309  0.00  0.00    +0.000 C 
BRANCH  16  17
ATOM     17  C   UNL     1       7.124   4.462  15.858  0.00  0.00    +0.000 A 
ATOM     18  N   UNL     1       6.358   3.664  15.155  0.00  0.00    +0.000 NA
ATOM     19  C   UNL     1       6.467   4.172  13.889  0.00  0.00    +0.000 A 
ATOM     20  N   UNL     1       7.231   5.270  13.798  0.00  0.00    +0.000 NA
ATOM     21  O   UNL     1       7.667   5.474  15.117  0.00  0.00    +0.000 OA
BRANCH  19  22
ATOM     22  C   UNL     1       5.894   3.468  12.706  0.00  0.00    +0.000 C 
BRANCH  22  23
ATOM     23  O   UNL     1       6.859   3.255  11.670  0.00  0.00    +0.000 OA
ATOM     24  C   UNL     1       6.992   1.877  11.356  0.00  0.00    +0.000 C 
ENDBRANCH  22  23
ENDBRANCH  19  22
ENDBRANCH  16  17
ENDBRANCH   1  16
TORSDOF 9
ENDMDL
MODEL 6
REMARK VINA RESULT:      -6.6      2.426      5.046
REMARK  Name = 
REMARK  12 active torsions:
REMARK  status: ('A' for Active; 'I' for Inactive)
REMARK    1  A    between atoms: C_1  and  C_2
REMARK    2  A    between atoms: C_2  and  N_3
REMARK    3  A    between atoms: N_3  and  C_4
REMARK    4  A    between atoms: N_3  and  C_15
REMARK    5  A    between atoms: C_4  and  C_5
REMARK    6  A    between atoms: C_9  and  O_10
REMARK    7  A    between atoms: C_11  and  O_12
REMARK    8  A    between atoms: O_12  and  C_13
REMARK    9  A    between atoms: C_15  and  C_16
REMARK   10  A    between atoms: C_18  and  C_19
REMARK   11  A    between atoms: C_19  and  O_20
REMARK   12  A    between atoms: O_20  and  C_21
REMARK                            x       y       z     vdW  Elec       q    Type
REMARK                         _______ _______ _______ _____ _____    ______ ____
ROOT
ATOM      1  N   UNL     1       5.885   4.865  16.522  0.00  0.00    +0.000 NA
ENDROOT
BRANCH   1   3
ATOM      2  C   UNL     1       5.993   4.113  14.104  0.00  0.00    +0.000 C 
ATOM      3  C   UNL     1       6.688   4.237  15.456  0.00  0.00    +0.000 C 
ENDBRANCH   1   3
BRANCH   1   4
ATOM      4  C   UNL     1       4.664   4.113  16.898  0.00  0.00    +0.000 C 
BRANCH   4   5
ATOM      5  C   UNL     1       3.728   4.798  17.872  0.00  0.00    +0.000 A 
ATOM      6  C   UNL     1       3.297   6.112  17.666  0.00  0.00    +0.000 A 
ATOM      7  C   UNL     1       2.624   6.802  18.665  0.00  0.00    +0.000 A 
ATOM      8 CL   UNL     1       2.240   8.469  18.409  0.00  0.00    +0.000 Cl
ATOM      9  C   UNL     1       2.299   6.178  19.874  0.00  0.00    +0.000 A 
ATOM     10  C   UNL     1       2.617   4.829  20.055  0.00  0.00    +0.000 A 
ATOM     11  C   UNL     1       3.316   4.157  19.047  0.00  0.00    +0.000 A 
BRANCH   9  12
ATOM     12  O   UNL     1       1.687   6.911  20.855  0.00  0.00    +0.000 OA
ATOM     13  H   UNL     1       2.188   6.761  21.679  0.00  0.00    +0.000 HD
ENDBRANCH   9  12
BRANCH  10  14
ATOM     14  O   UNL     1       2.360   4.026  21.134  0.00  0.00    +0.000 OA
ATOM     15  C   UNL     1       2.918   2.722  21.139  0.00  0.00    +0.000 C 
ENDBRANCH  10  14
ENDBRANCH   4   5
ENDBRANCH   1   4
BRANCH   1  16
ATOM     16  C   UNL     1       6.775   5.185  17.672  0.00  0.00    +0.000 C 
BRANCH  16  17
ATOM     17  C   UNL     1       7.272   6.593  17.730  0.00  0.00    +0.000 A 
ATOM     18  N   UNL     1       8.235   7.093  18.467  0.00  0.00    +0.000 NA
ATOM     19  C   UNL     1       8.189   8.427  18.166  0.00  0.00    +0.000 A 
ATOM     20  N   UNL     1       7.270   8.756  17.246  0.00  0.00    +0.000 NA
ATOM     21  O   UNL     1       6.659   7.528  16.945  0.00  0.00    +0.000 OA
BRANCH  19  22
ATOM     22  C   UNL     1       9.003   9.431  18.911  0.00  0.00    +0.000 C 
BRANCH  22  23
ATOM     23  O   UNL     1       9.011  10.715  18.277  0.00  0.00    +0.000 OA
ATOM     24  C   UNL     1       9.568  11.710  19.122  0.00  0.00    +0.000 C 
ENDBRANCH  22  23
ENDBRANCH  19  22
ENDBRANCH  16  17
ENDBRANCH   1  16
TORSDOF 9
ENDMDL
MODEL 7
REMARK VINA RESULT:      -6.6      3.279      7.441
REMARK  Name = 
REMARK  12 active torsions:
REMARK  status: ('A' for Active; 'I' for Inactive)
REMARK    1  A    between atoms: C_1  and  C_2
REMARK    2  A    between atoms: C_2  and  N_3
REMARK    3  A    between atoms: N_3  and  C_4
REMARK    4  A    between atoms: N_3  and  C_15
REMARK    5  A    between atoms: C_4  and  C_5
REMARK    6  A    between atoms: C_9  and  O_10
REMARK    7  A    between atoms: C_11  and  O_12
REMARK    8  A    between atoms: O_12  and  C_13
REMARK    9  A    between atoms: C_15  and  C_16
REMARK   10  A    between atoms: C_18  and  C_19
REMARK   11  A    between atoms: C_19  and  O_20
REMARK   12  A    between atoms: O_20  and  C_21
REMARK                            x       y       z     vdW  Elec       q    Type
REMARK                         _______ _______ _______ _____ _____    ______ ____
ROOT
ATOM      1  N   UNL     1       3.145   3.656  19.711  0.00  0.00    +0.000 NA
ENDROOT
BRANCH   1   3
ATOM      2  C   UNL     1       1.998   2.716  21.767  0.00  0.00    +0.000 C 
ATOM      3  C   UNL     1       3.125   2.604  20.745  0.00  0.00    +0.000 C 
ENDBRANCH   1   3
BRANCH   1   4
ATOM      4  C   UNL     1       3.598   3.199  18.376  0.00  0.00    +0.000 C 
BRANCH   4   5
ATOM      5  C   UNL     1       4.784   3.932  17.783  0.00  0.00    +0.000 A 
ATOM      6  C   UNL     1       5.769   4.500  18.597  0.00  0.00    +0.000 A 
ATOM      7  C   UNL     1       6.726   5.352  18.062  0.00  0.00    +0.000 A 
ATOM      8 CL   UNL     1       7.832   6.137  19.135  0.00  0.00    +0.000 Cl
ATOM      9  C   UNL     1       6.771   5.606  16.687  0.00  0.00    +0.000 A 
ATOM     10  C   UNL     1       5.869   4.956  15.841  0.00  0.00    +0.000 A 
ATOM     11  C   UNL     1       4.897   4.120  16.401  0.00  0.00    +0.000 A 
BRANCH   9  12
ATOM     12  O   UNL     1       7.694   6.497  16.208  0.00  0.00    +0.000 OA
ATOM     13  H   UNL     1       7.261   7.000  15.492  0.00  0.00    +0.000 HD
ENDBRANCH   9  12
BRANCH  10  14
ATOM     14  O   UNL     1       5.765   5.033  14.478  0.00  0.00    +0.000 OA
ATOM     15  C   UNL     1       6.120   3.889  13.718  0.00  0.00    +0.000 C 
ENDBRANCH  10  14
ENDBRANCH   4   5
ENDBRANCH   1   4
BRANCH   1  16
ATOM     16  C   UNL     1       1.826   4.345  19.699  0.00  0.00    +0.000 C 
BRANCH  16  17
ATOM     17  C   UNL     1       1.873   5.832  19.845  0.00  0.00    +0.000 A 
ATOM     18  N   UNL     1       1.546   6.564  20.883  0.00  0.00    +0.000 NA
ATOM     19  C   UNL     1       1.713   7.841  20.421  0.00  0.00    +0.000 A 
ATOM     20  N   UNL     1       2.169   7.919  19.162  0.00  0.00    +0.000 NA
ATOM     21  O   UNL     1       2.287   6.574  18.775  0.00  0.00    +0.000 OA
BRANCH  19  22
ATOM     22  C   UNL     1       1.285   9.028  21.216  0.00  0.00    +0.000 C 
BRANCH  22  23
ATOM     23  O   UNL     1      -0.136   9.096  21.384  0.00  0.00    +0.000 OA
ATOM     24  C   UNL     1      -0.489   9.375  22.731  0.00  0.00    +0.000 C 
ENDBRANCH  22  23
ENDBRANCH  19  22
ENDBRANCH  16  17
ENDBRANCH   1  16
TORSDOF 9
ENDMDL
MODEL 8
REMARK VINA RESULT:      -6.5      3.505      5.875
REMARK  Name = 
REMARK  12 active torsions:
REMARK  status: ('A' for Active; 'I' for Inactive)
REMARK    1  A    between atoms: C_1  and  C_2
REMARK    2  A    between atoms: C_2  and  N_3
REMARK    3  A    between atoms: N_3  and  C_4
REMARK    4  A    between atoms: N_3  and  C_15
REMARK    5  A    between atoms: C_4  and  C_5
REMARK    6  A    between atoms: C_9  and  O_10
REMARK    7  A    between atoms: C_11  and  O_12
REMARK    8  A    between atoms: O_12  and  C_13
REMARK    9  A    between atoms: C_15  and  C_16
REMARK   10  A    between atoms: C_18  and  C_19
REMARK   11  A    between atoms: C_19  and  O_20
REMARK   12  A    between atoms: O_20  and  C_21
REMARK                            x       y       z     vdW  Elec       q    Type
REMARK                         _______ _______ _______ _____ _____    ______ ____
ROOT
ATOM      1  N   UNL     1       1.906   5.566  19.471  0.00  0.00    +0.000 NA
ENDROOT
BRANCH   1   3
ATOM      2  C   UNL     1       1.097   3.412  20.535  0.00  0.00    +0.000 C 
ATOM      3  C   UNL     1       1.732   4.788  20.713  0.00  0.00    +0.000 C 
ENDBRANCH   1   3
BRANCH   1   4
ATOM      4  C   UNL     1       2.636   6.845  19.644  0.00  0.00    +0.000 C 
BRANCH   4   5
ATOM      5  C   UNL     1       1.801   8.045  20.040  0.00  0.00    +0.000 A 
ATOM      6  C   UNL     1       1.473   8.295  21.376  0.00  0.00    +0.000 A 
ATOM      7  C   UNL     1       0.534   9.261  21.708  0.00  0.00    +0.000 A 
ATOM      8 CL   UNL     1       0.064   9.430  23.364  0.00  0.00    +0.000 Cl
ATOM      9  C   UNL     1      -0.056  10.056  20.719  0.00  0.00    +0.000 A 
ATOM     10  C   UNL     1       0.344   9.904  19.389  0.00  0.00    +0.000 A 
ATOM     11  C   UNL     1       1.275   8.909  19.072  0.00  0.00    +0.000 A 
BRANCH   9  12
ATOM     12  O   UNL     1      -1.020  10.958  21.082  0.00  0.00    +0.000 OA
ATOM     13  H   UNL     1      -0.709  11.839  20.797  0.00  0.00    +0.000 HD
ENDBRANCH   9  12
BRANCH  10  14
ATOM     14  O   UNL     1      -0.073  10.596  18.284  0.00  0.00    +0.000 OA
ATOM     15  C   UNL     1      -1.279  10.187  17.660  0.00  0.00    +0.000 C 
ENDBRANCH  10  14
ENDBRANCH   4   5
ENDBRANCH   1   4
BRANCH   1  16
ATOM     16  C   UNL     1       2.480   4.680  18.423  0.00  0.00    +0.000 C 
BRANCH  16  17
ATOM     17  C   UNL     1       3.971   4.691  18.315  0.00  0.00    +0.000 A 
ATOM     18  N   UNL     1       4.718   5.113  17.323  0.00  0.00    +0.000 NA
ATOM     19  C   UNL     1       5.983   4.806  17.742  0.00  0.00    +0.000 A 
ATOM     20  N   UNL     1       6.044   4.255  18.963  0.00  0.00    +0.000 NA
ATOM     21  O   UNL     1       4.698   4.184  19.355  0.00  0.00    +0.000 OA
BRANCH  19  22
ATOM     22  C   UNL     1       7.166   4.949  16.845  0.00  0.00    +0.000 C 
BRANCH  22  23
ATOM     23  O   UNL     1       7.387   6.303  16.434  0.00  0.00    +0.000 OA
ATOM     24  C   UNL     1       7.571   7.163  17.549  0.00  0.00    +0.000 C 
ENDBRANCH  22  23
ENDBRANCH  19  22
ENDBRANCH  16  17
ENDBRANCH   1  16
TORSDOF 9
ENDMDL
MODEL 9
REMARK VINA RESULT:      -6.5      3.219      6.709
REMARK  Name = 
REMARK  12 active torsions:
REMARK  status: ('A' for Active; 'I' for Inactive)
REMARK    1  A    between atoms: C_1  and  C_2
REMARK    2  A    between atoms: C_2  and  N_3
REMARK    3  A    between atoms: N_3  and  C_4
REMARK    4  A    between atoms: N_3  and  C_15
REMARK    5  A    between atoms: C_4  and  C_5
REMARK    6  A    between atoms: C_9  and  O_10
REMARK    7  A    between atoms: C_11  and  O_12
REMARK    8  A    between atoms: O_12  and  C_13
REMARK    9  A    between atoms: C_15  and  C_16
REMARK   10  A    between atoms: C_18  and  C_19
REMARK   11  A    between atoms: C_19  and  O_20
REMARK   12  A    between atoms: O_20  and  C_21
REMARK                            x       y       z     vdW  Elec       q    Type
REMARK                         _______ _______ _______ _____ _____    ______ ____
ROOT
ATOM      1  N   UNL     1       3.178   3.670  19.971  0.00  0.00    +0.000 NA
ENDROOT
BRANCH   1   3
ATOM      2  C   UNL     1       1.374   2.735  21.489  0.00  0.00    +0.000 C 
ATOM      3  C   UNL     1       2.861   2.887  21.181  0.00  0.00    +0.000 C 
ENDBRANCH   1   3
BRANCH   1   4
ATOM      4  C   UNL     1       3.914   2.918  18.927  0.00  0.00    +0.000 C 
BRANCH   4   5
ATOM      5  C   UNL     1       4.948   3.699  18.142  0.00  0.00    +0.000 A 
ATOM      6  C   UNL     1       5.981   4.387  18.784  0.00  0.00    +0.000 A 
ATOM      7  C   UNL     1       6.788   5.272  18.082  0.00  0.00    +0.000 A 
ATOM      8 CL   UNL     1       7.957   6.202  18.953  0.00  0.00    +0.000 Cl
ATOM      9  C   UNL     1       6.631   5.444  16.702  0.00  0.00    +0.000 A 
ATOM     10  C   UNL     1       5.682   4.678  16.021  0.00  0.00    +0.000 A 
ATOM     11  C   UNL     1       4.863   3.809  16.749  0.00  0.00    +0.000 A 
BRANCH   9  12
ATOM     12  O   UNL     1       7.408   6.369  16.058  0.00  0.00    +0.000 OA
ATOM     13  H   UNL     1       8.321   6.250  16.381  0.00  0.00    +0.000 HD
ENDBRANCH   9  12
BRANCH  10  14
ATOM     14  O   UNL     1       5.394   4.663  14.682  0.00  0.00    +0.000 OA
ATOM     15  C   UNL     1       6.278   3.967  13.820  0.00  0.00    +0.000 C 
ENDBRANCH  10  14
ENDBRANCH   4   5
ENDBRANCH   1   4
BRANCH   1  16
ATOM     16  C   UNL     1       1.934   4.324  19.481  0.00  0.00    +0.000 C 
BRANCH  16  17
ATOM     17  C   UNL     1       2.016   5.805  19.293  0.00  0.00    +0.000 A 
ATOM     18  N   UNL     1       2.314   6.478  18.208  0.00  0.00    +0.000 NA
ATOM     19  C   UNL     1       2.314   7.775  18.643  0.00  0.00    +0.000 A 
ATOM     20  N   UNL     1       1.986   7.925  19.935  0.00  0.00    +0.000 NA
ATOM     21  O   UNL     1       1.777   6.607  20.373  0.00  0.00    +0.000 OA
BRANCH  19  22
ATOM     22  C   UNL     1       2.778   8.896  17.777  0.00  0.00    +0.000 C 
BRANCH  22  23
ATOM     23  O   UNL     1       1.759   9.875  17.546  0.00  0.00    +0.000 OA
ATOM     24  C   UNL     1       2.083  11.119  18.148  0.00  0.00    +0.000 C 
ENDBRANCH  22  23
ENDBRANCH  19  22
ENDBRANCH  16  17
ENDBRANCH   1  16
TORSDOF 9
ENDMDL
