MODEL 1
REMARK VINA RESULT:      -6.7      0.000      0.000
REMARK  Name = 
REMARK  4 active torsions:
REMARK  status: ('A' for Active; 'I' for Inactive)
REMARK    1  A    between atoms: C_1  and  C_2
REMARK    2  A    between atoms: C_4  and  C_5
REMARK    3  A    between atoms: C_10  and  S_11
REMARK    4  A    between atoms: S_11  and  C_12
REMARK                            x       y       z     vdW  Elec       q    Type
REMARK                         _______ _______ _______ _____ _____    ______ ____
ROOT
ATOM      1  C   UNL     1       2.680   7.024  18.087  0.00  0.00    +0.000 C 
ATOM      2  C   UNL     1       3.767   6.037  18.390  0.00  0.00    +0.000 A 
ATOM      3  C   UNL     1       5.083   6.297  18.043  0.00  0.00    +0.000 A 
ATOM      4  C   UNL     1       6.037   5.325  18.337  0.00  0.00    +0.000 A 
ATOM      5  N   UNL     1       5.698   4.155  18.934  0.00  0.00    +0.000 NA
ATOM      6  C   UNL     1       4.392   4.012  19.225  0.00  0.00    +0.000 A 
ATOM      7  N   UNL     1       3.398   4.890  18.990  0.00  0.00    +0.000 NA
ENDROOT
BRANCH   4   8
ATOM      8  C   UNL     1       7.498   5.570  17.985  0.00  0.00    +0.000 C 
ATOM      9  F   UNL     1       7.654   6.435  16.937  0.00  0.00    +0.000 F 
ATOM     10  F   UNL     1       8.209   6.115  19.011  0.00  0.00    +0.000 F 
ATOM     11  F   UNL     1       8.156   4.436  17.619  0.00  0.00    +0.000 F 
ENDBRANCH   4   8
BRANCH   6  12
ATOM     12  S   UNL     1       3.912   2.457  19.963  0.00  0.00    +0.000 S 
ATOM     13  C   UNL     1       3.431   1.469  18.572  0.00  0.00    +0.000 C 
ATOM     14  O   UNL     1       5.096   1.837  20.537  0.00  0.00    +0.000 OA
ATOM     15  O   UNL     1       2.716   2.676  20.760  0.00  0.00    +0.000 OA
ENDBRANCH   6  12
TORSDOF 2
ENDMDL
MODEL 2
REMARK VINA RESULT:      -6.7      0.189      1.030
REMARK  Name = 
REMARK  4 active torsions:
REMARK  status: ('A' for Active; 'I' for Inactive)
REMARK    1  A    between atoms: C_1  and  C_2
REMARK    2  A    between atoms: C_4  and  C_5
REMARK    3  A    between atoms: C_10  and  S_11
REMARK    4  A    between atoms: S_11  and  C_12
REMARK                            x       y       z     vdW  Elec       q    Type
REMARK                         _______ _______ _______ _____ _____    ______ ____
ROOT
ATOM      1  C   UNL     1       2.795   7.010  17.989  0.00  0.00    +0.000 C 
ATOM      2  C   UNL     1       3.856   6.020  18.365  0.00  0.00    +0.000 A 
ATOM      3  C   UNL     1       5.190   6.260  18.079  0.00  0.00    +0.000 A 
ATOM      4  C   UNL     1       6.117   5.286  18.439  0.00  0.00    +0.000 A 
ATOM      5  N   UNL     1       5.737   4.131  19.042  0.00  0.00    +0.000 NA
ATOM      6  C   UNL     1       4.418   4.007  19.270  0.00  0.00    +0.000 A 
ATOM      7  N   UNL     1       3.446   4.889  18.969  0.00  0.00    +0.000 NA
ENDROOT
BRANCH   4   8
ATOM      8  C   UNL     1       7.597   5.510  18.156  0.00  0.00    +0.000 C 
ATOM      9  F   UNL     1       8.312   5.822  19.280  0.00  0.00    +0.000 F 
ATOM     10  F   UNL     1       8.211   4.414  17.631  0.00  0.00    +0.000 F 
ATOM     11  F   UNL     1       7.824   6.533  17.287  0.00  0.00    +0.000 F 
ENDBRANCH   4   8
BRANCH   6  12
ATOM     12  S   UNL     1       3.886   2.472  20.015  0.00  0.00    +0.000 S 
ATOM     13  C   UNL     1       3.252   1.544  18.644  0.00  0.00    +0.000 C 
ATOM     14  O   UNL     1       5.061   1.765  20.500  0.00  0.00    +0.000 OA
ATOM     15  O   UNL     1       2.761   2.752  20.892  0.00  0.00    +0.000 OA
ENDBRANCH   6  12
TORSDOF 2
ENDMDL
MODEL 3
REMARK VINA RESULT:      -6.6      0.958      1.171
REMARK  Name = 
REMARK  4 active torsions:
REMARK  status: ('A' for Active; 'I' for Inactive)
REMARK    1  A    between atoms: C_1  and  C_2
REMARK    2  A    between atoms: C_4  and  C_5
REMARK    3  A    between atoms: C_10  and  S_11
REMARK    4  A    between atoms: S_11  and  C_12
REMARK                            x       y       z     vdW  Elec       q    Type
REMARK                         _______ _______ _______ _____ _____    ______ ____
ROOT
ATOM      1  C   UNL     1       2.709   6.908  18.265  0.00  0.00    +0.000 C 
ATOM      2  C   UNL     1       3.811   5.924  18.521  0.00  0.00    +0.000 A 
ATOM      3  C   UNL     1       5.115   6.201  18.146  0.00  0.00    +0.000 A 
ATOM      4  C   UNL     1       6.083   5.232  18.396  0.00  0.00    +0.000 A 
ATOM      5  N   UNL     1       5.768   4.047  18.979  0.00  0.00    +0.000 NA
ATOM      6  C   UNL     1       4.472   3.889  19.300  0.00  0.00    +0.000 A 
ATOM      7  N   UNL     1       3.465   4.763  19.107  0.00  0.00    +0.000 NA
ENDROOT
BRANCH   4   8
ATOM      8  C   UNL     1       7.534   5.495  18.013  0.00  0.00    +0.000 C 
ATOM      9  F   UNL     1       7.654   6.255  16.881  0.00  0.00    +0.000 F 
ATOM     10  F   UNL     1       8.225   6.167  18.974  0.00  0.00    +0.000 F 
ATOM     11  F   UNL     1       8.233   4.355  17.759  0.00  0.00    +0.000 F 
ENDBRANCH   4   8
BRANCH   6  12
ATOM     12  S   UNL     1       4.022   2.316  20.019  0.00  0.00    +0.000 S 
ATOM     13  C   UNL     1       2.684   2.725  21.108  0.00  0.00    +0.000 C 
ATOM     14  O   UNL     1       3.474   1.471  18.969  0.00  0.00    +0.000 OA
ATOM     15  O   UNL     1       5.122   1.861  20.854  0.00  0.00    +0.000 OA
ENDBRANCH   6  12
TORSDOF 2
ENDMDL
MODEL 4
REMARK VINA RESULT:      -6.6      3.722      4.603
REMARK  Name = 
REMARK  4 active torsions:
REMARK  status: ('A' for Active; 'I' for Inactive)
REMARK    1  A    between atoms: C_1  and  C_2
REMARK    2  A    between atoms: C_4  and  C_5
REMARK    3  A    between atoms: C_10  and  S_11
REMARK    4  A    between atoms: S_11  and  C_12
REMARK                            x       y       z     vdW  Elec       q    Type
REMARK                         _______ _______ _______ _____ _____    ______ ____
ROOT
ATOM      1  C   UNL     1       2.716   7.001  18.105  0.00  0.00    +0.000 C 
ATOM      2  C   UNL     1       3.653   5.878  18.438  0.00  0.00    +0.000 A 
ATOM      3  C   UNL     1       3.183   4.700  18.996  0.00  0.00    +0.000 A 
ATOM      4  C   UNL     1       4.114   3.709  19.298  0.00  0.00    +0.000 A 
ATOM      5  N   UNL     1       5.439   3.884  19.067  0.00  0.00    +0.000 NA
ATOM      6  C   UNL     1       5.779   5.066  18.524  0.00  0.00    +0.000 A 
ATOM      7  N   UNL     1       4.959   6.082  18.189  0.00  0.00    +0.000 NA
ENDROOT
BRANCH   4   8
ATOM      8  C   UNL     1       3.644   2.391  19.902  0.00  0.00    +0.000 C 
ATOM      9  F   UNL     1       4.516   1.892  20.830  0.00  0.00    +0.000 F 
ATOM     10  F   UNL     1       2.450   2.497  20.548  0.00  0.00    +0.000 F 
ATOM     11  F   UNL     1       3.496   1.404  18.977  0.00  0.00    +0.000 F 
ENDBRANCH   4   8
BRANCH   6  12
ATOM     12  S   UNL     1       7.524   5.343  18.259  0.00  0.00    +0.000 S 
ATOM     13  C   UNL     1       7.597   7.019  17.688  0.00  0.00    +0.000 C 
ATOM     14  O   UNL     1       8.195   5.303  19.550  0.00  0.00    +0.000 OA
ATOM     15  O   UNL     1       7.962   4.501  17.158  0.00  0.00    +0.000 OA
ENDBRANCH   6  12
TORSDOF 2
ENDMDL
MODEL 5
REMARK VINA RESULT:      -6.6      3.956      4.751
REMARK  Name = 
REMARK  4 active torsions:
REMARK  status: ('A' for Active; 'I' for Inactive)
REMARK    1  A    between atoms: C_1  and  C_2
REMARK    2  A    between atoms: C_4  and  C_5
REMARK    3  A    between atoms: C_10  and  S_11
REMARK    4  A    between atoms: S_11  and  C_12
REMARK                            x       y       z     vdW  Elec       q    Type
REMARK                         _______ _______ _______ _____ _____    ______ ____
ROOT
ATOM      1  C   UNL     1       2.845   7.484  18.047  0.00  0.00    +0.000 C 
ATOM      2  C   UNL     1       3.587   6.200  17.825  0.00  0.00    +0.000 A 
ATOM      3  C   UNL     1       3.042   4.985  18.208  0.00  0.00    +0.000 A 
ATOM      4  C   UNL     1       3.798   3.836  17.989  0.00  0.00    +0.000 A 
ATOM      5  N   UNL     1       5.032   3.894  17.428  0.00  0.00    +0.000 NA
ATOM      6  C   UNL     1       5.458   5.125  17.096  0.00  0.00    +0.000 A 
ATOM      7  N   UNL     1       4.804   6.292  17.259  0.00  0.00    +0.000 NA
ENDROOT
BRANCH   4   8
ATOM      8  C   UNL     1       3.237   2.476  18.384  0.00  0.00    +0.000 C 
ATOM      9  F   UNL     1       3.753   1.452  17.638  0.00  0.00    +0.000 F 
ATOM     10  F   UNL     1       3.498   2.147  19.679  0.00  0.00    +0.000 F 
ATOM     11  F   UNL     1       1.887   2.392  18.229  0.00  0.00    +0.000 F 
ENDBRANCH   4   8
BRANCH   6  12
ATOM     12  S   UNL     1       7.102   5.233  16.405  0.00  0.00    +0.000 S 
ATOM     13  C   UNL     1       6.884   4.694  14.730  0.00  0.00    +0.000 C 
ATOM     14  O   UNL     1       7.487   6.635  16.354  0.00  0.00    +0.000 OA
ATOM     15  O   UNL     1       7.943   4.246  17.061  0.00  0.00    +0.000 OA
ENDBRANCH   6  12
TORSDOF 2
ENDMDL
MODEL 6
REMARK VINA RESULT:      -6.6      3.873      4.704
REMARK  Name = 
REMARK  4 active torsions:
REMARK  status: ('A' for Active; 'I' for Inactive)
REMARK    1  A    between atoms: C_1  and  C_2
REMARK    2  A    between atoms: C_4  and  C_5
REMARK    3  A    between atoms: C_10  and  S_11
REMARK    4  A    between atoms: S_11  and  C_12
REMARK                            x       y       z     vdW  Elec       q    Type
REMARK                         _______ _______ _______ _____ _____    ______ ____
ROOT
ATOM      1  C   UNL     1       2.779   7.294  18.113  0.00  0.00    +0.000 C 
ATOM      2  C   UNL     1       3.598   6.046  17.972  0.00  0.00    +0.000 A 
ATOM      3  C   UNL     1       3.151   4.838  18.483  0.00  0.00    +0.000 A 
ATOM      4  C   UNL     1       3.974   3.725  18.333  0.00  0.00    +0.000 A 
ATOM      5  N   UNL     1       5.180   3.811  17.717  0.00  0.00    +0.000 NA
ATOM      6  C   UNL     1       5.510   5.033  17.262  0.00  0.00    +0.000 A 
ATOM      7  N   UNL     1       4.785   6.165  17.349  0.00  0.00    +0.000 NA
ENDROOT
BRANCH   4   8
ATOM      8  C   UNL     1       3.521   2.373  18.867  0.00  0.00    +0.000 C 
ATOM      9  F   UNL     1       2.327   2.437  19.531  0.00  0.00    +0.000 F 
ATOM     10  F   UNL     1       3.339   1.446  17.886  0.00  0.00    +0.000 F 
ATOM     11  F   UNL     1       4.399   1.828  19.754  0.00  0.00    +0.000 F 
ENDBRANCH   4   8
BRANCH   6  12
ATOM     12  S   UNL     1       7.117   5.184  16.495  0.00  0.00    +0.000 S 
ATOM     13  C   UNL     1       6.835   4.643  14.830  0.00  0.00    +0.000 C 
ATOM     14  O   UNL     1       7.464   6.596  16.431  0.00  0.00    +0.000 OA
ATOM     15  O   UNL     1       8.012   4.217  17.107  0.00  0.00    +0.000 OA
ENDBRANCH   6  12
TORSDOF 2
ENDMDL
MODEL 7
REMARK VINA RESULT:      -6.5      3.614      4.568
REMARK  Name = 
REMARK  4 active torsions:
REMARK  status: ('A' for Active; 'I' for Inactive)
REMARK    1  A    between atoms: C_1  and  C_2
REMARK    2  A    between atoms: C_4  and  C_5
REMARK    3  A    between atoms: C_10  and  S_11
REMARK    4  A    between atoms: S_11  and  C_12
REMARK                            x       y       z     vdW  Elec       q    Type
REMARK                         _______ _______ _______ _____ _____    ______ ____
ROOT
ATOM      1  C   UNL     1       2.641   7.498  17.813  0.00  0.00    +0.000 C 
ATOM      2  C   UNL     1       3.416   6.232  18.028  0.00  0.00    +0.000 A 
ATOM      3  C   UNL     1       2.774   5.006  18.090  0.00  0.00    +0.000 A 
ATOM      4  C   UNL     1       3.556   3.875  18.314  0.00  0.00    +0.000 A 
ATOM      5  N   UNL     1       4.900   3.961  18.476  0.00  0.00    +0.000 NA
ATOM      6  C   UNL     1       5.413   5.202  18.397  0.00  0.00    +0.000 A 
ATOM      7  N   UNL     1       4.748   6.352  18.178  0.00  0.00    +0.000 NA
ENDROOT
BRANCH   4   8
ATOM      8  C   UNL     1       2.898   2.502  18.378  0.00  0.00    +0.000 C 
ATOM      9  F   UNL     1       3.568   1.557  17.650  0.00  0.00    +0.000 F 
ATOM     10  F   UNL     1       2.831   2.003  19.643  0.00  0.00    +0.000 F 
ATOM     11  F   UNL     1       1.626   2.498  17.893  0.00  0.00    +0.000 F 
ENDBRANCH   4   8
BRANCH   6  12
ATOM     12  S   UNL     1       7.174   5.348  18.661  0.00  0.00    +0.000 S 
ATOM     13  C   UNL     1       7.577   6.906  17.917  0.00  0.00    +0.000 C 
ATOM     14  O   UNL     1       7.414   5.484  20.090  0.00  0.00    +0.000 OA
ATOM     15  O   UNL     1       7.844   4.321  17.880  0.00  0.00    +0.000 OA
ENDBRANCH   6  12
TORSDOF 2
ENDMDL
MODEL 8
REMARK VINA RESULT:      -6.5      1.093      1.705
REMARK  Name = 
REMARK  4 active torsions:
REMARK  status: ('A' for Active; 'I' for Inactive)
REMARK    1  A    between atoms: C_1  and  C_2
REMARK    2  A    between atoms: C_4  and  C_5
REMARK    3  A    between atoms: C_10  and  S_11
REMARK    4  A    between atoms: S_11  and  C_12
REMARK                            x       y       z     vdW  Elec       q    Type
REMARK                         _______ _______ _______ _____ _____    ______ ____
ROOT
ATOM      1  C   UNL     1       2.648   7.086  18.185  0.00  0.00    +0.000 C 
ATOM      2  C   UNL     1       3.705   6.025  18.256  0.00  0.00    +0.000 A 
ATOM      3  C   UNL     1       4.949   6.218  17.678  0.00  0.00    +0.000 A 
ATOM      4  C   UNL     1       5.874   5.180  17.764  0.00  0.00    +0.000 A 
ATOM      5  N   UNL     1       5.573   4.011  18.384  0.00  0.00    +0.000 NA
ATOM      6  C   UNL     1       4.337   3.937  18.908  0.00  0.00    +0.000 A 
ATOM      7  N   UNL     1       3.377   4.881  18.884  0.00  0.00    +0.000 NA
ENDROOT
BRANCH   4   8
ATOM      8  C   UNL     1       7.259   5.350  17.154  0.00  0.00    +0.000 C 
ATOM      9  F   UNL     1       8.112   4.331  17.481  0.00  0.00    +0.000 F 
ATOM     10  F   UNL     1       7.241   5.382  15.793  0.00  0.00    +0.000 F 
ATOM     11  F   UNL     1       7.884   6.489  17.559  0.00  0.00    +0.000 F 
ENDBRANCH   4   8
BRANCH   6  12
ATOM     12  S   UNL     1       3.898   2.387  19.682  0.00  0.00    +0.000 S 
ATOM     13  C   UNL     1       2.646   2.846  20.849  0.00  0.00    +0.000 C 
ATOM     14  O   UNL     1       3.262   1.540  18.685  0.00  0.00    +0.000 OA
ATOM     15  O   UNL     1       5.040   1.917  20.450  0.00  0.00    +0.000 OA
ENDBRANCH   6  12
TORSDOF 2
ENDMDL
MODEL 9
REMARK VINA RESULT:      -6.4      3.744      4.633
REMARK  Name = 
REMARK  4 active torsions:
REMARK  status: ('A' for Active; 'I' for Inactive)
REMARK    1  A    between atoms: C_1  and  C_2
REMARK    2  A    between atoms: C_4  and  C_5
REMARK    3  A    between atoms: C_10  and  S_11
REMARK    4  A    between atoms: S_11  and  C_12
REMARK                            x       y       z     vdW  Elec       q    Type
REMARK                         _______ _______ _______ _____ _____    ______ ____
ROOT
ATOM      1  C   UNL     1       2.471   7.259  18.074  0.00  0.00    +0.000 C 
ATOM      2  C   UNL     1       3.413   6.092  18.093  0.00  0.00    +0.000 A 
ATOM      3  C   UNL     1       2.968   4.822  18.421  0.00  0.00    +0.000 A 
ATOM      4  C   UNL     1       3.903   3.790  18.439  0.00  0.00    +0.000 A 
ATOM      5  N   UNL     1       5.211   4.012  18.155  0.00  0.00    +0.000 NA
ATOM      6  C   UNL     1       5.528   5.284  17.851  0.00  0.00    +0.000 A 
ATOM      7  N   UNL     1       4.701   6.346  17.799  0.00  0.00    +0.000 NA
ENDROOT
BRANCH   4   8
ATOM      8  C   UNL     1       3.460   2.374  18.782  0.00  0.00    +0.000 C 
ATOM      9  F   UNL     1       4.373   1.702  19.549  0.00  0.00    +0.000 F 
ATOM     10  F   UNL     1       2.297   2.337  19.490  0.00  0.00    +0.000 F 
ATOM     11  F   UNL     1       3.268   1.594  17.683  0.00  0.00    +0.000 F 
ENDBRANCH   4   8
BRANCH   6  12
ATOM     12  S   UNL     1       7.254   5.612  17.526  0.00  0.00    +0.000 S 
ATOM     13  C   UNL     1       7.939   5.865  19.142  0.00  0.00    +0.000 C 
ATOM     14  O   UNL     1       7.859   4.402  16.992  0.00  0.00    +0.000 OA
ATOM     15  O   UNL     1       7.357   6.880  16.821  0.00  0.00    +0.000 OA
ENDBRANCH   6  12
TORSDOF 2
ENDMDL
