MODEL 1
REMARK VINA RESULT:      -7.9      0.000      0.000
REMARK  Name = 
REMARK  5 active torsions:
REMARK  status: ('A' for Active; 'I' for Inactive)
REMARK    1  A    between atoms: C_2  and  C_5
REMARK    2  A    between atoms: N_3  and  O_4
REMARK    3  A    between atoms: C_10  and  N_11
REMARK    4  A    between atoms: N_11  and  C_12
REMARK    5  A    between atoms: C_12  and  C_13
REMARK                            x       y       z     vdW  Elec       q    Type
REMARK                         _______ _______ _______ _____ _____    ______ ____
ROOT
ATOM      1  C   UNL     1       5.911   4.984  15.940  0.00  0.00    +0.000 A 
ATOM      2  C   UNL     1       5.173   6.167  16.028  0.00  0.00    +0.000 A 
ATOM      3  C   UNL     1       4.514   6.473  17.214  0.00  0.00    +0.000 A 
ATOM      4  C   UNL     1       4.601   5.603  18.308  0.00  0.00    +0.000 A 
ATOM      5  F   UNL     1       3.943   5.949  19.425  0.00  0.00    +0.000 F 
ATOM      6  C   UNL     1       5.371   4.416  18.253  0.00  0.00    +0.000 A 
ATOM      7  C   UNL     1       6.009   4.127  17.043  0.00  0.00    +0.000 A 
ENDROOT
BRANCH   1   9
ATOM      8  O   UNL     1       7.546   5.330  14.277  0.00  0.00    +0.000 OA
ATOM      9  C   UNL     1       6.602   4.670  14.667  0.00  0.00    +0.000 C 
ATOM     10  N   UNL     1       6.092   3.603  13.953  0.00  0.00    +0.000 N 
ATOM     11  H   UNL     1       5.131   3.296  14.035  0.00  0.00    +0.000 HD
BRANCH  10  12
ATOM     12  O   UNL     1       6.728   3.349  12.716  0.00  0.00    +0.000 OA
ATOM     13  H   UNL     1       7.573   3.844  12.811  0.00  0.00    +0.000 HD
ENDBRANCH  10  12
ENDBRANCH   1   9
BRANCH   6  14
ATOM     14  N   UNL     1       5.426   3.504  19.327  0.00  0.00    +0.000 N 
ATOM     15  H   UNL     1       5.299   3.973  20.224  0.00  0.00    +0.000 HD
BRANCH  14  16
ATOM     16  C   UNL     1       4.625   2.275  19.229  0.00  0.00    +0.000 C 
BRANCH  16  17
ATOM     17  C   UNL     1       3.179   2.577  19.546  0.00  0.00    +0.000 A 
ATOM     18  C   UNL     1       2.187   2.547  18.556  0.00  0.00    +0.000 A 
ATOM     19  C   UNL     1       0.865   2.888  18.868  0.00  0.00    +0.000 A 
ATOM     20  C   UNL     1       0.525   3.248  20.170  0.00  0.00    +0.000 A 
ATOM     21  C   UNL     1       1.498   3.257  21.166  0.00  0.00    +0.000 A 
ATOM     22  C   UNL     1       2.814   2.911  20.858  0.00  0.00    +0.000 A 
ENDBRANCH  16  17
ENDBRANCH  14  16
ENDBRANCH   6  14
TORSDOF 5
ENDMDL
MODEL 2
REMARK VINA RESULT:      -7.9      0.071      1.109
REMARK  Name = 
REMARK  5 active torsions:
REMARK  status: ('A' for Active; 'I' for Inactive)
REMARK    1  A    between atoms: C_2  and  C_5
REMARK    2  A    between atoms: N_3  and  O_4
REMARK    3  A    between atoms: C_10  and  N_11
REMARK    4  A    between atoms: N_11  and  C_12
REMARK    5  A    between atoms: C_12  and  C_13
REMARK                            x       y       z     vdW  Elec       q    Type
REMARK                         _______ _______ _______ _____ _____    ______ ____
ROOT
ATOM      1  C   UNL     1       5.926   5.000  15.904  0.00  0.00    +0.000 A 
ATOM      2  C   UNL     1       5.173   6.175  15.976  0.00  0.00    +0.000 A 
ATOM      3  C   UNL     1       4.511   6.489  17.157  0.00  0.00    +0.000 A 
ATOM      4  C   UNL     1       4.609   5.635  18.264  0.00  0.00    +0.000 A 
ATOM      5  F   UNL     1       3.946   5.988  19.375  0.00  0.00    +0.000 F 
ATOM      6  C   UNL     1       5.393   4.457  18.224  0.00  0.00    +0.000 A 
ATOM      7  C   UNL     1       6.035   4.160  17.018  0.00  0.00    +0.000 A 
ENDROOT
BRANCH   1   9
ATOM      8  O   UNL     1       7.572   5.331  14.247  0.00  0.00    +0.000 OA
ATOM      9  C   UNL     1       6.622   4.678  14.635  0.00  0.00    +0.000 C 
ATOM     10  N   UNL     1       6.109   3.613  13.922  0.00  0.00    +0.000 N 
ATOM     11  H   UNL     1       5.145   3.312  14.001  0.00  0.00    +0.000 HD
BRANCH  10  12
ATOM     12  O   UNL     1       6.749   3.351  12.689  0.00  0.00    +0.000 OA
ATOM     13  H   UNL     1       5.986   3.236  12.079  0.00  0.00    +0.000 HD
ENDBRANCH  10  12
ENDBRANCH   1   9
BRANCH   6  14
ATOM     14  N   UNL     1       5.460   3.560  19.310  0.00  0.00    +0.000 N 
ATOM     15  H   UNL     1       5.357   4.044  20.203  0.00  0.00    +0.000 HD
BRANCH  14  16
ATOM     16  C   UNL     1       4.642   2.340  19.247  0.00  0.00    +0.000 C 
BRANCH  16  17
ATOM     17  C   UNL     1       3.200   2.672  19.553  0.00  0.00    +0.000 A 
ATOM     18  C   UNL     1       2.785   3.027  20.845  0.00  0.00    +0.000 A 
ATOM     19  C   UNL     1       1.432   3.273  21.111  0.00  0.00    +0.000 A 
ATOM     20  C   UNL     1       0.491   3.178  20.090  0.00  0.00    +0.000 A 
ATOM     21  C   UNL     1       0.896   2.849  18.798  0.00  0.00    +0.000 A 
ATOM     22  C   UNL     1       2.244   2.611  18.530  0.00  0.00    +0.000 A 
ENDBRANCH  16  17
ENDBRANCH  14  16
ENDBRANCH   6  14
TORSDOF 5
ENDMDL
MODEL 3
REMARK VINA RESULT:      -7.7      0.839      1.501
REMARK  Name = 
REMARK  5 active torsions:
REMARK  status: ('A' for Active; 'I' for Inactive)
REMARK    1  A    between atoms: C_2  and  C_5
REMARK    2  A    between atoms: N_3  and  O_4
REMARK    3  A    between atoms: C_10  and  N_11
REMARK    4  A    between atoms: N_11  and  C_12
REMARK    5  A    between atoms: C_12  and  C_13
REMARK                            x       y       z     vdW  Elec       q    Type
REMARK                         _______ _______ _______ _____ _____    ______ ____
ROOT
ATOM      1  C   UNL     1       5.623   5.155  16.250  0.00  0.00    +0.000 A 
ATOM      2  C   UNL     1       4.844   6.292  16.476  0.00  0.00    +0.000 A 
ATOM      3  C   UNL     1       4.241   6.470  17.716  0.00  0.00    +0.000 A 
ATOM      4  C   UNL     1       4.423   5.517  18.727  0.00  0.00    +0.000 A 
ATOM      5  F   UNL     1       3.815   5.740  19.901  0.00  0.00    +0.000 F 
ATOM      6  C   UNL     1       5.236   4.375  18.531  0.00  0.00    +0.000 A 
ATOM      7  C   UNL     1       5.817   4.215  17.270  0.00  0.00    +0.000 A 
ENDROOT
BRANCH   1   9
ATOM      8  O   UNL     1       5.711   4.343  14.037  0.00  0.00    +0.000 OA
ATOM      9  C   UNL     1       6.255   4.979  14.920  0.00  0.00    +0.000 C 
ATOM     10  N   UNL     1       7.497   5.561  14.763  0.00  0.00    +0.000 N 
ATOM     11  H   UNL     1       8.119   5.746  15.540  0.00  0.00    +0.000 HD
BRANCH  10  12
ATOM     12  O   UNL     1       8.110   5.339  13.508  0.00  0.00    +0.000 OA
ATOM     13  H   UNL     1       8.181   4.359  13.481  0.00  0.00    +0.000 HD
ENDBRANCH  10  12
ENDBRANCH   1   9
BRANCH   6  14
ATOM     14  N   UNL     1       5.388   3.380  19.519  0.00  0.00    +0.000 N 
ATOM     15  H   UNL     1       5.349   3.776  20.459  0.00  0.00    +0.000 HD
BRANCH  14  16
ATOM     16  C   UNL     1       4.573   2.162  19.401  0.00  0.00    +0.000 C 
BRANCH  16  17
ATOM     17  C   UNL     1       3.119   2.490  19.645  0.00  0.00    +0.000 A 
ATOM     18  C   UNL     1       2.653   2.876  20.910  0.00  0.00    +0.000 A 
ATOM     19  C   UNL     1       1.291   3.118  21.120  0.00  0.00    +0.000 A 
ATOM     20  C   UNL     1       0.388   2.988  20.068  0.00  0.00    +0.000 A 
ATOM     21  C   UNL     1       0.842   2.629  18.801  0.00  0.00    +0.000 A 
ATOM     22  C   UNL     1       2.201   2.394  18.589  0.00  0.00    +0.000 A 
ENDBRANCH  16  17
ENDBRANCH  14  16
ENDBRANCH   6  14
TORSDOF 5
ENDMDL
MODEL 4
REMARK VINA RESULT:      -7.7      1.573      2.054
REMARK  Name = 
REMARK  5 active torsions:
REMARK  status: ('A' for Active; 'I' for Inactive)
REMARK    1  A    between atoms: C_2  and  C_5
REMARK    2  A    between atoms: N_3  and  O_4
REMARK    3  A    between atoms: C_10  and  N_11
REMARK    4  A    between atoms: N_11  and  C_12
REMARK    5  A    between atoms: C_12  and  C_13
REMARK                            x       y       z     vdW  Elec       q    Type
REMARK                         _______ _______ _______ _____ _____    ______ ____
ROOT
ATOM      1  C   UNL     1       6.511   4.903  15.876  0.00  0.00    +0.000 A 
ATOM      2  C   UNL     1       7.521   4.540  16.770  0.00  0.00    +0.000 A 
ATOM      3  C   UNL     1       7.351   4.786  18.128  0.00  0.00    +0.000 A 
ATOM      4  C   UNL     1       6.171   5.384  18.589  0.00  0.00    +0.000 A 
ATOM      5  F   UNL     1       6.064   5.597  19.909  0.00  0.00    +0.000 F 
ATOM      6  C   UNL     1       5.120   5.728  17.706  0.00  0.00    +0.000 A 
ATOM      7  C   UNL     1       5.326   5.484  16.345  0.00  0.00    +0.000 A 
ENDROOT
BRANCH   1   9
ATOM      8  O   UNL     1       7.241   5.457  13.703  0.00  0.00    +0.000 OA
ATOM      9  C   UNL     1       6.711   4.639  14.431  0.00  0.00    +0.000 C 
ATOM     10  N   UNL     1       6.241   3.425  13.971  0.00  0.00    +0.000 N 
ATOM     11  H   UNL     1       5.491   2.918  14.426  0.00  0.00    +0.000 HD
BRANCH  10  12
ATOM     12  O   UNL     1       6.390   3.210  12.582  0.00  0.00    +0.000 OA
ATOM     13  H   UNL     1       6.727   4.081  12.271  0.00  0.00    +0.000 HD
ENDBRANCH  10  12
ENDBRANCH   1   9
BRANCH   6  14
ATOM     14  N   UNL     1       3.949   6.378  18.147  0.00  0.00    +0.000 N 
ATOM     15  H   UNL     1       4.007   7.388  18.011  0.00  0.00    +0.000 HD
BRANCH  14  16
ATOM     16  C   UNL     1       2.654   5.837  17.708  0.00  0.00    +0.000 C 
BRANCH  16  17
ATOM     17  C   UNL     1       2.161   4.813  18.703  0.00  0.00    +0.000 A 
ATOM     18  C   UNL     1       1.491   3.651  18.293  0.00  0.00    +0.000 A 
ATOM     19  C   UNL     1       0.994   2.748  19.241  0.00  0.00    +0.000 A 
ATOM     20  C   UNL     1       1.173   2.993  20.600  0.00  0.00    +0.000 A 
ATOM     21  C   UNL     1       1.858   4.132  21.018  0.00  0.00    +0.000 A 
ATOM     22  C   UNL     1       2.359   5.028  20.075  0.00  0.00    +0.000 A 
ENDBRANCH  16  17
ENDBRANCH  14  16
ENDBRANCH   6  14
TORSDOF 5
ENDMDL
MODEL 5
REMARK VINA RESULT:      -7.7      1.477      2.193
REMARK  Name = 
REMARK  5 active torsions:
REMARK  status: ('A' for Active; 'I' for Inactive)
REMARK    1  A    between atoms: C_2  and  C_5
REMARK    2  A    between atoms: N_3  and  O_4
REMARK    3  A    between atoms: C_10  and  N_11
REMARK    4  A    between atoms: N_11  and  C_12
REMARK    5  A    between atoms: C_12  and  C_13
REMARK                            x       y       z     vdW  Elec       q    Type
REMARK                         _______ _______ _______ _____ _____    ______ ____
ROOT
ATOM      1  C   UNL     1       6.518   4.898  15.846  0.00  0.00    +0.000 A 
ATOM      2  C   UNL     1       7.470   4.613  16.828  0.00  0.00    +0.000 A 
ATOM      3  C   UNL     1       7.150   4.809  18.167  0.00  0.00    +0.000 A 
ATOM      4  C   UNL     1       5.879   5.281  18.521  0.00  0.00    +0.000 A 
ATOM      5  F   UNL     1       5.628   5.453  19.827  0.00  0.00    +0.000 F 
ATOM      6  C   UNL     1       4.887   5.544  17.546  0.00  0.00    +0.000 A 
ATOM      7  C   UNL     1       5.243   5.353  16.208  0.00  0.00    +0.000 A 
ENDROOT
BRANCH   1   9
ATOM      8  O   UNL     1       7.682   5.406  13.859  0.00  0.00    +0.000 OA
ATOM      9  C   UNL     1       6.878   4.689  14.424  0.00  0.00    +0.000 C 
ATOM     10  N   UNL     1       6.229   3.650  13.786  0.00  0.00    +0.000 N 
ATOM     11  H   UNL     1       5.324   3.303  14.082  0.00  0.00    +0.000 HD
BRANCH  10  12
ATOM     12  O   UNL     1       6.543   3.496  12.416  0.00  0.00    +0.000 OA
ATOM     13  H   UNL     1       5.834   4.020  11.980  0.00  0.00    +0.000 HD
ENDBRANCH  10  12
ENDBRANCH   1   9
BRANCH   6  14
ATOM     14  N   UNL     1       3.622   6.069  17.881  0.00  0.00    +0.000 N 
ATOM     15  H   UNL     1       3.493   7.007  17.501  0.00  0.00    +0.000 HD
BRANCH  14  16
ATOM     16  C   UNL     1       2.443   5.219  17.662  0.00  0.00    +0.000 C 
BRANCH  16  17
ATOM     17  C   UNL     1       2.096   4.481  18.934  0.00  0.00    +0.000 A 
ATOM     18  C   UNL     1       2.432   4.993  20.196  0.00  0.00    +0.000 A 
ATOM     19  C   UNL     1       2.149   4.261  21.355  0.00  0.00    +0.000 A 
ATOM     20  C   UNL     1       1.522   3.021  21.263  0.00  0.00    +0.000 A 
ATOM     21  C   UNL     1       1.163   2.514  20.016  0.00  0.00    +0.000 A 
ATOM     22  C   UNL     1       1.437   3.246  18.861  0.00  0.00    +0.000 A 
ENDBRANCH  16  17
ENDBRANCH  14  16
ENDBRANCH   6  14
TORSDOF 5
ENDMDL
MODEL 6
REMARK VINA RESULT:      -7.5      2.741      3.691
REMARK  Name = 
REMARK  5 active torsions:
REMARK  status: ('A' for Active; 'I' for Inactive)
REMARK    1  A    between atoms: C_2  and  C_5
REMARK    2  A    between atoms: N_3  and  O_4
REMARK    3  A    between atoms: C_10  and  N_11
REMARK    4  A    between atoms: N_11  and  C_12
REMARK    5  A    between atoms: C_12  and  C_13
REMARK                            x       y       z     vdW  Elec       q    Type
REMARK                         _______ _______ _______ _____ _____    ______ ____
ROOT
ATOM      1  C   UNL     1       6.788   5.366  17.607  0.00  0.00    +0.000 A 
ATOM      2  C   UNL     1       7.336   5.552  16.335  0.00  0.00    +0.000 A 
ATOM      3  C   UNL     1       6.637   5.103  15.220  0.00  0.00    +0.000 A 
ATOM      4  C   UNL     1       5.393   4.478  15.377  0.00  0.00    +0.000 A 
ATOM      5  F   UNL     1       4.767   4.064  14.266  0.00  0.00    +0.000 F 
ATOM      6  C   UNL     1       4.803   4.311  16.653  0.00  0.00    +0.000 A 
ATOM      7  C   UNL     1       5.536   4.758  17.756  0.00  0.00    +0.000 A 
ENDROOT
BRANCH   1   9
ATOM      8  O   UNL     1       8.204   6.870  18.745  0.00  0.00    +0.000 OA
ATOM      9  C   UNL     1       7.548   5.846  18.786  0.00  0.00    +0.000 C 
ATOM     10  N   UNL     1       7.478   5.050  19.911  0.00  0.00    +0.000 N 
ATOM     11  H   UNL     1       7.283   4.056  19.870  0.00  0.00    +0.000 HD
BRANCH  10  12
ATOM     12  O   UNL     1       8.251   5.492  21.010  0.00  0.00    +0.000 OA
ATOM     13  H   UNL     1       7.912   6.405  21.148  0.00  0.00    +0.000 HD
ENDBRANCH  10  12
ENDBRANCH   1   9
BRANCH   6  14
ATOM     14  N   UNL     1       3.577   3.638  16.833  0.00  0.00    +0.000 N 
ATOM     15  H   UNL     1       3.091   3.500  15.946  0.00  0.00    +0.000 HD
BRANCH  14  16
ATOM     16  C   UNL     1       3.573   2.422  17.658  0.00  0.00    +0.000 C 
BRANCH  16  17
ATOM     17  C   UNL     1       2.806   2.669  18.936  0.00  0.00    +0.000 A 
ATOM     18  C   UNL     1       3.419   2.571  20.193  0.00  0.00    +0.000 A 
ATOM     19  C   UNL     1       2.670   2.749  21.363  0.00  0.00    +0.000 A 
ATOM     20  C   UNL     1       1.311   3.038  21.284  0.00  0.00    +0.000 A 
ATOM     21  C   UNL     1       0.696   3.161  20.040  0.00  0.00    +0.000 A 
ATOM     22  C   UNL     1       1.443   2.991  18.874  0.00  0.00    +0.000 A 
ENDBRANCH  16  17
ENDBRANCH  14  16
ENDBRANCH   6  14
TORSDOF 5
ENDMDL
MODEL 7
REMARK VINA RESULT:      -7.5      2.745      3.582
REMARK  Name = 
REMARK  5 active torsions:
REMARK  status: ('A' for Active; 'I' for Inactive)
REMARK    1  A    between atoms: C_2  and  C_5
REMARK    2  A    between atoms: N_3  and  O_4
REMARK    3  A    between atoms: C_10  and  N_11
REMARK    4  A    between atoms: N_11  and  C_12
REMARK    5  A    between atoms: C_12  and  C_13
REMARK                            x       y       z     vdW  Elec       q    Type
REMARK                         _______ _______ _______ _____ _____    ______ ____
ROOT
ATOM      1  C   UNL     1       6.817   5.366  17.630  0.00  0.00    +0.000 A 
ATOM      2  C   UNL     1       7.373   5.533  16.358  0.00  0.00    +0.000 A 
ATOM      3  C   UNL     1       6.673   5.084  15.244  0.00  0.00    +0.000 A 
ATOM      4  C   UNL     1       5.419   4.478  15.401  0.00  0.00    +0.000 A 
ATOM      5  F   UNL     1       4.792   4.063  14.291  0.00  0.00    +0.000 F 
ATOM      6  C   UNL     1       4.822   4.331  16.676  0.00  0.00    +0.000 A 
ATOM      7  C   UNL     1       5.556   4.777  17.779  0.00  0.00    +0.000 A 
ENDROOT
BRANCH   1   9
ATOM      8  O   UNL     1       8.231   6.873  18.767  0.00  0.00    +0.000 OA
ATOM      9  C   UNL     1       7.580   5.846  18.807  0.00  0.00    +0.000 C 
ATOM     10  N   UNL     1       7.517   5.046  19.930  0.00  0.00    +0.000 N 
ATOM     11  H   UNL     1       7.326   4.052  19.887  0.00  0.00    +0.000 HD
BRANCH  10  12
ATOM     12  O   UNL     1       8.291   5.488  21.027  0.00  0.00    +0.000 OA
ATOM     13  H   UNL     1       7.712   5.271  21.792  0.00  0.00    +0.000 HD
ENDBRANCH  10  12
ENDBRANCH   1   9
BRANCH   6  14
ATOM     14  N   UNL     1       3.585   3.677  16.857  0.00  0.00    +0.000 N 
ATOM     15  H   UNL     1       3.089   3.561  15.973  0.00  0.00    +0.000 HD
BRANCH  14  16
ATOM     16  C   UNL     1       3.567   2.448  17.664  0.00  0.00    +0.000 C 
BRANCH  16  17
ATOM     17  C   UNL     1       2.765   2.673  18.925  0.00  0.00    +0.000 A 
ATOM     18  C   UNL     1       1.413   3.044  18.881  0.00  0.00    +0.000 A 
ATOM     19  C   UNL     1       0.711   3.301  20.064  0.00  0.00    +0.000 A 
ATOM     20  C   UNL     1       1.348   3.178  21.296  0.00  0.00    +0.000 A 
ATOM     21  C   UNL     1       2.684   2.787  21.353  0.00  0.00    +0.000 A 
ATOM     22  C   UNL     1       3.383   2.523  20.174  0.00  0.00    +0.000 A 
ENDBRANCH  16  17
ENDBRANCH  14  16
ENDBRANCH   6  14
TORSDOF 5
ENDMDL
MODEL 8
REMARK VINA RESULT:      -7.4      1.993      2.680
REMARK  Name = 
REMARK  5 active torsions:
REMARK  status: ('A' for Active; 'I' for Inactive)
REMARK    1  A    between atoms: C_2  and  C_5
REMARK    2  A    between atoms: N_3  and  O_4
REMARK    3  A    between atoms: C_10  and  N_11
REMARK    4  A    between atoms: N_11  and  C_12
REMARK    5  A    between atoms: C_12  and  C_13
REMARK                            x       y       z     vdW  Elec       q    Type
REMARK                         _______ _______ _______ _____ _____    ______ ____
ROOT
ATOM      1  C   UNL     1       6.356   4.499  15.763  0.00  0.00    +0.000 A 
ATOM      2  C   UNL     1       7.161   5.027  16.775  0.00  0.00    +0.000 A 
ATOM      3  C   UNL     1       6.761   4.899  18.101  0.00  0.00    +0.000 A 
ATOM      4  C   UNL     1       5.566   4.237  18.412  0.00  0.00    +0.000 A 
ATOM      5  F   UNL     1       5.231   4.146  19.707  0.00  0.00    +0.000 F 
ATOM      6  C   UNL     1       4.752   3.665  17.405  0.00  0.00    +0.000 A 
ATOM      7  C   UNL     1       5.171   3.824  16.081  0.00  0.00    +0.000 A 
ENDROOT
BRANCH   1   9
ATOM      8  O   UNL     1       6.291   3.998  13.459  0.00  0.00    +0.000 OA
ATOM      9  C   UNL     1       6.794   4.650  14.355  0.00  0.00    +0.000 C 
ATOM     10  N   UNL     1       7.814   5.555  14.136  0.00  0.00    +0.000 N 
ATOM     11  H   UNL     1       8.486   5.808  14.851  0.00  0.00    +0.000 HD
BRANCH  10  12
ATOM     12  O   UNL     1       8.257   5.649  12.797  0.00  0.00    +0.000 OA
ATOM     13  H   UNL     1       7.681   6.360  12.437  0.00  0.00    +0.000 HD
ENDBRANCH  10  12
ENDBRANCH   1   9
BRANCH   6  14
ATOM     14  N   UNL     1       3.521   3.042  17.695  0.00  0.00    +0.000 N 
ATOM     15  H   UNL     1       3.520   2.629  18.629  0.00  0.00    +0.000 HD
BRANCH  14  16
ATOM     16  C   UNL     1       2.287   3.796  17.426  0.00  0.00    +0.000 C 
BRANCH  16  17
ATOM     17  C   UNL     1       2.186   4.970  18.372  0.00  0.00    +0.000 A 
ATOM     18  C   UNL     1       2.446   6.281  17.947  0.00  0.00    +0.000 A 
ATOM     19  C   UNL     1       2.401   7.343  18.859  0.00  0.00    +0.000 A 
ATOM     20  C   UNL     1       2.085   7.104  20.193  0.00  0.00    +0.000 A 
ATOM     21  C   UNL     1       1.802   5.809  20.621  0.00  0.00    +0.000 A 
ATOM     22  C   UNL     1       1.839   4.752  19.712  0.00  0.00    +0.000 A 
ENDBRANCH  16  17
ENDBRANCH  14  16
ENDBRANCH   6  14
TORSDOF 5
ENDMDL
MODEL 9
REMARK VINA RESULT:      -7.4      2.015      2.863
REMARK  Name = 
REMARK  5 active torsions:
REMARK  status: ('A' for Active; 'I' for Inactive)
REMARK    1  A    between atoms: C_2  and  C_5
REMARK    2  A    between atoms: N_3  and  O_4
REMARK    3  A    between atoms: C_10  and  N_11
REMARK    4  A    between atoms: N_11  and  C_12
REMARK    5  A    between atoms: C_12  and  C_13
REMARK                            x       y       z     vdW  Elec       q    Type
REMARK                         _______ _______ _______ _____ _____    ______ ____
ROOT
ATOM      1  C   UNL     1       6.268   4.457  16.015  0.00  0.00    +0.000 A 
ATOM      2  C   UNL     1       7.031   4.903  17.098  0.00  0.00    +0.000 A 
ATOM      3  C   UNL     1       6.553   4.717  18.391  0.00  0.00    +0.000 A 
ATOM      4  C   UNL     1       5.323   4.080  18.599  0.00  0.00    +0.000 A 
ATOM      5  F   UNL     1       4.913   3.930  19.866  0.00  0.00    +0.000 F 
ATOM      6  C   UNL     1       4.551   3.590  17.518  0.00  0.00    +0.000 A 
ATOM      7  C   UNL     1       5.048   3.805  16.230  0.00  0.00    +0.000 A 
ENDROOT
BRANCH   1   9
ATOM      8  O   UNL     1       6.310   4.093  13.686  0.00  0.00    +0.000 OA
ATOM      9  C   UNL     1       6.790   4.669  14.644  0.00  0.00    +0.000 C 
ATOM     10  N   UNL     1       7.857   5.537  14.534  0.00  0.00    +0.000 N 
ATOM     11  H   UNL     1       8.499   5.719  15.297  0.00  0.00    +0.000 HD
BRANCH  10  12
ATOM     12  O   UNL     1       8.377   5.688  13.228  0.00  0.00    +0.000 OA
ATOM     13  H   UNL     1       7.935   6.511  12.921  0.00  0.00    +0.000 HD
ENDBRANCH  10  12
ENDBRANCH   1   9
BRANCH   6  14
ATOM     14  N   UNL     1       3.286   2.994  17.706  0.00  0.00    +0.000 N 
ATOM     15  H   UNL     1       3.241   2.480  18.587  0.00  0.00    +0.000 HD
BRANCH  14  16
ATOM     16  C   UNL     1       2.093   3.826  17.493  0.00  0.00    +0.000 C 
BRANCH  16  17
ATOM     17  C   UNL     1       2.111   5.002  18.442  0.00  0.00    +0.000 A 
ATOM     18  C   UNL     1       1.807   4.853  19.803  0.00  0.00    +0.000 A 
ATOM     19  C   UNL     1       1.775   5.970  20.648  0.00  0.00    +0.000 A 
ATOM     20  C   UNL     1       2.056   7.236  20.142  0.00  0.00    +0.000 A 
ATOM     21  C   UNL     1       2.382   7.392  18.796  0.00  0.00    +0.000 A 
ATOM     22  C   UNL     1       2.422   6.279  17.956  0.00  0.00    +0.000 A 
ENDBRANCH  16  17
ENDBRANCH  14  16
ENDBRANCH   6  14
TORSDOF 5
ENDMDL
