MODEL 1
REMARK VINA RESULT:      -7.5      0.000      0.000
REMARK  Name = 
REMARK  8 active torsions:
REMARK  status: ('A' for Active; 'I' for Inactive)
REMARK    1  A    between atoms: C_1  and  C_2
REMARK    2  A    between atoms: C_6  and  N_7
REMARK    3  A    between atoms: C_8  and  C_10
REMARK    4  A    between atoms: C_10  and  S_11
REMARK    5  A    between atoms: S_11  and  C_12
REMARK    6  A    between atoms: C_15  and  C_16
REMARK    7  A    between atoms: N_19  and  N_20
REMARK    8  A    between atoms: C_21  and  C_22
REMARK                            x       y       z     vdW  Elec       q    Type
REMARK                         _______ _______ _______ _____ _____    ______ ____
ROOT
ATOM      1  C   UNL     1       2.572   3.874  21.272  0.00  0.00    +0.000 C 
ENDROOT
BRANCH   1   3
ATOM      2  N   UNL     1       2.548   6.182  20.445  0.00  0.00    +0.000 N 
ATOM      3  C   UNL     1       2.006   4.910  20.311  0.00  0.00    +0.000 C 
ATOM      4  O   UNL     1       1.154   4.575  19.481  0.00  0.00    +0.000 OA
ATOM      5  H   UNL     1       3.377   6.251  21.020  0.00  0.00    +0.000 HD
BRANCH   2  11
ATOM      6  C   UNL     1       0.325  10.687  19.966  0.00  0.00    +0.000 C 
ATOM      7  C   UNL     1       1.113   9.517  19.431  0.00  0.00    +0.000 A 
ATOM      8  C   UNL     1       1.586   9.600  18.116  0.00  0.00    +0.000 A 
ATOM      9  C   UNL     1       2.335   8.567  17.575  0.00  0.00    +0.000 A 
ATOM     10  C   UNL     1       2.632   7.447  18.348  0.00  0.00    +0.000 A 
ATOM     11  C   UNL     1       2.197   7.329  19.677  0.00  0.00    +0.000 A 
ATOM     12  C   UNL     1       1.400   8.367  20.226  0.00  0.00    +0.000 A 
ATOM     13  C   UNL     1       0.864   8.346  21.639  0.00  0.00    +0.000 C 
ENDBRANCH   2  11
ENDBRANCH   1   3
BRANCH   1  14
ATOM     14  S   UNL     1       3.286   2.463  20.370  0.00  0.00    +0.000 S 
BRANCH  14  15
ATOM     15  C   UNL     1       4.375   3.297  19.268  0.00  0.00    +0.000 A 
ATOM     16  N   UNL     1       5.474   3.798  19.734  0.00  0.00    +0.000 NA
ATOM     17  N   UNL     1       6.380   4.432  18.873  0.00  0.00    +0.000 NA
ATOM     18  C   UNL     1       6.079   4.552  17.616  0.00  0.00    +0.000 A 
ATOM     19  C   UNL     1       7.035   5.211  16.660  0.00  0.00    +0.000 C 
ATOM     20  C   UNL     1       4.785   4.051  17.037  0.00  0.00    +0.000 A 
ATOM     21  O   UNL     1       4.506   4.293  15.869  0.00  0.00    +0.000 OA
ATOM     22  N   UNL     1       3.998   3.359  17.937  0.00  0.00    +0.000 N 
BRANCH  22  23
ATOM     23  N   UNL     1       2.796   2.747  17.439  0.00  0.00    +0.000 N 
ATOM     24  H   UNL     1       2.505   3.282  16.615  0.00  0.00    +0.000 HD
ATOM     25  H   UNL     1       2.066   2.883  18.142  0.00  0.00    +0.000 HD
ENDBRANCH  22  23
ENDBRANCH  14  15
ENDBRANCH   1  14
TORSDOF 5
ENDMDL
MODEL 2
REMARK VINA RESULT:      -7.4      1.609      2.435
REMARK  Name = 
REMARK  8 active torsions:
REMARK  status: ('A' for Active; 'I' for Inactive)
REMARK    1  A    between atoms: C_1  and  C_2
REMARK    2  A    between atoms: C_6  and  N_7
REMARK    3  A    between atoms: C_8  and  C_10
REMARK    4  A    between atoms: C_10  and  S_11
REMARK    5  A    between atoms: S_11  and  C_12
REMARK    6  A    between atoms: C_15  and  C_16
REMARK    7  A    between atoms: N_19  and  N_20
REMARK    8  A    between atoms: C_21  and  C_22
REMARK                            x       y       z     vdW  Elec       q    Type
REMARK                         _______ _______ _______ _____ _____    ______ ____
ROOT
ATOM      1  C   UNL     1       3.117   2.943  19.441  0.00  0.00    +0.000 C 
ENDROOT
BRANCH   1   3
ATOM      2  N   UNL     1       2.807   5.327  19.920  0.00  0.00    +0.000 N 
ATOM      3  C   UNL     1       2.263   4.197  19.323  0.00  0.00    +0.000 C 
ATOM      4  O   UNL     1       1.193   4.153  18.706  0.00  0.00    +0.000 OA
ATOM      5  H   UNL     1       3.776   5.256  20.200  0.00  0.00    +0.000 HD
BRANCH   2  11
ATOM      6  C   UNL     1       1.903   9.848  17.867  0.00  0.00    +0.000 C 
ATOM      7  C   UNL     1       1.777   8.827  18.970  0.00  0.00    +0.000 A 
ATOM      8  C   UNL     1       0.970   9.153  20.067  0.00  0.00    +0.000 A 
ATOM      9  C   UNL     1       0.796   8.248  21.102  0.00  0.00    +0.000 A 
ATOM     10  C   UNL     1       1.416   7.001  21.045  0.00  0.00    +0.000 A 
ATOM     11  C   UNL     1       2.217   6.623  19.957  0.00  0.00    +0.000 A 
ATOM     12  C   UNL     1       2.428   7.558  18.910  0.00  0.00    +0.000 A 
ATOM     13  C   UNL     1       3.278   7.270  17.695  0.00  0.00    +0.000 C 
ENDBRANCH   2  11
ENDBRANCH   1   3
BRANCH   1  14
ATOM     14  S   UNL     1       4.125   2.692  17.945  0.00  0.00    +0.000 S 
BRANCH  14  15
ATOM     15  C   UNL     1       5.319   3.968  18.137  0.00  0.00    +0.000 A 
ATOM     16  N   UNL     1       5.598   4.390  19.329  0.00  0.00    +0.000 NA
ATOM     17  N   UNL     1       6.576   5.377  19.517  0.00  0.00    +0.000 NA
ATOM     18  C   UNL     1       7.159   5.893  18.479  0.00  0.00    +0.000 A 
ATOM     19  C   UNL     1       8.224   6.943  18.644  0.00  0.00    +0.000 C 
ATOM     20  C   UNL     1       6.822   5.490  17.070  0.00  0.00    +0.000 A 
ATOM     21  O   UNL     1       7.322   6.092  16.128  0.00  0.00    +0.000 OA
ATOM     22  N   UNL     1       5.919   4.448  16.986  0.00  0.00    +0.000 N 
BRANCH  22  23
ATOM     23  N   UNL     1       5.628   3.923  15.679  0.00  0.00    +0.000 N 
ATOM     24  H   UNL     1       5.938   4.622  14.998  0.00  0.00    +0.000 HD
ATOM     25  H   UNL     1       4.610   3.865  15.589  0.00  0.00    +0.000 HD
ENDBRANCH  22  23
ENDBRANCH  14  15
ENDBRANCH   1  14
TORSDOF 5
ENDMDL
MODEL 3
REMARK VINA RESULT:      -7.3      1.252      1.341
REMARK  Name = 
REMARK  8 active torsions:
REMARK  status: ('A' for Active; 'I' for Inactive)
REMARK    1  A    between atoms: C_1  and  C_2
REMARK    2  A    between atoms: C_6  and  N_7
REMARK    3  A    between atoms: C_8  and  C_10
REMARK    4  A    between atoms: C_10  and  S_11
REMARK    5  A    between atoms: S_11  and  C_12
REMARK    6  A    between atoms: C_15  and  C_16
REMARK    7  A    between atoms: N_19  and  N_20
REMARK    8  A    between atoms: C_21  and  C_22
REMARK                            x       y       z     vdW  Elec       q    Type
REMARK                         _______ _______ _______ _____ _____    ______ ____
ROOT
ATOM      1  C   UNL     1       2.870   3.886  20.239  0.00  0.00    +0.000 C 
ENDROOT
BRANCH   1   3
ATOM      2  N   UNL     1       2.531   6.306  20.048  0.00  0.00    +0.000 N 
ATOM      3  C   UNL     1       2.328   5.069  19.450  0.00  0.00    +0.000 C 
ATOM      4  O   UNL     1       1.785   4.878  18.356  0.00  0.00    +0.000 OA
ATOM      5  H   UNL     1       3.169   6.319  20.832  0.00  0.00    +0.000 HD
BRANCH   2  11
ATOM      6  C   UNL     1       0.180  10.747  20.514  0.00  0.00    +0.000 C 
ATOM      7  C   UNL     1       0.977   9.727  19.740  0.00  0.00    +0.000 A 
ATOM      8  C   UNL     1       1.399  10.074  18.450  0.00  0.00    +0.000 A 
ATOM      9  C   UNL     1       2.153   9.188  17.698  0.00  0.00    +0.000 A 
ATOM     10  C   UNL     1       2.506   7.951  18.232  0.00  0.00    +0.000 A 
ATOM     11  C   UNL     1       2.123   7.567  19.526  0.00  0.00    +0.000 A 
ATOM     12  C   UNL     1       1.322   8.455  20.289  0.00  0.00    +0.000 A 
ATOM     13  C   UNL     1       0.839   8.148  21.688  0.00  0.00    +0.000 C 
ENDBRANCH   2  11
ENDBRANCH   1   3
BRANCH   1  14
ATOM     14  S   UNL     1       4.103   2.960  19.270  0.00  0.00    +0.000 S 
BRANCH  14  15
ATOM     15  C   UNL     1       5.165   4.267  18.760  0.00  0.00    +0.000 A 
ATOM     16  N   UNL     1       6.005   4.759  19.612  0.00  0.00    +0.000 NA
ATOM     17  N   UNL     1       6.893   5.772  19.223  0.00  0.00    +0.000 NA
ATOM     18  C   UNL     1       6.825   6.241  18.014  0.00  0.00    +0.000 A 
ATOM     19  C   UNL     1       7.772   7.316  17.557  0.00  0.00    +0.000 C 
ATOM     20  C   UNL     1       5.820   5.753  17.007  0.00  0.00    +0.000 A 
ATOM     21  O   UNL     1       5.728   6.311  15.920  0.00  0.00    +0.000 OA
ATOM     22  N   UNL     1       5.053   4.693  17.447  0.00  0.00    +0.000 N 
BRANCH  22  23
ATOM     23  N   UNL     1       4.147   4.091  16.508  0.00  0.00    +0.000 N 
ATOM     24  H   UNL     1       4.402   4.438  15.578  0.00  0.00    +0.000 HD
ATOM     25  H   UNL     1       3.211   4.456  16.704  0.00  0.00    +0.000 HD
ENDBRANCH  22  23
ENDBRANCH  14  15
ENDBRANCH   1  14
TORSDOF 5
ENDMDL
MODEL 4
REMARK VINA RESULT:      -7.3      3.477      5.438
REMARK  Name = 
REMARK  8 active torsions:
REMARK  status: ('A' for Active; 'I' for Inactive)
REMARK    1  A    between atoms: C_1  and  C_2
REMARK    2  A    between atoms: C_6  and  N_7
REMARK    3  A    between atoms: C_8  and  C_10
REMARK    4  A    between atoms: C_10  and  S_11
REMARK    5  A    between atoms: S_11  and  C_12
REMARK    6  A    between atoms: C_15  and  C_16
REMARK    7  A    between atoms: N_19  and  N_20
REMARK    8  A    between atoms: C_21  and  C_22
REMARK                            x       y       z     vdW  Elec       q    Type
REMARK                         _______ _______ _______ _____ _____    ______ ____
ROOT
ATOM      1  C   UNL     1       7.387   4.659  17.551  0.00  0.00    +0.000 C 
ENDROOT
BRANCH   1   3
ATOM      2  N   UNL     1       5.046   4.648  18.278  0.00  0.00    +0.000 N 
ATOM      3  C   UNL     1       6.364   4.861  18.660  0.00  0.00    +0.000 C 
ATOM      4  O   UNL     1       6.745   5.162  19.797  0.00  0.00    +0.000 OA
ATOM      5  H   UNL     1       4.912   4.207  17.378  0.00  0.00    +0.000 HD
BRANCH   2  11
ATOM      6  C   UNL     1       1.752   2.746  21.594  0.00  0.00    +0.000 C 
ATOM      7  C   UNL     1       2.288   3.854  20.722  0.00  0.00    +0.000 A 
ATOM      8  C   UNL     1       1.657   5.103  20.796  0.00  0.00    +0.000 A 
ATOM      9  C   UNL     1       2.118   6.166  20.036  0.00  0.00    +0.000 A 
ATOM     10  C   UNL     1       3.223   5.998  19.205  0.00  0.00    +0.000 A 
ATOM     11  C   UNL     1       3.900   4.772  19.114  0.00  0.00    +0.000 A 
ATOM     12  C   UNL     1       3.413   3.669  19.862  0.00  0.00    +0.000 A 
ATOM     13  C   UNL     1       4.049   2.299  19.836  0.00  0.00    +0.000 C 
ENDBRANCH   2  11
ENDBRANCH   1   3
BRANCH   1  14
ATOM     14  S   UNL     1       7.254   5.965  16.289  0.00  0.00    +0.000 S 
BRANCH  14  15
ATOM     15  C   UNL     1       6.589   5.051  14.942  0.00  0.00    +0.000 A 
ATOM     16  N   UNL     1       5.452   4.451  15.094  0.00  0.00    +0.000 NA
ATOM     17  N   UNL     1       4.877   3.749  14.025  0.00  0.00    +0.000 NA
ATOM     18  C   UNL     1       5.522   3.670  12.901  0.00  0.00    +0.000 A 
ATOM     19  C   UNL     1       4.928   2.940  11.728  0.00  0.00    +0.000 C 
ATOM     20  C   UNL     1       6.877   4.289  12.695  0.00  0.00    +0.000 A 
ATOM     21  O   UNL     1       7.487   4.086  11.652  0.00  0.00    +0.000 OA
ATOM     22  N   UNL     1       7.321   5.038  13.767  0.00  0.00    +0.000 N 
BRANCH  22  23
ATOM     23  N   UNL     1       8.555   5.758  13.611  0.00  0.00    +0.000 N 
ATOM     24  H   UNL     1       9.254   5.290  14.197  0.00  0.00    +0.000 HD
ATOM     25  H   UNL     1       8.422   6.690  14.011  0.00  0.00    +0.000 HD
ENDBRANCH  22  23
ENDBRANCH  14  15
ENDBRANCH   1  14
TORSDOF 5
ENDMDL
MODEL 5
REMARK VINA RESULT:      -7.2      1.064      1.184
REMARK  Name = 
REMARK  8 active torsions:
REMARK  status: ('A' for Active; 'I' for Inactive)
REMARK    1  A    between atoms: C_1  and  C_2
REMARK    2  A    between atoms: C_6  and  N_7
REMARK    3  A    between atoms: C_8  and  C_10
REMARK    4  A    between atoms: C_10  and  S_11
REMARK    5  A    between atoms: S_11  and  C_12
REMARK    6  A    between atoms: C_15  and  C_16
REMARK    7  A    between atoms: N_19  and  N_20
REMARK    8  A    between atoms: C_21  and  C_22
REMARK                            x       y       z     vdW  Elec       q    Type
REMARK                         _______ _______ _______ _____ _____    ______ ____
ROOT
ATOM      1  C   UNL     1       2.306   3.843  21.897  0.00  0.00    +0.000 C 
ENDROOT
BRANCH   1   3
ATOM      2  N   UNL     1       2.572   5.940  20.655  0.00  0.00    +0.000 N 
ATOM      3  C   UNL     1       1.774   4.822  20.859  0.00  0.00    +0.000 C 
ATOM      4  O   UNL     1       0.724   4.567  20.259  0.00  0.00    +0.000 OA
ATOM      5  H   UNL     1       3.496   5.905  21.063  0.00  0.00    +0.000 HD
BRANCH   2  11
ATOM      6  C   UNL     1       0.655  10.486  19.593  0.00  0.00    +0.000 C 
ATOM      7  C   UNL     1       1.372   9.213  19.219  0.00  0.00    +0.000 A 
ATOM      8  C   UNL     1       1.868   9.105  17.913  0.00  0.00    +0.000 A 
ATOM      9  C   UNL     1       2.555   7.969  17.516  0.00  0.00    +0.000 A 
ATOM     10  C   UNL     1       2.767   6.934  18.424  0.00  0.00    +0.000 A 
ATOM     11  C   UNL     1       2.307   7.005  19.748  0.00  0.00    +0.000 A 
ATOM     12  C   UNL     1       1.573   8.151  20.151  0.00  0.00    +0.000 A 
ATOM     13  C   UNL     1       1.017   8.335  21.545  0.00  0.00    +0.000 C 
ENDBRANCH   2  11
ENDBRANCH   1   3
BRANCH   1  14
ATOM     14  S   UNL     1       2.907   2.315  21.110  0.00  0.00    +0.000 S 
BRANCH  14  15
ATOM     15  C   UNL     1       3.506   2.948  19.582  0.00  0.00    +0.000 A 
ATOM     16  N   UNL     1       4.639   3.572  19.564  0.00  0.00    +0.000 NA
ATOM     17  N   UNL     1       5.162   4.051  18.355  0.00  0.00    +0.000 NA
ATOM     18  C   UNL     1       4.472   3.903  17.266  0.00  0.00    +0.000 A 
ATOM     19  C   UNL     1       5.009   4.389  15.948  0.00  0.00    +0.000 C 
ATOM     20  C   UNL     1       3.118   3.248  17.243  0.00  0.00    +0.000 A 
ATOM     21  O   UNL     1       2.465   3.238  16.207  0.00  0.00    +0.000 OA
ATOM     22  N   UNL     1       2.727   2.724  18.459  0.00  0.00    +0.000 N 
BRANCH  22  23
ATOM     23  N   UNL     1       1.498   1.980  18.500  0.00  0.00    +0.000 N 
ATOM     24  H   UNL     1       0.790   2.590  18.922  0.00  0.00    +0.000 HD
ATOM     25  H   UNL     1       1.629   1.201  19.150  0.00  0.00    +0.000 HD
ENDBRANCH  22  23
ENDBRANCH  14  15
ENDBRANCH   1  14
TORSDOF 5
ENDMDL
MODEL 6
REMARK VINA RESULT:      -7.2      0.913      1.830
REMARK  Name = 
REMARK  8 active torsions:
REMARK  status: ('A' for Active; 'I' for Inactive)
REMARK    1  A    between atoms: C_1  and  C_2
REMARK    2  A    between atoms: C_6  and  N_7
REMARK    3  A    between atoms: C_8  and  C_10
REMARK    4  A    between atoms: C_10  and  S_11
REMARK    5  A    between atoms: S_11  and  C_12
REMARK    6  A    between atoms: C_15  and  C_16
REMARK    7  A    between atoms: N_19  and  N_20
REMARK    8  A    between atoms: C_21  and  C_22
REMARK                            x       y       z     vdW  Elec       q    Type
REMARK                         _______ _______ _______ _____ _____    ______ ____
ROOT
ATOM      1  C   UNL     1       2.703   3.312  20.933  0.00  0.00    +0.000 C 
ENDROOT
BRANCH   1   3
ATOM      2  N   UNL     1       2.472   5.744  20.724  0.00  0.00    +0.000 N 
ATOM      3  C   UNL     1       1.832   4.516  20.602  0.00  0.00    +0.000 C 
ATOM      4  O   UNL     1       0.666   4.345  20.233  0.00  0.00    +0.000 OA
ATOM      5  H   UNL     1       3.476   5.711  20.831  0.00  0.00    +0.000 HD
BRANCH   2  11
ATOM      6  C   UNL     1       1.683   9.764  17.777  0.00  0.00    +0.000 C 
ATOM      7  C   UNL     1       1.505   8.983  19.055  0.00  0.00    +0.000 A 
ATOM      8  C   UNL     1       0.657   9.520  20.032  0.00  0.00    +0.000 A 
ATOM      9  C   UNL     1       0.435   8.839  21.218  0.00  0.00    +0.000 A 
ATOM     10  C   UNL     1       1.048   7.607  21.435  0.00  0.00    +0.000 A 
ATOM     11  C   UNL     1       1.890   7.020  20.478  0.00  0.00    +0.000 A 
ATOM     12  C   UNL     1       2.149   7.728  19.276  0.00  0.00    +0.000 A 
ATOM     13  C   UNL     1       3.046   7.205  18.178  0.00  0.00    +0.000 C 
ENDBRANCH   2  11
ENDBRANCH   1   3
BRANCH   1  14
ATOM     14  S   UNL     1       3.262   2.471  19.418  0.00  0.00    +0.000 S 
BRANCH  14  15
ATOM     15  C   UNL     1       4.465   3.612  18.835  0.00  0.00    +0.000 A 
ATOM     16  N   UNL     1       5.366   4.047  19.657  0.00  0.00    +0.000 NA
ATOM     17  N   UNL     1       6.364   4.925  19.211  0.00  0.00    +0.000 NA
ATOM     18  C   UNL     1       6.341   5.333  17.980  0.00  0.00    +0.000 A 
ATOM     19  C   UNL     1       7.404   6.262  17.462  0.00  0.00    +0.000 C 
ATOM     20  C   UNL     1       5.277   4.915  17.003  0.00  0.00    +0.000 A 
ATOM     21  O   UNL     1       5.242   5.421  15.887  0.00  0.00    +0.000 OA
ATOM     22  N   UNL     1       4.394   3.978  17.502  0.00  0.00    +0.000 N 
BRANCH  22  23
ATOM     23  N   UNL     1       3.414   3.439  16.598  0.00  0.00    +0.000 N 
ATOM     24  H   UNL     1       3.925   2.980  15.838  0.00  0.00    +0.000 HD
ATOM     25  H   UNL     1       2.916   4.226  16.175  0.00  0.00    +0.000 HD
ENDBRANCH  22  23
ENDBRANCH  14  15
ENDBRANCH   1  14
TORSDOF 5
ENDMDL
MODEL 7
REMARK VINA RESULT:      -7.0      2.036      3.885
REMARK  Name = 
REMARK  8 active torsions:
REMARK  status: ('A' for Active; 'I' for Inactive)
REMARK    1  A    between atoms: C_1  and  C_2
REMARK    2  A    between atoms: C_6  and  N_7
REMARK    3  A    between atoms: C_8  and  C_10
REMARK    4  A    between atoms: C_10  and  S_11
REMARK    5  A    between atoms: S_11  and  C_12
REMARK    6  A    between atoms: C_15  and  C_16
REMARK    7  A    between atoms: N_19  and  N_20
REMARK    8  A    between atoms: C_21  and  C_22
REMARK                            x       y       z     vdW  Elec       q    Type
REMARK                         _______ _______ _______ _____ _____    ______ ____
ROOT
ATOM      1  C   UNL     1       4.995   5.895  16.259  0.00  0.00    +0.000 C 
ENDROOT
BRANCH   1   3
ATOM      2  N   UNL     1       3.168   6.733  17.663  0.00  0.00    +0.000 N 
ATOM      3  C   UNL     1       4.510   6.377  17.619  0.00  0.00    +0.000 C 
ATOM      4  O   UNL     1       5.293   6.399  18.576  0.00  0.00    +0.000 OA
ATOM      5  H   UNL     1       2.613   6.464  16.862  0.00  0.00    +0.000 HD
BRANCH   2  11
ATOM      6  C   UNL     1       0.577  10.324  20.083  0.00  0.00    +0.000 C 
ATOM      7  C   UNL     1       1.210   8.958  19.992  0.00  0.00    +0.000 A 
ATOM      8  C   UNL     1       1.033   8.086  21.075  0.00  0.00    +0.000 A 
ATOM      9  C   UNL     1       1.571   6.810  21.042  0.00  0.00    +0.000 A 
ATOM     10  C   UNL     1       2.279   6.385  19.920  0.00  0.00    +0.000 A 
ATOM     11  C   UNL     1       2.465   7.215  18.804  0.00  0.00    +0.000 A 
ATOM     12  C   UNL     1       1.947   8.535  18.845  0.00  0.00    +0.000 A 
ATOM     13  C   UNL     1       2.094   9.523  17.711  0.00  0.00    +0.000 C 
ENDBRANCH   2  11
ENDBRANCH   1   3
BRANCH   1  14
ATOM     14  S   UNL     1       5.173   4.083  16.231  0.00  0.00    +0.000 S 
BRANCH  14  15
ATOM     15  C   UNL     1       3.847   3.608  17.284  0.00  0.00    +0.000 A 
ATOM     16  N   UNL     1       2.644   3.589  16.807  0.00  0.00    +0.000 NA
ATOM     17  N   UNL     1       1.573   3.175  17.610  0.00  0.00    +0.000 NA
ATOM     18  C   UNL     1       1.798   2.859  18.848  0.00  0.00    +0.000 A 
ATOM     19  C   UNL     1       0.675   2.395  19.735  0.00  0.00    +0.000 C 
ATOM     20  C   UNL     1       3.164   2.932  19.472  0.00  0.00    +0.000 A 
ATOM     21  O   UNL     1       3.297   2.732  20.673  0.00  0.00    +0.000 OA
ATOM     22  N   UNL     1       4.170   3.257  18.584  0.00  0.00    +0.000 N 
BRANCH  22  23
ATOM     23  N   UNL     1       5.522   3.237  19.072  0.00  0.00    +0.000 N 
ATOM     24  H   UNL     1       6.080   3.820  18.440  0.00  0.00    +0.000 HD
ATOM     25  H   UNL     1       5.875   2.282  18.966  0.00  0.00    +0.000 HD
ENDBRANCH  22  23
ENDBRANCH  14  15
ENDBRANCH   1  14
TORSDOF 5
ENDMDL
MODEL 8
REMARK VINA RESULT:      -7.0      2.089      3.183
REMARK  Name = 
REMARK  8 active torsions:
REMARK  status: ('A' for Active; 'I' for Inactive)
REMARK    1  A    between atoms: C_1  and  C_2
REMARK    2  A    between atoms: C_6  and  N_7
REMARK    3  A    between atoms: C_8  and  C_10
REMARK    4  A    between atoms: C_10  and  S_11
REMARK    5  A    between atoms: S_11  and  C_12
REMARK    6  A    between atoms: C_15  and  C_16
REMARK    7  A    between atoms: N_19  and  N_20
REMARK    8  A    between atoms: C_21  and  C_22
REMARK                            x       y       z     vdW  Elec       q    Type
REMARK                         _______ _______ _______ _____ _____    ______ ____
ROOT
ATOM      1  C   UNL     1       3.882   4.474  19.172  0.00  0.00    +0.000 C 
ENDROOT
BRANCH   1   3
ATOM      2  N   UNL     1       2.897   6.667  19.650  0.00  0.00    +0.000 N 
ATOM      3  C   UNL     1       2.664   5.301  19.559  0.00  0.00    +0.000 C 
ATOM      4  O   UNL     1       1.576   4.742  19.736  0.00  0.00    +0.000 OA
ATOM      5  H   UNL     1       3.778   6.992  19.275  0.00  0.00    +0.000 HD
BRANCH   2  11
ATOM      6  C   UNL     1       0.140  10.745  18.537  0.00  0.00    +0.000 C 
ATOM      7  C   UNL     1       0.596   9.647  19.466  0.00  0.00    +0.000 A 
ATOM      8  C   UNL     1      -0.018   9.563  20.722  0.00  0.00    +0.000 A 
ATOM      9  C   UNL     1       0.342   8.563  21.611  0.00  0.00    +0.000 A 
ATOM     10  C   UNL     1       1.309   7.628  21.250  0.00  0.00    +0.000 A 
ATOM     11  C   UNL     1       1.937   7.660  19.995  0.00  0.00    +0.000 A 
ATOM     12  C   UNL     1       1.598   8.702  19.093  0.00  0.00    +0.000 A 
ATOM     13  C   UNL     1       2.215   8.848  17.721  0.00  0.00    +0.000 C 
ENDBRANCH   2  11
ENDBRANCH   1   3
BRANCH   1  14
ATOM     14  S   UNL     1       5.284   5.543  18.716  0.00  0.00    +0.000 S 
BRANCH  14  15
ATOM     15  C   UNL     1       5.590   4.998  17.072  0.00  0.00    +0.000 A 
ATOM     16  N   UNL     1       4.818   4.095  16.558  0.00  0.00    +0.000 NA
ATOM     17  N   UNL     1       5.012   3.671  15.236  0.00  0.00    +0.000 NA
ATOM     18  C   UNL     1       6.002   4.160  14.555  0.00  0.00    +0.000 A 
ATOM     19  C   UNL     1       6.230   3.741  13.128  0.00  0.00    +0.000 C 
ATOM     20  C   UNL     1       6.970   5.159  15.127  0.00  0.00    +0.000 A 
ATOM     21  O   UNL     1       7.950   5.499  14.476  0.00  0.00    +0.000 OA
ATOM     22  N   UNL     1       6.646   5.588  16.399  0.00  0.00    +0.000 N 
BRANCH  22  23
ATOM     23  N   UNL     1       7.454   6.628  16.977  0.00  0.00    +0.000 N 
ATOM     24  H   UNL     1       7.846   7.171  16.202  0.00  0.00    +0.000 HD
ATOM     25  H   UNL     1       8.247   6.180  17.444  0.00  0.00    +0.000 HD
ENDBRANCH  22  23
ENDBRANCH  14  15
ENDBRANCH   1  14
TORSDOF 5
ENDMDL
MODEL 9
REMARK VINA RESULT:      -7.0      3.588      5.420
REMARK  Name = 
REMARK  8 active torsions:
REMARK  status: ('A' for Active; 'I' for Inactive)
REMARK    1  A    between atoms: C_1  and  C_2
REMARK    2  A    between atoms: C_6  and  N_7
REMARK    3  A    between atoms: C_8  and  C_10
REMARK    4  A    between atoms: C_10  and  S_11
REMARK    5  A    between atoms: S_11  and  C_12
REMARK    6  A    between atoms: C_15  and  C_16
REMARK    7  A    between atoms: N_19  and  N_20
REMARK    8  A    between atoms: C_21  and  C_22
REMARK                            x       y       z     vdW  Elec       q    Type
REMARK                         _______ _______ _______ _____ _____    ______ ____
ROOT
ATOM      1  C   UNL     1       5.999   6.649  16.966  0.00  0.00    +0.000 C 
ENDROOT
BRANCH   1   3
ATOM      2  N   UNL     1       3.820   5.940  17.839  0.00  0.00    +0.000 N 
ATOM      3  C   UNL     1       5.196   5.905  18.025  0.00  0.00    +0.000 C 
ATOM      4  O   UNL     1       5.786   5.313  18.935  0.00  0.00    +0.000 OA
ATOM      5  H   UNL     1       3.503   6.283  16.942  0.00  0.00    +0.000 HD
BRANCH   2  11
ATOM      6  C   UNL     1       0.700   2.141  18.979  0.00  0.00    +0.000 C 
ATOM      7  C   UNL     1       1.320   3.492  19.240  0.00  0.00    +0.000 A 
ATOM      8  C   UNL     1       0.961   4.154  20.421  0.00  0.00    +0.000 A 
ATOM      9  C   UNL     1       1.513   5.387  20.727  0.00  0.00    +0.000 A 
ATOM     10  C   UNL     1       2.440   5.966  19.864  0.00  0.00    +0.000 A 
ATOM     11  C   UNL     1       2.845   5.331  18.680  0.00  0.00    +0.000 A 
ATOM     12  C   UNL     1       2.258   4.084  18.342  0.00  0.00    +0.000 A 
ATOM     13  C   UNL     1       2.605   3.312  17.090  0.00  0.00    +0.000 C 
ENDBRANCH   2  11
ENDBRANCH   1   3
BRANCH   1  14
ATOM     14  S   UNL     1       7.400   5.646  16.380  0.00  0.00    +0.000 S 
BRANCH  14  15
ATOM     15  C   UNL     1       6.678   4.860  14.982  0.00  0.00    +0.000 A 
ATOM     16  N   UNL     1       5.564   4.217  15.131  0.00  0.00    +0.000 NA
ATOM     17  N   UNL     1       4.943   3.617  14.027  0.00  0.00    +0.000 NA
ATOM     18  C   UNL     1       5.524   3.673  12.868  0.00  0.00    +0.000 A 
ATOM     19  C   UNL     1       4.879   3.054  11.659  0.00  0.00    +0.000 C 
ATOM     20  C   UNL     1       6.851   4.346  12.654  0.00  0.00    +0.000 A 
ATOM     21  O   UNL     1       7.404   4.269  11.564  0.00  0.00    +0.000 OA
ATOM     22  N   UNL     1       7.341   4.990  13.773  0.00  0.00    +0.000 N 
BRANCH  22  23
ATOM     23  N   UNL     1       8.549   5.755  13.627  0.00  0.00    +0.000 N 
ATOM     24  H   UNL     1       8.319   6.728  13.853  0.00  0.00    +0.000 HD
ATOM     25  H   UNL     1       8.804   5.743  12.636  0.00  0.00    +0.000 HD
ENDBRANCH  22  23
ENDBRANCH  14  15
ENDBRANCH   1  14
TORSDOF 5
ENDMDL
