MODEL 1
REMARK VINA RESULT:      -9.5      0.000      0.000
REMARK  Name = 
REMARK  6 active torsions:
REMARK  status: ('A' for Active; 'I' for Inactive)
REMARK    1  A    between atoms: C_2  and  C_3
REMARK    2  A    between atoms: C_7  and  N_8
REMARK    3  A    between atoms: C_9  and  C_11
REMARK    4  A    between atoms: C_13  and  N_14
REMARK    5  A    between atoms: C_17  and  N_18
REMARK    6  A    between atoms: C_26  and  C_27
REMARK                            x       y       z     vdW  Elec       q    Type
REMARK                         _______ _______ _______ _____ _____    ______ ____
ROOT
ATOM      1  C   UNL     1       2.379   6.437  20.090  0.00  0.00    +0.000 A 
ATOM      2  C   UNL     1       3.357   6.342  19.090  0.00  0.00    +0.000 A 
ATOM      3  C   UNL     1       3.853   5.115  18.648  0.00  0.00    +0.000 A 
ATOM      4  C   UNL     1       3.400   3.972  19.312  0.00  0.00    +0.000 A 
ATOM      5  C   UNL     1       2.435   4.032  20.335  0.00  0.00    +0.000 A 
ATOM      6  C   UNL     1       1.918   5.282  20.723  0.00  0.00    +0.000 A 
ENDROOT
BRANCH   3   7
ATOM      7  N   UNL     1       4.648   5.006  17.521  0.00  0.00    +0.000 N 
ATOM      8  C   UNL     1       4.516   3.832  16.654  0.00  0.00    +0.000 C 
ATOM      9  C   UNL     1       5.883   3.433  16.118  0.00  0.00    +0.000 C 
ATOM     10  C   UNL     1       6.672   4.589  15.482  0.00  0.00    +0.000 C 
ATOM     11  C   UNL     1       6.667   5.815  16.417  0.00  0.00    +0.000 C 
ATOM     12  C   UNL     1       5.292   6.192  16.953  0.00  0.00    +0.000 C 
BRANCH  10  13
ATOM     13  N   UNL     1       6.372   4.926  14.079  0.00  0.00    +0.000 NA
ATOM     14  C   UNL     1       5.469   4.075  13.308  0.00  0.00    +0.000 C 
ATOM     15  C   UNL     1       6.337   3.361  12.295  0.00  0.00    +0.000 C 
ATOM     16  C   UNL     1       7.368   4.412  11.954  0.00  0.00    +0.000 C 
ATOM     17  C   UNL     1       7.580   5.151  13.266  0.00  0.00    +0.000 C 
ENDBRANCH  10  13
ENDBRANCH   3   7
BRANCH   1  19
ATOM     18  N   UNL     1       1.309   8.127  21.519  0.00  0.00    +0.000 N 
ATOM     19  C   UNL     1       1.756   7.774  20.259  0.00  0.00    +0.000 C 
ATOM     20  O   UNL     1       1.717   8.495  19.263  0.00  0.00    +0.000 OA
ATOM     21  H   UNL     1       1.622   7.571  22.305  0.00  0.00    +0.000 HD
BRANCH  18  26
ATOM     22  C   UNL     1       0.191  11.660  21.238  0.00  0.00    +0.000 A 
ATOM     23  C   UNL     1      -0.731  11.756  22.286  0.00  0.00    +0.000 A 
ATOM     24  C   UNL     1      -0.961  10.656  23.101  0.00  0.00    +0.000 A 
ATOM     25  C   UNL     1      -0.282   9.460  22.865  0.00  0.00    +0.000 A 
ATOM     26  C   UNL     1       0.627   9.338  21.805  0.00  0.00    +0.000 A 
ATOM     27  C   UNL     1       0.878  10.455  21.004  0.00  0.00    +0.000 A 
BRANCH  22  29
ATOM     28  N   UNL     1       0.618  13.714  19.711  0.00  0.00    +0.000 NA
ATOM     29  C   UNL     1       0.425  12.794  20.396  0.00  0.00    +0.000 C 
ENDBRANCH  22  29
ENDBRANCH  18  26
ENDBRANCH   1  19
BRANCH   5  30
ATOM     30  C   UNL     1       1.901   2.751  20.926  0.00  0.00    +0.000 C 
ATOM     31  F   UNL     1       0.675   2.882  21.506  0.00  0.00    +0.000 F 
ATOM     32  F   UNL     1       1.770   1.768  19.994  0.00  0.00    +0.000 F 
ATOM     33  F   UNL     1       2.717   2.248  21.892  0.00  0.00    +0.000 F 
ENDBRANCH   5  30
TORSDOF 6
ENDMDL
MODEL 2
REMARK VINA RESULT:      -9.4      1.860      2.128
REMARK  Name = 
REMARK  6 active torsions:
REMARK  status: ('A' for Active; 'I' for Inactive)
REMARK    1  A    between atoms: C_2  and  C_3
REMARK    2  A    between atoms: C_7  and  N_8
REMARK    3  A    between atoms: C_9  and  C_11
REMARK    4  A    between atoms: C_13  and  N_14
REMARK    5  A    between atoms: C_17  and  N_18
REMARK    6  A    between atoms: C_26  and  C_27
REMARK                            x       y       z     vdW  Elec       q    Type
REMARK                         _______ _______ _______ _____ _____    ______ ____
ROOT
ATOM      1  C   UNL     1       2.338   6.753  19.850  0.00  0.00    +0.000 A 
ATOM      2  C   UNL     1       3.337   6.631  18.873  0.00  0.00    +0.000 A 
ATOM      3  C   UNL     1       3.885   5.399  18.518  0.00  0.00    +0.000 A 
ATOM      4  C   UNL     1       3.464   4.283  19.248  0.00  0.00    +0.000 A 
ATOM      5  C   UNL     1       2.480   4.372  20.250  0.00  0.00    +0.000 A 
ATOM      6  C   UNL     1       1.910   5.623  20.549  0.00  0.00    +0.000 A 
ENDROOT
BRANCH   3   7
ATOM      7  N   UNL     1       4.703   5.249  17.412  0.00  0.00    +0.000 N 
ATOM      8  C   UNL     1       4.592   4.041  16.589  0.00  0.00    +0.000 C 
ATOM      9  C   UNL     1       5.971   3.627  16.097  0.00  0.00    +0.000 C 
ATOM     10  C   UNL     1       6.769   4.760  15.432  0.00  0.00    +0.000 C 
ATOM     11  C   UNL     1       6.740   6.021  16.317  0.00  0.00    +0.000 C 
ATOM     12  C   UNL     1       5.354   6.414  16.810  0.00  0.00    +0.000 C 
BRANCH  10  13
ATOM     13  N   UNL     1       6.496   5.040  14.010  0.00  0.00    +0.000 NA
ATOM     14  C   UNL     1       5.509   4.238  13.292  0.00  0.00    +0.000 C 
ATOM     15  C   UNL     1       6.298   3.382  12.324  0.00  0.00    +0.000 C 
ATOM     16  C   UNL     1       7.425   4.303  11.921  0.00  0.00    +0.000 C 
ATOM     17  C   UNL     1       7.715   5.096  13.186  0.00  0.00    +0.000 C 
ENDBRANCH  10  13
ENDBRANCH   3   7
BRANCH   1  19
ATOM     18  N   UNL     1       1.456   8.762  18.741  0.00  0.00    +0.000 N 
ATOM     19  C   UNL     1       1.663   8.073  19.923  0.00  0.00    +0.000 C 
ATOM     20  O   UNL     1       1.299   8.445  21.037  0.00  0.00    +0.000 OA
ATOM     21  H   UNL     1       1.561   8.253  17.872  0.00  0.00    +0.000 HD
BRANCH  18  26
ATOM     22  C   UNL     1      -1.083  11.469  18.546  0.00  0.00    +0.000 A 
ATOM     23  C   UNL     1      -0.285  12.617  18.589  0.00  0.00    +0.000 A 
ATOM     24  C   UNL     1       1.097  12.493  18.656  0.00  0.00    +0.000 A 
ATOM     25  C   UNL     1       1.679  11.225  18.691  0.00  0.00    +0.000 A 
ATOM     26  C   UNL     1       0.895  10.064  18.674  0.00  0.00    +0.000 A 
ATOM     27  C   UNL     1      -0.492  10.192  18.578  0.00  0.00    +0.000 A 
BRANCH  22  29
ATOM     28  N   UNL     1      -3.664  11.703  18.432  0.00  0.00    +0.000 NA
ATOM     29  C   UNL     1      -2.507  11.600  18.481  0.00  0.00    +0.000 C 
ENDBRANCH  22  29
ENDBRANCH  18  26
ENDBRANCH   1  19
BRANCH   5  30
ATOM     30  C   UNL     1       1.984   3.112  20.914  0.00  0.00    +0.000 C 
ATOM     31  F   UNL     1       0.672   3.163  21.280  0.00  0.00    +0.000 F 
ATOM     32  F   UNL     1       2.105   2.022  20.109  0.00  0.00    +0.000 F 
ATOM     33  F   UNL     1       2.675   2.820  22.050  0.00  0.00    +0.000 F 
ENDBRANCH   5  30
TORSDOF 6
ENDMDL
MODEL 3
REMARK VINA RESULT:      -9.3      1.649      1.807
REMARK  Name = 
REMARK  6 active torsions:
REMARK  status: ('A' for Active; 'I' for Inactive)
REMARK    1  A    between atoms: C_2  and  C_3
REMARK    2  A    between atoms: C_7  and  N_8
REMARK    3  A    between atoms: C_9  and  C_11
REMARK    4  A    between atoms: C_13  and  N_14
REMARK    5  A    between atoms: C_17  and  N_18
REMARK    6  A    between atoms: C_26  and  C_27
REMARK                            x       y       z     vdW  Elec       q    Type
REMARK                         _______ _______ _______ _____ _____    ______ ____
ROOT
ATOM      1  C   UNL     1       2.340   6.620  19.914  0.00  0.00    +0.000 A 
ATOM      2  C   UNL     1       3.317   6.484  18.917  0.00  0.00    +0.000 A 
ATOM      3  C   UNL     1       3.840   5.245  18.550  0.00  0.00    +0.000 A 
ATOM      4  C   UNL     1       3.417   4.135  19.287  0.00  0.00    +0.000 A 
ATOM      5  C   UNL     1       2.455   4.237  20.309  0.00  0.00    +0.000 A 
ATOM      6  C   UNL     1       1.910   5.495  20.620  0.00  0.00    +0.000 A 
ENDROOT
BRANCH   3   7
ATOM      7  N   UNL     1       4.632   5.084  17.427  0.00  0.00    +0.000 N 
ATOM      8  C   UNL     1       4.469   3.891  16.591  0.00  0.00    +0.000 C 
ATOM      9  C   UNL     1       5.825   3.441  16.068  0.00  0.00    +0.000 C 
ATOM     10  C   UNL     1       6.647   4.557  15.404  0.00  0.00    +0.000 C 
ATOM     11  C   UNL     1       6.674   5.806  16.306  0.00  0.00    +0.000 C 
ATOM     12  C   UNL     1       5.310   6.236  16.830  0.00  0.00    +0.000 C 
BRANCH  10  13
ATOM     13  N   UNL     1       6.358   4.865  13.992  0.00  0.00    +0.000 NA
ATOM     14  C   UNL     1       5.459   4.000  13.232  0.00  0.00    +0.000 C 
ATOM     15  C   UNL     1       6.334   3.264  12.241  0.00  0.00    +0.000 C 
ATOM     16  C   UNL     1       7.369   4.305  11.885  0.00  0.00    +0.000 C 
ATOM     17  C   UNL     1       7.572   5.072  13.184  0.00  0.00    +0.000 C 
ENDBRANCH  10  13
ENDBRANCH   3   7
BRANCH   1  19
ATOM     18  N   UNL     1       1.520   8.669  18.832  0.00  0.00    +0.000 N 
ATOM     19  C   UNL     1       1.686   7.949  20.002  0.00  0.00    +0.000 C 
ATOM     20  O   UNL     1       1.300   8.302  21.115  0.00  0.00    +0.000 OA
ATOM     21  H   UNL     1       1.638   8.179  17.954  0.00  0.00    +0.000 HD
BRANCH  18  26
ATOM     22  C   UNL     1       1.355  12.370  18.536  0.00  0.00    +0.000 A 
ATOM     23  C   UNL     1      -0.021  12.606  18.622  0.00  0.00    +0.000 A 
ATOM     24  C   UNL     1      -0.891  11.539  18.804  0.00  0.00    +0.000 A 
ATOM     25  C   UNL     1      -0.390  10.240  18.889  0.00  0.00    +0.000 A 
ATOM     26  C   UNL     1       0.983   9.982  18.782  0.00  0.00    +0.000 A 
ATOM     27  C   UNL     1       1.858  11.059  18.626  0.00  0.00    +0.000 A 
BRANCH  22  29
ATOM     28  N   UNL     1       2.979  14.364  18.192  0.00  0.00    +0.000 NA
ATOM     29  C   UNL     1       2.251  13.470  18.344  0.00  0.00    +0.000 C 
ENDBRANCH  22  29
ENDBRANCH  18  26
ENDBRANCH   1  19
BRANCH   5  30
ATOM     30  C   UNL     1       1.954   2.983  20.982  0.00  0.00    +0.000 C 
ATOM     31  F   UNL     1       0.737   3.127  21.578  0.00  0.00    +0.000 F 
ATOM     32  F   UNL     1       1.824   1.946  20.111  0.00  0.00    +0.000 F 
ATOM     33  F   UNL     1       2.797   2.550  21.960  0.00  0.00    +0.000 F 
ENDBRANCH   5  30
TORSDOF 6
ENDMDL
MODEL 4
REMARK VINA RESULT:      -9.0      1.455      1.545
REMARK  Name = 
REMARK  6 active torsions:
REMARK  status: ('A' for Active; 'I' for Inactive)
REMARK    1  A    between atoms: C_2  and  C_3
REMARK    2  A    between atoms: C_7  and  N_8
REMARK    3  A    between atoms: C_9  and  C_11
REMARK    4  A    between atoms: C_13  and  N_14
REMARK    5  A    between atoms: C_17  and  N_18
REMARK    6  A    between atoms: C_26  and  C_27
REMARK                            x       y       z     vdW  Elec       q    Type
REMARK                         _______ _______ _______ _____ _____    ______ ____
ROOT
ATOM      1  C   UNL     1       2.364   7.080  19.589  0.00  0.00    +0.000 A 
ATOM      2  C   UNL     1       3.330   6.843  18.601  0.00  0.00    +0.000 A 
ATOM      3  C   UNL     1       3.866   5.575  18.371  0.00  0.00    +0.000 A 
ATOM      4  C   UNL     1       3.467   4.553  19.237  0.00  0.00    +0.000 A 
ATOM      5  C   UNL     1       2.516   4.760  20.254  0.00  0.00    +0.000 A 
ATOM      6  C   UNL     1       1.958   6.039  20.426  0.00  0.00    +0.000 A 
ENDROOT
BRANCH   3   7
ATOM      7  N   UNL     1       4.646   5.297  17.264  0.00  0.00    +0.000 N 
ATOM      8  C   UNL     1       4.403   4.071  16.498  0.00  0.00    +0.000 C 
ATOM      9  C   UNL     1       5.726   3.500  16.008  0.00  0.00    +0.000 C 
ATOM     10  C   UNL     1       6.622   4.518  15.284  0.00  0.00    +0.000 C 
ATOM     11  C   UNL     1       6.733   5.813  16.112  0.00  0.00    +0.000 C 
ATOM     12  C   UNL     1       5.401   6.363  16.603  0.00  0.00    +0.000 C 
BRANCH  10  13
ATOM     13  N   UNL     1       6.355   4.762  13.855  0.00  0.00    +0.000 NA
ATOM     14  C   UNL     1       5.487   3.849  13.115  0.00  0.00    +0.000 C 
ATOM     15  C   UNL     1       6.395   3.090  12.172  0.00  0.00    +0.000 C 
ATOM     16  C   UNL     1       7.418   4.135  11.793  0.00  0.00    +0.000 C 
ATOM     17  C   UNL     1       7.581   4.958  13.062  0.00  0.00    +0.000 C 
ENDBRANCH  10  13
ENDBRANCH   3   7
BRANCH   1  19
ATOM     18  N   UNL     1       0.848   8.746  20.573  0.00  0.00    +0.000 N 
ATOM     19  C   UNL     1       1.692   8.403  19.533  0.00  0.00    +0.000 C 
ATOM     20  O   UNL     1       1.969   9.121  18.574  0.00  0.00    +0.000 OA
ATOM     21  H   UNL     1       0.896   8.197  21.422  0.00  0.00    +0.000 HD
BRANCH  18  26
ATOM     22  C   UNL     1      -1.652  11.328  19.625  0.00  0.00    +0.000 A 
ATOM     23  C   UNL     1      -1.498  12.268  20.649  0.00  0.00    +0.000 A 
ATOM     24  C   UNL     1      -0.547  12.058  21.639  0.00  0.00    +0.000 A 
ATOM     25  C   UNL     1       0.240  10.907  21.613  0.00  0.00    +0.000 A 
ATOM     26  C   UNL     1       0.085   9.942  20.609  0.00  0.00    +0.000 A 
ATOM     27  C   UNL     1      -0.853  10.170  19.599  0.00  0.00    +0.000 A 
BRANCH  22  29
ATOM     28  N   UNL     1      -3.432  11.719  17.779  0.00  0.00    +0.000 NA
ATOM     29  C   UNL     1      -2.635  11.544  18.608  0.00  0.00    +0.000 C 
ENDBRANCH  22  29
ENDBRANCH  18  26
ENDBRANCH   1  19
BRANCH   5  30
ATOM     30  C   UNL     1       2.041   3.586  21.073  0.00  0.00    +0.000 C 
ATOM     31  F   UNL     1       0.706   3.341  20.961  0.00  0.00    +0.000 F 
ATOM     32  F   UNL     1       2.664   2.427  20.725  0.00  0.00    +0.000 F 
ATOM     33  F   UNL     1       2.277   3.755  22.404  0.00  0.00    +0.000 F 
ENDBRANCH   5  30
TORSDOF 6
ENDMDL
MODEL 5
REMARK VINA RESULT:      -9.0      1.321      1.743
REMARK  Name = 
REMARK  6 active torsions:
REMARK  status: ('A' for Active; 'I' for Inactive)
REMARK    1  A    between atoms: C_2  and  C_3
REMARK    2  A    between atoms: C_7  and  N_8
REMARK    3  A    between atoms: C_9  and  C_11
REMARK    4  A    between atoms: C_13  and  N_14
REMARK    5  A    between atoms: C_17  and  N_18
REMARK    6  A    between atoms: C_26  and  C_27
REMARK                            x       y       z     vdW  Elec       q    Type
REMARK                         _______ _______ _______ _____ _____    ______ ____
ROOT
ATOM      1  C   UNL     1       2.289   7.191  19.479  0.00  0.00    +0.000 A 
ATOM      2  C   UNL     1       3.270   6.955  18.505  0.00  0.00    +0.000 A 
ATOM      3  C   UNL     1       3.840   5.696  18.313  0.00  0.00    +0.000 A 
ATOM      4  C   UNL     1       3.460   4.685  19.200  0.00  0.00    +0.000 A 
ATOM      5  C   UNL     1       2.495   4.893  20.203  0.00  0.00    +0.000 A 
ATOM      6  C   UNL     1       1.902   6.161  20.338  0.00  0.00    +0.000 A 
ENDROOT
BRANCH   3   7
ATOM      7  N   UNL     1       4.638   5.410  17.219  0.00  0.00    +0.000 N 
ATOM      8  C   UNL     1       4.431   4.161  16.480  0.00  0.00    +0.000 C 
ATOM      9  C   UNL     1       5.771   3.610  16.017  0.00  0.00    +0.000 C 
ATOM     10  C   UNL     1       6.651   4.632  15.277  0.00  0.00    +0.000 C 
ATOM     11  C   UNL     1       6.724   5.948  16.075  0.00  0.00    +0.000 C 
ATOM     12  C   UNL     1       5.374   6.478  16.541  0.00  0.00    +0.000 C 
BRANCH  10  13
ATOM     13  N   UNL     1       6.393   4.835  13.840  0.00  0.00    +0.000 NA
ATOM     14  C   UNL     1       5.472   3.946  13.137  0.00  0.00    +0.000 C 
ATOM     15  C   UNL     1       6.331   3.101  12.222  0.00  0.00    +0.000 C 
ATOM     16  C   UNL     1       7.410   4.071  11.802  0.00  0.00    +0.000 C 
ATOM     17  C   UNL     1       7.625   4.932  13.038  0.00  0.00    +0.000 C 
ENDBRANCH  10  13
ENDBRANCH   3   7
BRANCH   1  19
ATOM     18  N   UNL     1       0.658   8.804  20.362  0.00  0.00    +0.000 N 
ATOM     19  C   UNL     1       1.584   8.494  19.383  0.00  0.00    +0.000 C 
ATOM     20  O   UNL     1       1.907   9.229  18.451  0.00  0.00    +0.000 OA
ATOM     21  H   UNL     1       0.661   8.250  21.209  0.00  0.00    +0.000 HD
BRANCH  18  26
ATOM     22  C   UNL     1      -0.883  11.996  21.481  0.00  0.00    +0.000 A 
ATOM     23  C   UNL     1      -1.662  12.345  20.373  0.00  0.00    +0.000 A 
ATOM     24  C   UNL     1      -1.697  11.507  19.266  0.00  0.00    +0.000 A 
ATOM     25  C   UNL     1      -0.947  10.331  19.260  0.00  0.00    +0.000 A 
ATOM     26  C   UNL     1      -0.141   9.977  20.351  0.00  0.00    +0.000 A 
ATOM     27  C   UNL     1      -0.130  10.807  21.474  0.00  0.00    +0.000 A 
BRANCH  22  29
ATOM     28  N   UNL     1      -0.817  13.563  23.547  0.00  0.00    +0.000 NA
ATOM     29  C   UNL     1      -0.845  12.862  22.620  0.00  0.00    +0.000 C 
ENDBRANCH  22  29
ENDBRANCH  18  26
ENDBRANCH   1  19
BRANCH   5  30
ATOM     30  C   UNL     1       2.042   3.728  21.048  0.00  0.00    +0.000 C 
ATOM     31  F   UNL     1       2.617   2.542  20.702  0.00  0.00    +0.000 F 
ATOM     32  F   UNL     1       2.321   3.908  22.367  0.00  0.00    +0.000 F 
ATOM     33  F   UNL     1       0.698   3.526  20.971  0.00  0.00    +0.000 F 
ENDBRANCH   5  30
TORSDOF 6
ENDMDL
MODEL 6
REMARK VINA RESULT:      -9.0      1.961      8.974
REMARK  Name = 
REMARK  6 active torsions:
REMARK  status: ('A' for Active; 'I' for Inactive)
REMARK    1  A    between atoms: C_2  and  C_3
REMARK    2  A    between atoms: C_7  and  N_8
REMARK    3  A    between atoms: C_9  and  C_11
REMARK    4  A    between atoms: C_13  and  N_14
REMARK    5  A    between atoms: C_17  and  N_18
REMARK    6  A    between atoms: C_26  and  C_27
REMARK                            x       y       z     vdW  Elec       q    Type
REMARK                         _______ _______ _______ _____ _____    ______ ____
ROOT
ATOM      1  C   UNL     1       3.866   4.681  18.070  0.00  0.00    +0.000 A 
ATOM      2  C   UNL     1       3.266   5.948  18.077  0.00  0.00    +0.000 A 
ATOM      3  C   UNL     1       2.410   6.362  19.098  0.00  0.00    +0.000 A 
ATOM      4  C   UNL     1       2.094   5.420  20.081  0.00  0.00    +0.000 A 
ATOM      5  C   UNL     1       2.661   4.131  20.094  0.00  0.00    +0.000 A 
ATOM      6  C   UNL     1       3.560   3.763  19.076  0.00  0.00    +0.000 A 
ENDROOT
BRANCH   3   7
ATOM      7  N   UNL     1       1.996   7.676  19.223  0.00  0.00    +0.000 N 
ATOM      8  C   UNL     1       1.721   8.224  20.554  0.00  0.00    +0.000 C 
ATOM      9  C   UNL     1       0.536   9.176  20.482  0.00  0.00    +0.000 C 
ATOM     10  C   UNL     1       0.651  10.244  19.382  0.00  0.00    +0.000 C 
ATOM     11  C   UNL     1       1.048   9.589  18.044  0.00  0.00    +0.000 C 
ATOM     12  C   UNL     1       2.227   8.631  18.137  0.00  0.00    +0.000 C 
BRANCH  10  13
ATOM     13  N   UNL     1       1.432  11.456  19.691  0.00  0.00    +0.000 NA
ATOM     14  C   UNL     1       0.936  12.401  20.687  0.00  0.00    +0.000 C 
ATOM     15  C   UNL     1       0.512  13.632  19.914  0.00  0.00    +0.000 C 
ATOM     16  C   UNL     1       1.536  13.687  18.805  0.00  0.00    +0.000 C 
ATOM     17  C   UNL     1       1.809  12.223  18.492  0.00  0.00    +0.000 C 
ENDBRANCH  10  13
ENDBRANCH   3   7
BRANCH   1  19
ATOM     18  N   UNL     1       4.717   4.869  15.772  0.00  0.00    +0.000 N 
ATOM     19  C   UNL     1       4.955   4.486  17.080  0.00  0.00    +0.000 C 
ATOM     20  O   UNL     1       6.014   4.030  17.506  0.00  0.00    +0.000 OA
ATOM     21  H   UNL     1       3.917   5.462  15.590  0.00  0.00    +0.000 HD
BRANCH  18  26
ATOM     22  C   UNL     1       6.280   3.424  12.725  0.00  0.00    +0.000 A 
ATOM     23  C   UNL     1       7.396   4.250  12.553  0.00  0.00    +0.000 A 
ATOM     24  C   UNL     1       7.643   5.270  13.463  0.00  0.00    +0.000 A 
ATOM     25  C   UNL     1       6.773   5.471  14.535  0.00  0.00    +0.000 A 
ATOM     26  C   UNL     1       5.638   4.669  14.710  0.00  0.00    +0.000 A 
ATOM     27  C   UNL     1       5.407   3.627  13.810  0.00  0.00    +0.000 A 
BRANCH  22  29
ATOM     28  N   UNL     1       5.821   1.524  11.019  0.00  0.00    +0.000 NA
ATOM     29  C   UNL     1       6.025   2.376  11.784  0.00  0.00    +0.000 C 
ENDBRANCH  22  29
ENDBRANCH  18  26
ENDBRANCH   1  19
BRANCH   5  30
ATOM     30  C   UNL     1       2.372   3.207  21.249  0.00  0.00    +0.000 C 
ATOM     31  F   UNL     1       1.206   2.513  21.121  0.00  0.00    +0.000 F 
ATOM     32  F   UNL     1       3.346   2.272  21.420  0.00  0.00    +0.000 F 
ATOM     33  F   UNL     1       2.278   3.873  22.433  0.00  0.00    +0.000 F 
ENDBRANCH   5  30
TORSDOF 6
ENDMDL
MODEL 7
REMARK VINA RESULT:      -9.0      1.261      1.679
REMARK  Name = 
REMARK  6 active torsions:
REMARK  status: ('A' for Active; 'I' for Inactive)
REMARK    1  A    between atoms: C_2  and  C_3
REMARK    2  A    between atoms: C_7  and  N_8
REMARK    3  A    between atoms: C_9  and  C_11
REMARK    4  A    between atoms: C_13  and  N_14
REMARK    5  A    between atoms: C_17  and  N_18
REMARK    6  A    between atoms: C_26  and  C_27
REMARK                            x       y       z     vdW  Elec       q    Type
REMARK                         _______ _______ _______ _____ _____    ______ ____
ROOT
ATOM      1  C   UNL     1       2.282   7.046  19.709  0.00  0.00    +0.000 A 
ATOM      2  C   UNL     1       3.263   6.823  18.732  0.00  0.00    +0.000 A 
ATOM      3  C   UNL     1       3.756   5.550  18.447  0.00  0.00    +0.000 A 
ATOM      4  C   UNL     1       3.297   4.499  19.247  0.00  0.00    +0.000 A 
ATOM      5  C   UNL     1       2.329   4.689  20.251  0.00  0.00    +0.000 A 
ATOM      6  C   UNL     1       1.816   5.979  20.479  0.00  0.00    +0.000 A 
ENDROOT
BRANCH   3   7
ATOM      7  N   UNL     1       4.553   5.299  17.345  0.00  0.00    +0.000 N 
ATOM      8  C   UNL     1       4.343   4.077  16.563  0.00  0.00    +0.000 C 
ATOM      9  C   UNL     1       5.683   3.539  16.081  0.00  0.00    +0.000 C 
ATOM     10  C   UNL     1       6.564   4.584  15.377  0.00  0.00    +0.000 C 
ATOM     11  C   UNL     1       6.640   5.872  16.220  0.00  0.00    +0.000 C 
ATOM     12  C   UNL     1       5.292   6.388  16.703  0.00  0.00    +0.000 C 
BRANCH  10  13
ATOM     13  N   UNL     1       6.307   4.837  13.948  0.00  0.00    +0.000 NA
ATOM     14  C   UNL     1       5.416   3.950  13.205  0.00  0.00    +0.000 C 
ATOM     15  C   UNL     1       6.305   3.168  12.262  0.00  0.00    +0.000 C 
ATOM     16  C   UNL     1       7.356   4.186  11.887  0.00  0.00    +0.000 C 
ATOM     17  C   UNL     1       7.539   5.002  13.158  0.00  0.00    +0.000 C 
ENDBRANCH  10  13
ENDBRANCH   3   7
BRANCH   1  19
ATOM     18  N   UNL     1       1.405   8.991  20.930  0.00  0.00    +0.000 N 
ATOM     19  C   UNL     1       1.664   8.395  19.708  0.00  0.00    +0.000 C 
ATOM     20  O   UNL     1       1.459   8.908  18.609  0.00  0.00    +0.000 OA
ATOM     21  H   UNL     1       1.845   8.596  21.751  0.00  0.00    +0.000 HD
BRANCH  18  26
ATOM     22  C   UNL     1      -1.015  11.551  22.113  0.00  0.00    +0.000 A 
ATOM     23  C   UNL     1      -0.568  12.699  21.452  0.00  0.00    +0.000 A 
ATOM     24  C   UNL     1       0.521  12.618  20.593  0.00  0.00    +0.000 A 
ATOM     25  C   UNL     1       1.168  11.396  20.404  0.00  0.00    +0.000 A 
ATOM     26  C   UNL     1       0.749  10.240  21.076  0.00  0.00    +0.000 A 
ATOM     27  C   UNL     1      -0.364  10.319  21.917  0.00  0.00    +0.000 A 
BRANCH  22  29
ATOM     28  N   UNL     1      -3.045  11.711  23.721  0.00  0.00    +0.000 NA
ATOM     29  C   UNL     1      -2.135  11.637  23.001  0.00  0.00    +0.000 C 
ENDBRANCH  22  29
ENDBRANCH  18  26
ENDBRANCH   1  19
BRANCH   5  30
ATOM     30  C   UNL     1       1.789   3.493  20.995  0.00  0.00    +0.000 C 
ATOM     31  F   UNL     1       0.442   3.328  20.866  0.00  0.00    +0.000 F 
ATOM     32  F   UNL     1       2.350   2.327  20.575  0.00  0.00    +0.000 F 
ATOM     33  F   UNL     1       2.028   3.566  22.333  0.00  0.00    +0.000 F 
ENDBRANCH   5  30
TORSDOF 6
ENDMDL
MODEL 8
REMARK VINA RESULT:      -8.9      3.441      9.247
REMARK  Name = 
REMARK  6 active torsions:
REMARK  status: ('A' for Active; 'I' for Inactive)
REMARK    1  A    between atoms: C_2  and  C_3
REMARK    2  A    between atoms: C_7  and  N_8
REMARK    3  A    between atoms: C_9  and  C_11
REMARK    4  A    between atoms: C_13  and  N_14
REMARK    5  A    between atoms: C_17  and  N_18
REMARK    6  A    between atoms: C_26  and  C_27
REMARK                            x       y       z     vdW  Elec       q    Type
REMARK                         _______ _______ _______ _____ _____    ______ ____
ROOT
ATOM      1  C   UNL     1       1.283   9.414  19.356  0.00  0.00    +0.000 A 
ATOM      2  C   UNL     1       1.463  10.772  19.059  0.00  0.00    +0.000 A 
ATOM      3  C   UNL     1       1.109  11.784  19.952  0.00  0.00    +0.000 A 
ATOM      4  C   UNL     1       0.473  11.392  21.133  0.00  0.00    +0.000 A 
ATOM      5  C   UNL     1       0.256  10.038  21.454  0.00  0.00    +0.000 A 
ATOM      6  C   UNL     1       0.671   9.041  20.553  0.00  0.00    +0.000 A 
ENDROOT
BRANCH   3   7
ATOM      7  N   UNL     1       1.484  13.101  19.758  0.00  0.00    +0.000 N 
ATOM      8  C   UNL     1       2.606  13.653  20.523  0.00  0.00    +0.000 C 
ATOM      9  C   UNL     1       2.319  15.104  20.881  0.00  0.00    +0.000 C 
ATOM     10  C   UNL     1       1.891  15.975  19.688  0.00  0.00    +0.000 C 
ATOM     11  C   UNL     1       0.785  15.267  18.882  0.00  0.00    +0.000 C 
ATOM     12  C   UNL     1       1.084  13.813  18.543  0.00  0.00    +0.000 C 
BRANCH  10  13
ATOM     13  N   UNL     1       2.959  16.538  18.842  0.00  0.00    +0.000 NA
ATOM     14  C   UNL     1       3.325  15.868  17.597  0.00  0.00    +0.000 C 
ATOM     15  C   UNL     1       4.694  15.270  17.837  0.00  0.00    +0.000 C 
ATOM     16  C   UNL     1       5.346  16.300  18.728  0.00  0.00    +0.000 C 
ATOM     17  C   UNL     1       4.200  16.817  19.584  0.00  0.00    +0.000 C 
ENDBRANCH  10  13
ENDBRANCH   3   7
BRANCH   1  19
ATOM     18  N   UNL     1       2.293   7.213  18.936  0.00  0.00    +0.000 N 
ATOM     19  C   UNL     1       1.952   8.458  18.439  0.00  0.00    +0.000 C 
ATOM     20  O   UNL     1       2.123   8.832  17.280  0.00  0.00    +0.000 OA
ATOM     21  H   UNL     1       1.879   6.924  19.813  0.00  0.00    +0.000 HD
BRANCH  18  26
ATOM     22  C   UNL     1       5.025   5.587  17.010  0.00  0.00    +0.000 A 
ATOM     23  C   UNL     1       4.489   4.319  16.762  0.00  0.00    +0.000 A 
ATOM     24  C   UNL     1       3.211   4.013  17.211  0.00  0.00    +0.000 A 
ATOM     25  C   UNL     1       2.475   4.966  17.916  0.00  0.00    +0.000 A 
ATOM     26  C   UNL     1       3.004   6.233  18.194  0.00  0.00    +0.000 A 
ATOM     27  C   UNL     1       4.278   6.548  17.717  0.00  0.00    +0.000 A 
BRANCH  22  29
ATOM     28  N   UNL     1       7.414   6.152  16.172  0.00  0.00    +0.000 NA
ATOM     29  C   UNL     1       6.344   5.900  16.549  0.00  0.00    +0.000 C 
ENDBRANCH  22  29
ENDBRANCH  18  26
ENDBRANCH   1  19
BRANCH   5  30
ATOM     30  C   UNL     1      -0.326   9.680  22.799  0.00  0.00    +0.000 C 
ATOM     31  F   UNL     1       0.610   9.494  23.772  0.00  0.00    +0.000 F 
ATOM     32  F   UNL     1      -1.168  10.640  23.269  0.00  0.00    +0.000 F 
ATOM     33  F   UNL     1      -1.052   8.529  22.758  0.00  0.00    +0.000 F 
ENDBRANCH   5  30
TORSDOF 6
ENDMDL
MODEL 9
REMARK VINA RESULT:      -8.8      1.821      2.207
REMARK  Name = 
REMARK  6 active torsions:
REMARK  status: ('A' for Active; 'I' for Inactive)
REMARK    1  A    between atoms: C_2  and  C_3
REMARK    2  A    between atoms: C_7  and  N_8
REMARK    3  A    between atoms: C_9  and  C_11
REMARK    4  A    between atoms: C_13  and  N_14
REMARK    5  A    between atoms: C_17  and  N_18
REMARK    6  A    between atoms: C_26  and  C_27
REMARK                            x       y       z     vdW  Elec       q    Type
REMARK                         _______ _______ _______ _____ _____    ______ ____
ROOT
ATOM      1  C   UNL     1       2.425   7.451  18.884  0.00  0.00    +0.000 A 
ATOM      2  C   UNL     1       3.381   7.094  17.921  0.00  0.00    +0.000 A 
ATOM      3  C   UNL     1       3.893   5.800  17.823  0.00  0.00    +0.000 A 
ATOM      4  C   UNL     1       3.481   4.881  18.792  0.00  0.00    +0.000 A 
ATOM      5  C   UNL     1       2.540   5.210  19.786  0.00  0.00    +0.000 A 
ATOM      6  C   UNL     1       2.006   6.510  19.826  0.00  0.00    +0.000 A 
ENDROOT
BRANCH   3   7
ATOM      7  N   UNL     1       4.662   5.393  16.747  0.00  0.00    +0.000 N 
ATOM      8  C   UNL     1       4.417   4.083  16.138  0.00  0.00    +0.000 C 
ATOM      9  C   UNL     1       5.737   3.463  15.705  0.00  0.00    +0.000 C 
ATOM     10  C   UNL     1       6.618   4.390  14.852  0.00  0.00    +0.000 C 
ATOM     11  C   UNL     1       6.731   5.776  15.515  0.00  0.00    +0.000 C 
ATOM     12  C   UNL     1       5.402   6.376  15.953  0.00  0.00    +0.000 C 
BRANCH  10  13
ATOM     13  N   UNL     1       6.333   4.458  13.407  0.00  0.00    +0.000 NA
ATOM     14  C   UNL     1       5.302   3.598  12.832  0.00  0.00    +0.000 C 
ATOM     15  C   UNL     1       6.038   2.569  12.001  0.00  0.00    +0.000 C 
ATOM     16  C   UNL     1       7.195   3.367  11.448  0.00  0.00    +0.000 C 
ATOM     17  C   UNL     1       7.539   4.333  12.572  0.00  0.00    +0.000 C 
ENDBRANCH  10  13
ENDBRANCH   3   7
BRANCH   1  19
ATOM     18  N   UNL     1       0.990   9.263  19.718  0.00  0.00    +0.000 N 
ATOM     19  C   UNL     1       1.778   8.773  18.693  0.00  0.00    +0.000 C 
ATOM     20  O   UNL     1       2.023   9.360  17.640  0.00  0.00    +0.000 OA
ATOM     21  H   UNL     1       1.067   8.823  20.626  0.00  0.00    +0.000 HD
BRANCH  18  26
ATOM     22  C   UNL     1      -1.776  11.628  18.965  0.00  0.00    +0.000 A 
ATOM     23  C   UNL     1      -1.284  12.826  19.493  0.00  0.00    +0.000 A 
ATOM     24  C   UNL     1      -0.024  12.855  20.076  0.00  0.00    +0.000 A 
ATOM     25  C   UNL     1       0.738  11.688  20.141  0.00  0.00    +0.000 A 
ATOM     26  C   UNL     1       0.252  10.473  19.638  0.00  0.00    +0.000 A 
ATOM     27  C   UNL     1      -1.004  10.454  19.028  0.00  0.00    +0.000 A 
BRANCH  22  29
ATOM     28  N   UNL     1      -4.133  11.576  17.880  0.00  0.00    +0.000 NA
ATOM     29  C   UNL     1      -3.077  11.600  18.368  0.00  0.00    +0.000 C 
ENDBRANCH  22  29
ENDBRANCH  18  26
ENDBRANCH   1  19
BRANCH   5  30
ATOM     30  C   UNL     1       2.049   4.137  20.725  0.00  0.00    +0.000 C 
ATOM     31  F   UNL     1       2.434   4.320  22.020  0.00  0.00    +0.000 F 
ATOM     32  F   UNL     1       0.691   4.051  20.747  0.00  0.00    +0.000 F 
ATOM     33  F   UNL     1       2.498   2.899  20.376  0.00  0.00    +0.000 F 
ENDBRANCH   5  30
TORSDOF 6
ENDMDL
