MODEL 1
REMARK VINA RESULT:      -6.5      0.000      0.000
REMARK  Name = 
REMARK  9 active torsions:
REMARK  status: ('A' for Active; 'I' for Inactive)
REMARK    1  A    between atoms: C_1  and  O_2
REMARK    2  A    between atoms: O_2  and  C_3
REMARK    3  A    between atoms: C_5  and  C_6
REMARK    4  A    between atoms: C_13  and  N_14
REMARK    5  A    between atoms: N_14  and  C_15
REMARK    6  A    between atoms: C_25  and  O_26
REMARK    7  A    between atoms: C_32  and  O_33
REMARK    8  A    between atoms: O_33  and  C_34
REMARK    9  A    between atoms: C_35  and  O_36
REMARK                            x       y       z     vdW  Elec       q    Type
REMARK                         _______ _______ _______ _____ _____    ______ ____
ROOT
ATOM      1  C   UNL     1      -2.061  12.401  20.080  0.00  0.00    +0.000 C 
ATOM      2  C   UNL     1      -2.628  11.266  19.190  0.00  0.00    +0.000 A 
ATOM      3  C   UNL     1      -3.663  11.561  18.292  0.00  0.00    +0.000 A 
ATOM      4  C   UNL     1      -3.545  11.022  17.027  0.00  0.00    +0.000 A 
ATOM      5  C   UNL     1      -2.554  10.125  16.685  0.00  0.00    +0.000 A 
ATOM      6  C   UNL     1      -1.702   9.604  17.633  0.00  0.00    +0.000 A 
ATOM      7  C   UNL     1      -1.741  10.156  18.919  0.00  0.00    +0.000 A 
ATOM      8  C   UNL     1      -0.741   9.662  19.968  0.00  0.00    +0.000 C 
ATOM      9  C   UNL     1      -1.005  10.424  21.269  0.00  0.00    +0.000 C 
ATOM     10  C   UNL     1      -0.026  10.248  22.410  0.00  0.00    +0.000 C 
ATOM     11  O   UNL     1      -0.028  11.489  23.144  0.00  0.00    +0.000 OA
ATOM     12  C   UNL     1      -0.825  12.449  22.438  0.00  0.00    +0.000 C 
ATOM     13  C   UNL     1      -0.950  11.917  21.029  0.00  0.00    +0.000 C 
ATOM     14  O   UNL     1      -2.477   9.931  15.349  0.00  0.00    +0.000 OA
ATOM     15  C   UNL     1      -3.360  10.975  14.887  0.00  0.00    +0.000 C 
ATOM     16  O   UNL     1      -4.246  11.440  15.938  0.00  0.00    +0.000 OA
ENDROOT
BRANCH   1  19
ATOM     17  C   UNL     1      -4.490  14.757  21.980  0.00  0.00    +0.000 A 
ATOM     18  C   UNL     1      -3.978  13.569  21.398  0.00  0.00    +0.000 A 
ATOM     19  C   UNL     1      -2.858  13.606  20.563  0.00  0.00    +0.000 A 
ATOM     20  C   UNL     1      -2.314  14.879  20.274  0.00  0.00    +0.000 A 
ATOM     21  C   UNL     1      -2.798  16.069  20.828  0.00  0.00    +0.000 A 
ATOM     22  C   UNL     1      -3.884  15.998  21.703  0.00  0.00    +0.000 A 
BRANCH  17  24
ATOM     23  C   UNL     1      -5.878  13.196  23.179  0.00  0.00    +0.000 C 
ATOM     24  O   UNL     1      -5.585  14.532  22.782  0.00  0.00    +0.000 OA
ENDBRANCH  17  24
BRANCH  21  25
ATOM     25  O   UNL     1      -2.084  17.159  20.410  0.00  0.00    +0.000 OA
ATOM     26  C   UNL     1      -2.509  17.898  19.278  0.00  0.00    +0.000 C 
ENDBRANCH  21  25
BRANCH  22  27
ATOM     27  O   UNL     1      -4.361  17.138  22.286  0.00  0.00    +0.000 OA
ATOM     28  H   UNL     1      -5.327  17.027  22.302  0.00  0.00    +0.000 HD
ENDBRANCH  22  27
ENDBRANCH   1  19
BRANCH   8  29
ATOM     29  N   UNL     1       0.620   9.924  19.493  0.00  0.00    +0.000 N 
ATOM     30  H   UNL     1       0.689  10.777  18.941  0.00  0.00    +0.000 HD
BRANCH  29  31
ATOM     31  C   UNL     1       1.541   8.962  19.087  0.00  0.00    +0.000 A 
ATOM     32  C   UNL     1       2.193   8.950  17.851  0.00  0.00    +0.000 A 
ATOM     33  C   UNL     1       3.063   7.910  17.501  0.00  0.00    +0.000 A 
ATOM     34  C   UNL     1       3.251   6.847  18.378  0.00  0.00    +0.000 A 
ATOM     35  F   UNL     1       4.077   5.847  18.037  0.00  0.00    +0.000 F 
ATOM     36  C   UNL     1       2.577   6.798  19.584  0.00  0.00    +0.000 A 
ATOM     37  C   UNL     1       1.720   7.849  19.928  0.00  0.00    +0.000 A 
ENDBRANCH  29  31
ENDBRANCH   8  29
BRANCH  12  38
ATOM     38  O   UNL     1      -0.177  13.702  22.465  0.00  0.00    +0.000 OA
ATOM     39  H   UNL     1       0.303  13.787  21.627  0.00  0.00    +0.000 HD
ENDBRANCH  12  38
TORSDOF 7
ENDMDL
MODEL 2
REMARK VINA RESULT:      -6.4      0.470      2.205
REMARK  Name = 
REMARK  9 active torsions:
REMARK  status: ('A' for Active; 'I' for Inactive)
REMARK    1  A    between atoms: C_1  and  O_2
REMARK    2  A    between atoms: O_2  and  C_3
REMARK    3  A    between atoms: C_5  and  C_6
REMARK    4  A    between atoms: C_13  and  N_14
REMARK    5  A    between atoms: N_14  and  C_15
REMARK    6  A    between atoms: C_25  and  O_26
REMARK    7  A    between atoms: C_32  and  O_33
REMARK    8  A    between atoms: O_33  and  C_34
REMARK    9  A    between atoms: C_35  and  O_36
REMARK                            x       y       z     vdW  Elec       q    Type
REMARK                         _______ _______ _______ _____ _____    ______ ____
ROOT
ATOM      1  C   UNL     1      -2.007  12.325  20.169  0.00  0.00    +0.000 C 
ATOM      2  C   UNL     1      -2.592  11.229  19.243  0.00  0.00    +0.000 A 
ATOM      3  C   UNL     1      -3.632  11.565  18.366  0.00  0.00    +0.000 A 
ATOM      4  C   UNL     1      -3.529  11.074  17.081  0.00  0.00    +0.000 A 
ATOM      5  C   UNL     1      -2.549  10.182  16.696  0.00  0.00    +0.000 A 
ATOM      6  C   UNL     1      -1.694   9.618  17.617  0.00  0.00    +0.000 A 
ATOM      7  C   UNL     1      -1.716  10.123  18.922  0.00  0.00    +0.000 A 
ATOM      8  C   UNL     1      -0.711   9.581  19.943  0.00  0.00    +0.000 C 
ATOM      9  C   UNL     1      -0.957  10.296  21.275  0.00  0.00    +0.000 C 
ATOM     10  C   UNL     1       0.030  10.069  22.399  0.00  0.00    +0.000 C 
ATOM     11  O   UNL     1       0.045  11.282  23.179  0.00  0.00    +0.000 OA
ATOM     12  C   UNL     1      -0.751  12.275  22.516  0.00  0.00    +0.000 C 
ATOM     13  C   UNL     1      -0.892  11.797  21.090  0.00  0.00    +0.000 C 
ATOM     14  O   UNL     1      -2.485  10.037  15.353  0.00  0.00    +0.000 OA
ATOM     15  C   UNL     1      -3.363  11.105  14.939  0.00  0.00    +0.000 C 
ATOM     16  O   UNL     1      -4.236  11.537  16.015  0.00  0.00    +0.000 OA
ENDROOT
BRANCH   1  19
ATOM     17  C   UNL     1      -3.384  15.888  20.851  0.00  0.00    +0.000 A 
ATOM     18  C   UNL     1      -2.460  14.863  20.525  0.00  0.00    +0.000 A 
ATOM     19  C   UNL     1      -2.790  13.518  20.704  0.00  0.00    +0.000 A 
ATOM     20  C   UNL     1      -4.046  13.237  21.288  0.00  0.00    +0.000 A 
ATOM     21  C   UNL     1      -4.978  14.224  21.626  0.00  0.00    +0.000 A 
ATOM     22  C   UNL     1      -4.646  15.558  21.385  0.00  0.00    +0.000 A 
BRANCH  17  24
ATOM     23  C   UNL     1      -1.865  17.302  19.629  0.00  0.00    +0.000 C 
ATOM     24  O   UNL     1      -2.898  17.150  20.599  0.00  0.00    +0.000 OA
ENDBRANCH  17  24
BRANCH  21  25
ATOM     25  O   UNL     1      -6.125  13.691  22.150  0.00  0.00    +0.000 OA
ATOM     26  C   UNL     1      -6.229  13.458  23.545  0.00  0.00    +0.000 C 
ENDBRANCH  21  25
BRANCH  22  27
ATOM     27  O   UNL     1      -5.546  16.544  21.674  0.00  0.00    +0.000 OA
ATOM     28  H   UNL     1      -5.529  16.625  22.644  0.00  0.00    +0.000 HD
ENDBRANCH  22  27
ENDBRANCH   1  19
BRANCH   8  29
ATOM     29  N   UNL     1       0.648   9.849  19.466  0.00  0.00    +0.000 N 
ATOM     30  H   UNL     1       0.711  10.701  18.912  0.00  0.00    +0.000 HD
BRANCH  29  31
ATOM     31  C   UNL     1       1.573   8.892  19.063  0.00  0.00    +0.000 A 
ATOM     32  C   UNL     1       2.233   8.886  17.830  0.00  0.00    +0.000 A 
ATOM     33  C   UNL     1       3.107   7.850  17.481  0.00  0.00    +0.000 A 
ATOM     34  C   UNL     1       3.293   6.783  18.354  0.00  0.00    +0.000 A 
ATOM     35  F   UNL     1       4.123   5.787  18.014  0.00  0.00    +0.000 F 
ATOM     36  C   UNL     1       2.611   6.728  19.557  0.00  0.00    +0.000 A 
ATOM     37  C   UNL     1       1.750   7.775  19.899  0.00  0.00    +0.000 A 
ENDBRANCH  29  31
ENDBRANCH   8  29
BRANCH  12  38
ATOM     38  O   UNL     1      -0.091  13.521  22.584  0.00  0.00    +0.000 OA
ATOM     39  H   UNL     1      -0.239  13.962  21.734  0.00  0.00    +0.000 HD
ENDBRANCH  12  38
TORSDOF 7
ENDMDL
MODEL 3
REMARK VINA RESULT:      -6.4      8.105     10.226
REMARK  Name = 
REMARK  9 active torsions:
REMARK  status: ('A' for Active; 'I' for Inactive)
REMARK    1  A    between atoms: C_1  and  O_2
REMARK    2  A    between atoms: O_2  and  C_3
REMARK    3  A    between atoms: C_5  and  C_6
REMARK    4  A    between atoms: C_13  and  N_14
REMARK    5  A    between atoms: N_14  and  C_15
REMARK    6  A    between atoms: C_25  and  O_26
REMARK    7  A    between atoms: C_32  and  O_33
REMARK    8  A    between atoms: O_33  and  C_34
REMARK    9  A    between atoms: C_35  and  O_36
REMARK                            x       y       z     vdW  Elec       q    Type
REMARK                         _______ _______ _______ _____ _____    ______ ____
ROOT
ATOM      1  C   UNL     1       7.299  14.846  20.251  0.00  0.00    +0.000 C 
ATOM      2  C   UNL     1       7.496  14.617  21.771  0.00  0.00    +0.000 A 
ATOM      3  C   UNL     1       6.386  14.276  22.555  0.00  0.00    +0.000 A 
ATOM      4  C   UNL     1       6.578  13.267  23.477  0.00  0.00    +0.000 A 
ATOM      5  C   UNL     1       7.814  12.711  23.733  0.00  0.00    +0.000 A 
ATOM      6  C   UNL     1       8.962  13.234  23.179  0.00  0.00    +0.000 A 
ATOM      7  C   UNL     1       8.821  14.219  22.195  0.00  0.00    +0.000 A 
ATOM      8  C   UNL     1      10.074  14.751  21.494  0.00  0.00    +0.000 C 
ATOM      9  C   UNL     1       9.636  15.809  20.478  0.00  0.00    +0.000 C 
ATOM     10  C   UNL     1      10.675  16.356  19.524  0.00  0.00    +0.000 C 
ATOM     11  O   UNL     1       9.975  16.698  18.310  0.00  0.00    +0.000 OA
ATOM     12  C   UNL     1       8.614  16.256  18.415  0.00  0.00    +0.000 C 
ATOM     13  C   UNL     1       8.601  15.238  19.532  0.00  0.00    +0.000 C 
ATOM     14  O   UNL     1       7.726  11.582  24.472  0.00  0.00    +0.000 OA
ATOM     15  C   UNL     1       6.300  11.370  24.446  0.00  0.00    +0.000 C 
ATOM     16  O   UNL     1       5.578  12.577  24.090  0.00  0.00    +0.000 OA
ENDROOT
BRANCH   1  19
ATOM     17  C   UNL     1       3.865  15.121  18.463  0.00  0.00    +0.000 A 
ATOM     18  C   UNL     1       5.149  14.620  18.802  0.00  0.00    +0.000 A 
ATOM     19  C   UNL     1       6.015  15.360  19.610  0.00  0.00    +0.000 A 
ATOM     20  C   UNL     1       5.583  16.646  20.007  0.00  0.00    +0.000 A 
ATOM     21  C   UNL     1       4.326  17.171  19.687  0.00  0.00    +0.000 A 
ATOM     22  C   UNL     1       3.458  16.389  18.924  0.00  0.00    +0.000 A 
BRANCH  17  24
ATOM     23  C   UNL     1       2.565  13.103  18.275  0.00  0.00    +0.000 C 
ATOM     24  O   UNL     1       3.143  14.257  17.673  0.00  0.00    +0.000 OA
ENDBRANCH  17  24
BRANCH  21  25
ATOM     25  O   UNL     1       4.142  18.421  20.212  0.00  0.00    +0.000 OA
ATOM     26  C   UNL     1       3.665  18.574  21.538  0.00  0.00    +0.000 C 
ENDBRANCH  21  25
BRANCH  22  27
ATOM     27  O   UNL     1       2.211  16.859  18.620  0.00  0.00    +0.000 OA
ATOM     28  H   UNL     1       1.606  16.129  18.839  0.00  0.00    +0.000 HD
ENDBRANCH  22  27
ENDBRANCH   1  19
BRANCH   8  29
ATOM     29  N   UNL     1      10.749  13.642  20.814  0.00  0.00    +0.000 N 
ATOM     30  H   UNL     1      11.624  13.922  20.374  0.00  0.00    +0.000 HD
BRANCH  29  31
ATOM     31  C   UNL     1      10.124  12.609  20.124  0.00  0.00    +0.000 A 
ATOM     32  C   UNL     1       9.752  11.383  20.684  0.00  0.00    +0.000 A 
ATOM     33  C   UNL     1       9.178  10.373  19.902  0.00  0.00    +0.000 A 
ATOM     34  C   UNL     1       9.012  10.572  18.536  0.00  0.00    +0.000 A 
ATOM     35  F   UNL     1       8.471   9.601  17.787  0.00  0.00    +0.000 F 
ATOM     36  C   UNL     1       9.422  11.751  17.938  0.00  0.00    +0.000 A 
ATOM     37  C   UNL     1       9.982  12.756  18.732  0.00  0.00    +0.000 A 
ENDBRANCH  29  31
ENDBRANCH   8  29
BRANCH  12  38
ATOM     38  O   UNL     1       8.215  15.686  17.187  0.00  0.00    +0.000 OA
ATOM     39  H   UNL     1       8.905  15.053  16.936  0.00  0.00    +0.000 HD
ENDBRANCH  12  38
TORSDOF 7
ENDMDL
MODEL 4
REMARK VINA RESULT:      -6.2      1.600      2.063
REMARK  Name = 
REMARK  9 active torsions:
REMARK  status: ('A' for Active; 'I' for Inactive)
REMARK    1  A    between atoms: C_1  and  O_2
REMARK    2  A    between atoms: O_2  and  C_3
REMARK    3  A    between atoms: C_5  and  C_6
REMARK    4  A    between atoms: C_13  and  N_14
REMARK    5  A    between atoms: N_14  and  C_15
REMARK    6  A    between atoms: C_25  and  O_26
REMARK    7  A    between atoms: C_32  and  O_33
REMARK    8  A    between atoms: O_33  and  C_34
REMARK    9  A    between atoms: C_35  and  O_36
REMARK                            x       y       z     vdW  Elec       q    Type
REMARK                         _______ _______ _______ _____ _____    ______ ____
ROOT
ATOM      1  C   UNL     1      -0.669  12.771  19.028  0.00  0.00    +0.000 C 
ATOM      2  C   UNL     1      -1.668  11.648  18.653  0.00  0.00    +0.000 A 
ATOM      3  C   UNL     1      -2.853  11.988  17.986  0.00  0.00    +0.000 A 
ATOM      4  C   UNL     1      -3.213  11.175  16.931  0.00  0.00    +0.000 A 
ATOM      5  C   UNL     1      -2.546  10.007  16.624  0.00  0.00    +0.000 A 
ATOM      6  C   UNL     1      -1.559   9.510  17.445  0.00  0.00    +0.000 A 
ATOM      7  C   UNL     1      -1.114  10.321  18.496  0.00  0.00    +0.000 A 
ATOM      8  C   UNL     1       0.046   9.833  19.367  0.00  0.00    +0.000 C 
ATOM      9  C   UNL     1       0.322  10.902  20.429  0.00  0.00    +0.000 C 
ATOM     10  C   UNL     1       1.547  10.741  21.303  0.00  0.00    +0.000 C 
ATOM     11  O   UNL     1       1.985  12.073  21.641  0.00  0.00    +0.000 OA
ATOM     12  C   UNL     1       1.199  13.023  20.909  0.00  0.00    +0.000 C 
ATOM     13  C   UNL     1       0.568  12.246  19.777  0.00  0.00    +0.000 C 
ATOM     14  O   UNL     1      -2.905   9.514  15.417  0.00  0.00    +0.000 OA
ATOM     15  C   UNL     1      -3.683  10.618  14.910  0.00  0.00    +0.000 C 
ATOM     16  O   UNL     1      -4.119  11.506  15.972  0.00  0.00    +0.000 OA
ENDROOT
BRANCH   1  19
ATOM     17  C   UNL     1      -1.966  16.012  20.723  0.00  0.00    +0.000 A 
ATOM     18  C   UNL     1      -1.871  14.638  20.387  0.00  0.00    +0.000 A 
ATOM     19  C   UNL     1      -1.058  14.213  19.334  0.00  0.00    +0.000 A 
ATOM     20  C   UNL     1      -0.401  15.215  18.584  0.00  0.00    +0.000 A 
ATOM     21  C   UNL     1      -0.478  16.580  18.887  0.00  0.00    +0.000 A 
ATOM     22  C   UNL     1      -1.253  16.973  19.978  0.00  0.00    +0.000 A 
BRANCH  17  24
ATOM     23  C   UNL     1      -3.505  15.149  22.362  0.00  0.00    +0.000 C 
ATOM     24  O   UNL     1      -2.800  16.248  21.792  0.00  0.00    +0.000 OA
ENDBRANCH  17  24
BRANCH  21  25
ATOM     25  O   UNL     1       0.269  17.340  18.027  0.00  0.00    +0.000 OA
ATOM     26  C   UNL     1      -0.370  18.133  17.040  0.00  0.00    +0.000 C 
ENDBRANCH  21  25
BRANCH  22  27
ATOM     27  O   UNL     1      -1.324  18.294  20.319  0.00  0.00    +0.000 OA
ATOM     28  H   UNL     1      -2.000  18.671  19.729  0.00  0.00    +0.000 HD
ENDBRANCH  22  27
ENDBRANCH   1  19
BRANCH   8  29
ATOM     29  N   UNL     1       1.229   9.639  18.525  0.00  0.00    +0.000 N 
ATOM     30  H   UNL     1       1.116  10.024  17.589  0.00  0.00    +0.000 HD
BRANCH  29  31
ATOM     31  C   UNL     1       2.061   8.523  18.535  0.00  0.00    +0.000 A 
ATOM     32  C   UNL     1       2.974   8.198  17.528  0.00  0.00    +0.000 A 
ATOM     33  C   UNL     1       3.732   7.022  17.590  0.00  0.00    +0.000 A 
ATOM     34  C   UNL     1       3.547   6.139  18.648  0.00  0.00    +0.000 A 
ATOM     35  F   UNL     1       4.267   5.010  18.701  0.00  0.00    +0.000 F 
ATOM     36  C   UNL     1       2.610   6.402  19.632  0.00  0.00    +0.000 A 
ATOM     37  C   UNL     1       1.868   7.585  19.565  0.00  0.00    +0.000 A 
ENDBRANCH  29  31
ENDBRANCH   8  29
BRANCH  12  38
ATOM     38  O   UNL     1       2.040  14.050  20.429  0.00  0.00    +0.000 OA
ATOM     39  H   UNL     1       1.555  14.500  19.720  0.00  0.00    +0.000 HD
ENDBRANCH  12  38
TORSDOF 7
ENDMDL
MODEL 5
REMARK VINA RESULT:      -6.2      2.376      4.868
REMARK  Name = 
REMARK  9 active torsions:
REMARK  status: ('A' for Active; 'I' for Inactive)
REMARK    1  A    between atoms: C_1  and  O_2
REMARK    2  A    between atoms: O_2  and  C_3
REMARK    3  A    between atoms: C_5  and  C_6
REMARK    4  A    between atoms: C_13  and  N_14
REMARK    5  A    between atoms: N_14  and  C_15
REMARK    6  A    between atoms: C_25  and  O_26
REMARK    7  A    between atoms: C_32  and  O_33
REMARK    8  A    between atoms: O_33  and  C_34
REMARK    9  A    between atoms: C_35  and  O_36
REMARK                            x       y       z     vdW  Elec       q    Type
REMARK                         _______ _______ _______ _____ _____    ______ ____
ROOT
ATOM      1  C   UNL     1      -1.528  13.978  20.970  0.00  0.00    +0.000 C 
ATOM      2  C   UNL     1      -0.107  14.245  20.411  0.00  0.00    +0.000 A 
ATOM      3  C   UNL     1       0.632  15.320  20.921  0.00  0.00    +0.000 A 
ATOM      4  C   UNL     1       1.962  15.071  21.194  0.00  0.00    +0.000 A 
ATOM      5  C   UNL     1       2.587  13.888  20.858  0.00  0.00    +0.000 A 
ATOM      6  C   UNL     1       1.949  12.933  20.098  0.00  0.00    +0.000 A 
ATOM      7  C   UNL     1       0.584  13.108  19.842  0.00  0.00    +0.000 A 
ATOM      8  C   UNL     1      -0.173  12.016  19.080  0.00  0.00    +0.000 C 
ATOM      9  C   UNL     1      -1.631  12.462  18.938  0.00  0.00    +0.000 C 
ATOM     10  C   UNL     1      -2.629  11.470  18.382  0.00  0.00    +0.000 C 
ATOM     11  O   UNL     1      -3.898  11.781  18.993  0.00  0.00    +0.000 OA
ATOM     12  C   UNL     1      -3.701  12.794  19.989  0.00  0.00    +0.000 C 
ATOM     13  C   UNL     1      -2.221  12.782  20.295  0.00  0.00    +0.000 C 
ATOM     14  O   UNL     1       3.801  13.766  21.441  0.00  0.00    +0.000 OA
ATOM     15  C   UNL     1       3.759  14.881  22.356  0.00  0.00    +0.000 C 
ATOM     16  O   UNL     1       2.752  15.855  21.978  0.00  0.00    +0.000 OA
ENDROOT
BRANCH   1  19
ATOM     17  C   UNL     1      -4.224  16.741  21.369  0.00  0.00    +0.000 A 
ATOM     18  C   UNL     1      -3.209  15.954  20.765  0.00  0.00    +0.000 A 
ATOM     19  C   UNL     1      -2.459  15.051  21.522  0.00  0.00    +0.000 A 
ATOM     20  C   UNL     1      -2.708  15.015  22.913  0.00  0.00    +0.000 A 
ATOM     21  C   UNL     1      -3.698  15.781  23.539  0.00  0.00    +0.000 A 
ATOM     22  C   UNL     1      -4.471  16.635  22.752  0.00  0.00    +0.000 A 
BRANCH  17  24
ATOM     23  C   UNL     1      -4.167  17.988  19.309  0.00  0.00    +0.000 C 
ATOM     24  O   UNL     1      -4.869  17.563  20.474  0.00  0.00    +0.000 OA
ENDBRANCH  17  24
BRANCH  21  25
ATOM     25  O   UNL     1      -3.755  15.544  24.886  0.00  0.00    +0.000 OA
ATOM     26  C   UNL     1      -2.561  15.448  25.644  0.00  0.00    +0.000 C 
ENDBRANCH  21  25
BRANCH  22  27
ATOM     27  O   UNL     1      -5.466  17.373  23.327  0.00  0.00    +0.000 OA
ATOM     28  H   UNL     1      -5.593  16.982  24.209  0.00  0.00    +0.000 HD
ENDBRANCH  22  27
ENDBRANCH   1  19
BRANCH   8  29
ATOM     29  N   UNL     1      -0.096  10.764  19.837  0.00  0.00    +0.000 N 
ATOM     30  H   UNL     1      -0.161  10.905  20.843  0.00  0.00    +0.000 HD
BRANCH  29  31
ATOM     31  C   UNL     1       0.692   9.664  19.512  0.00  0.00    +0.000 A 
ATOM     32  C   UNL     1       1.143   8.705  20.424  0.00  0.00    +0.000 A 
ATOM     33  C   UNL     1       1.982   7.660  20.022  0.00  0.00    +0.000 A 
ATOM     34  C   UNL     1       2.412   7.593  18.700  0.00  0.00    +0.000 A 
ATOM     35  F   UNL     1       3.223   6.596  18.318  0.00  0.00    +0.000 F 
ATOM     36  C   UNL     1       2.031   8.557  17.784  0.00  0.00    +0.000 A 
ATOM     37  C   UNL     1       1.183   9.589  18.196  0.00  0.00    +0.000 A 
ENDBRANCH  29  31
ENDBRANCH   8  29
BRANCH  12  38
ATOM     38  O   UNL     1      -4.470  12.478  21.130  0.00  0.00    +0.000 OA
ATOM     39  H   UNL     1      -4.486  13.273  21.685  0.00  0.00    +0.000 HD
ENDBRANCH  12  38
TORSDOF 7
ENDMDL
MODEL 6
REMARK VINA RESULT:      -6.1      3.456      4.701
REMARK  Name = 
REMARK  9 active torsions:
REMARK  status: ('A' for Active; 'I' for Inactive)
REMARK    1  A    between atoms: C_1  and  O_2
REMARK    2  A    between atoms: O_2  and  C_3
REMARK    3  A    between atoms: C_5  and  C_6
REMARK    4  A    between atoms: C_13  and  N_14
REMARK    5  A    between atoms: N_14  and  C_15
REMARK    6  A    between atoms: C_25  and  O_26
REMARK    7  A    between atoms: C_32  and  O_33
REMARK    8  A    between atoms: O_33  and  C_34
REMARK    9  A    between atoms: C_35  and  O_36
REMARK                            x       y       z     vdW  Elec       q    Type
REMARK                         _______ _______ _______ _____ _____    ______ ____
ROOT
ATOM      1  C   UNL     1      -2.975  13.950  20.490  0.00  0.00    +0.000 C 
ATOM      2  C   UNL     1      -2.623  12.630  19.757  0.00  0.00    +0.000 A 
ATOM      3  C   UNL     1      -3.662  11.824  19.275  0.00  0.00    +0.000 A 
ATOM      4  C   UNL     1      -3.494  11.308  18.006  0.00  0.00    +0.000 A 
ATOM      5  C   UNL     1      -2.321  11.441  17.292  0.00  0.00    +0.000 A 
ATOM      6  C   UNL     1      -1.192  11.981  17.867  0.00  0.00    +0.000 A 
ATOM      7  C   UNL     1      -1.321  12.571  19.129  0.00  0.00    +0.000 A 
ATOM      8  C   UNL     1      -0.104  13.262  19.752  0.00  0.00    +0.000 C 
ATOM      9  C   UNL     1      -0.520  13.811  21.119  0.00  0.00    +0.000 C 
ATOM     10  C   UNL     1       0.456  14.701  21.858  0.00  0.00    +0.000 C 
ATOM     11  O   UNL     1      -0.337  15.617  22.640  0.00  0.00    +0.000 OA
ATOM     12  C   UNL     1      -1.721  15.439  22.306  0.00  0.00    +0.000 C 
ATOM     13  C   UNL     1      -1.731  14.710  20.983  0.00  0.00    +0.000 C 
ATOM     14  O   UNL     1      -2.466  11.087  15.995  0.00  0.00    +0.000 OA
ATOM     15  C   UNL     1      -3.901  10.949  15.927  0.00  0.00    +0.000 C 
ATOM     16  O   UNL     1      -4.493  10.789  17.242  0.00  0.00    +0.000 OA
ENDROOT
BRANCH   1  19
ATOM     17  C   UNL     1      -6.531  14.998  21.637  0.00  0.00    +0.000 A 
ATOM     18  C   UNL     1      -5.292  15.043  20.947  0.00  0.00    +0.000 A 
ATOM     19  C   UNL     1      -4.248  14.183  21.295  0.00  0.00    +0.000 A 
ATOM     20  C   UNL     1      -4.460  13.328  22.401  0.00  0.00    +0.000 A 
ATOM     21  C   UNL     1      -5.668  13.263  23.105  0.00  0.00    +0.000 A 
ATOM     22  C   UNL     1      -6.714  14.094  22.703  0.00  0.00    +0.000 A 
BRANCH  17  24
ATOM     23  C   UNL     1      -7.449  16.196  19.761  0.00  0.00    +0.000 C 
ATOM     24  O   UNL     1      -7.447  15.904  21.155  0.00  0.00    +0.000 OA
ENDBRANCH  17  24
BRANCH  21  25
ATOM     25  O   UNL     1      -5.625  12.339  24.114  0.00  0.00    +0.000 OA
ATOM     26  C   UNL     1      -4.540  12.331  25.027  0.00  0.00    +0.000 C 
ENDBRANCH  21  25
BRANCH  22  27
ATOM     27  O   UNL     1      -7.916  14.032  23.349  0.00  0.00    +0.000 OA
ATOM     28  H   UNL     1      -7.875  13.219  23.881  0.00  0.00    +0.000 HD
ENDBRANCH  22  27
ENDBRANCH   1  19
BRANCH   8  29
ATOM     29  N   UNL     1       0.327  14.354  18.875  0.00  0.00    +0.000 N 
ATOM     30  H   UNL     1      -0.241  14.433  18.033  0.00  0.00    +0.000 HD
BRANCH  29  31
ATOM     31  C   UNL     1       1.641  14.755  18.660  0.00  0.00    +0.000 A 
ATOM     32  C   UNL     1       2.060  16.082  18.520  0.00  0.00    +0.000 A 
ATOM     33  C   UNL     1       3.397  16.394  18.247  0.00  0.00    +0.000 A 
ATOM     34  C   UNL     1       4.321  15.369  18.069  0.00  0.00    +0.000 A 
ATOM     35  F   UNL     1       5.599  15.670  17.799  0.00  0.00    +0.000 F 
ATOM     36  C   UNL     1       3.929  14.045  18.144  0.00  0.00    +0.000 A 
ATOM     37  C   UNL     1       2.593  13.745  18.429  0.00  0.00    +0.000 A 
ENDBRANCH  29  31
ENDBRANCH   8  29
BRANCH  12  38
ATOM     38  O   UNL     1      -2.342  16.703  22.209  0.00  0.00    +0.000 OA
ATOM     39  H   UNL     1      -2.670  16.783  21.300  0.00  0.00    +0.000 HD
ENDBRANCH  12  38
TORSDOF 7
ENDMDL
MODEL 7
REMARK VINA RESULT:      -6.1      3.802      5.664
REMARK  Name = 
REMARK  9 active torsions:
REMARK  status: ('A' for Active; 'I' for Inactive)
REMARK    1  A    between atoms: C_1  and  O_2
REMARK    2  A    between atoms: O_2  and  C_3
REMARK    3  A    between atoms: C_5  and  C_6
REMARK    4  A    between atoms: C_13  and  N_14
REMARK    5  A    between atoms: N_14  and  C_15
REMARK    6  A    between atoms: C_25  and  O_26
REMARK    7  A    between atoms: C_32  and  O_33
REMARK    8  A    between atoms: O_33  and  C_34
REMARK    9  A    between atoms: C_35  and  O_36
REMARK                            x       y       z     vdW  Elec       q    Type
REMARK                         _______ _______ _______ _____ _____    ______ ____
ROOT
ATOM      1  C   UNL     1      -0.948  13.452  21.320  0.00  0.00    +0.000 C 
ATOM      2  C   UNL     1      -0.967  14.353  20.059  0.00  0.00    +0.000 A 
ATOM      3  C   UNL     1      -1.714  15.538  20.083  0.00  0.00    +0.000 A 
ATOM      4  C   UNL     1      -1.105  16.654  19.546  0.00  0.00    +0.000 A 
ATOM      5  C   UNL     1       0.106  16.602  18.887  0.00  0.00    +0.000 A 
ATOM      6  C   UNL     1       0.714  15.399  18.602  0.00  0.00    +0.000 A 
ATOM      7  C   UNL     1       0.170  14.242  19.171  0.00  0.00    +0.000 A 
ATOM      8  C   UNL     1       0.879  12.903  18.949  0.00  0.00    +0.000 C 
ATOM      9  C   UNL     1       0.077  11.817  19.672  0.00  0.00    +0.000 C 
ATOM     10  C   UNL     1       0.673  10.429  19.758  0.00  0.00    +0.000 C 
ATOM     11  O   UNL     1       0.189   9.853  20.989  0.00  0.00    +0.000 OA
ATOM     12  C   UNL     1      -0.534  10.853  21.720  0.00  0.00    +0.000 C 
ATOM     13  C   UNL     1      -0.107  12.177  21.131  0.00  0.00    +0.000 C 
ATOM     14  O   UNL     1       0.628  17.831  18.674  0.00  0.00    +0.000 OA
ATOM     15  C   UNL     1      -0.266  18.631  19.475  0.00  0.00    +0.000 C 
ATOM     16  O   UNL     1      -1.508  17.936  19.760  0.00  0.00    +0.000 OA
ENDROOT
BRANCH   1  19
ATOM     17  C   UNL     1      -3.288  13.929  24.378  0.00  0.00    +0.000 A 
ATOM     18  C   UNL     1      -2.091  13.875  23.620  0.00  0.00    +0.000 A 
ATOM     19  C   UNL     1      -2.086  13.345  22.328  0.00  0.00    +0.000 A 
ATOM     20  C   UNL     1      -3.302  12.806  21.849  0.00  0.00    +0.000 A 
ATOM     21  C   UNL     1      -4.499  12.840  22.574  0.00  0.00    +0.000 A 
ATOM     22  C   UNL     1      -4.489  13.425  23.841  0.00  0.00    +0.000 A 
BRANCH  17  24
ATOM     23  C   UNL     1      -2.201  15.580  25.754  0.00  0.00    +0.000 C 
ATOM     24  O   UNL     1      -3.111  14.492  25.621  0.00  0.00    +0.000 OA
ENDBRANCH  17  24
BRANCH  21  25
ATOM     25  O   UNL     1      -5.536  12.277  21.880  0.00  0.00    +0.000 OA
ATOM     26  C   UNL     1      -5.529  12.279  20.462  0.00  0.00    +0.000 C 
ENDBRANCH  21  25
BRANCH  22  27
ATOM     27  O   UNL     1      -5.647  13.502  24.561  0.00  0.00    +0.000 OA
ATOM     28  H   UNL     1      -6.341  13.180  23.960  0.00  0.00    +0.000 HD
ENDBRANCH  22  27
ENDBRANCH   1  19
BRANCH   8  29
ATOM     29  N   UNL     1       2.235  12.983  19.498  0.00  0.00    +0.000 N 
ATOM     30  H   UNL     1       2.294  12.646  20.458  0.00  0.00    +0.000 HD
BRANCH  29  31
ATOM     31  C   UNL     1       3.161  13.988  19.238  0.00  0.00    +0.000 A 
ATOM     32  C   UNL     1       3.778  14.208  18.003  0.00  0.00    +0.000 A 
ATOM     33  C   UNL     1       4.744  15.209  17.844  0.00  0.00    +0.000 A 
ATOM     34  C   UNL     1       5.132  15.971  18.941  0.00  0.00    +0.000 A 
ATOM     35  F   UNL     1       6.064  16.923  18.788  0.00  0.00    +0.000 F 
ATOM     36  C   UNL     1       4.584  15.741  20.190  0.00  0.00    +0.000 A 
ATOM     37  C   UNL     1       3.611  14.748  20.334  0.00  0.00    +0.000 A 
ENDBRANCH  29  31
ENDBRANCH   8  29
BRANCH  12  38
ATOM     38  O   UNL     1      -0.198  10.761  23.088  0.00  0.00    +0.000 OA
ATOM     39  H   UNL     1      -0.550   9.916  23.406  0.00  0.00    +0.000 HD
ENDBRANCH  12  38
TORSDOF 7
ENDMDL
MODEL 8
REMARK VINA RESULT:      -6.0      1.714      2.999
REMARK  Name = 
REMARK  9 active torsions:
REMARK  status: ('A' for Active; 'I' for Inactive)
REMARK    1  A    between atoms: C_1  and  O_2
REMARK    2  A    between atoms: O_2  and  C_3
REMARK    3  A    between atoms: C_5  and  C_6
REMARK    4  A    between atoms: C_13  and  N_14
REMARK    5  A    between atoms: N_14  and  C_15
REMARK    6  A    between atoms: C_25  and  O_26
REMARK    7  A    between atoms: C_32  and  O_33
REMARK    8  A    between atoms: O_33  and  C_34
REMARK    9  A    between atoms: C_35  and  O_36
REMARK                            x       y       z     vdW  Elec       q    Type
REMARK                         _______ _______ _______ _____ _____    ______ ____
ROOT
ATOM      1  C   UNL     1      -0.428  12.911  19.065  0.00  0.00    +0.000 C 
ATOM      2  C   UNL     1      -1.504  11.821  18.824  0.00  0.00    +0.000 A 
ATOM      3  C   UNL     1      -2.714  12.185  18.219  0.00  0.00    +0.000 A 
ATOM      4  C   UNL     1      -3.186  11.334  17.240  0.00  0.00    +0.000 A 
ATOM      5  C   UNL     1      -2.598  10.119  16.957  0.00  0.00    +0.000 A 
ATOM      6  C   UNL     1      -1.581   9.617  17.739  0.00  0.00    +0.000 A 
ATOM      7  C   UNL     1      -1.026  10.460  18.708  0.00  0.00    +0.000 A 
ATOM      8  C   UNL     1       0.168   9.963  19.527  0.00  0.00    +0.000 C 
ATOM      9  C   UNL     1       0.567  11.073  20.504  0.00  0.00    +0.000 C 
ATOM     10  C   UNL     1       1.841  10.897  21.302  0.00  0.00    +0.000 C 
ATOM     11  O   UNL     1       2.365  12.221  21.531  0.00  0.00    +0.000 OA
ATOM     12  C   UNL     1       1.575  13.169  20.799  0.00  0.00    +0.000 C 
ATOM     13  C   UNL     1       0.832  12.364  19.759  0.00  0.00    +0.000 C 
ATOM     14  O   UNL     1      -3.064   9.579  15.808  0.00  0.00    +0.000 OA
ATOM     15  C   UNL     1      -3.822  10.691  15.291  0.00  0.00    +0.000 C 
ATOM     16  O   UNL     1      -4.140  11.658  16.326  0.00  0.00    +0.000 OA
ENDROOT
BRANCH   1  19
ATOM     17  C   UNL     1      -0.872  16.747  18.687  0.00  0.00    +0.000 A 
ATOM     18  C   UNL     1      -0.334  15.449  18.496  0.00  0.00    +0.000 A 
ATOM     19  C   UNL     1      -0.726  14.385  19.312  0.00  0.00    +0.000 A 
ATOM     20  C   UNL     1      -1.618  14.679  20.369  0.00  0.00    +0.000 A 
ATOM     21  C   UNL     1      -2.163  15.950  20.587  0.00  0.00    +0.000 A 
ATOM     22  C   UNL     1      -1.797  16.984  19.724  0.00  0.00    +0.000 A 
BRANCH  17  24
ATOM     23  C   UNL     1       0.994  18.016  17.848  0.00  0.00    +0.000 C 
ATOM     24  O   UNL     1      -0.386  17.668  17.788  0.00  0.00    +0.000 OA
ENDBRANCH  17  24
BRANCH  21  25
ATOM     25  O   UNL     1      -3.017  15.966  21.656  0.00  0.00    +0.000 OA
ATOM     26  C   UNL     1      -4.039  14.990  21.767  0.00  0.00    +0.000 C 
ENDBRANCH  21  25
BRANCH  22  27
ATOM     27  O   UNL     1      -2.336  18.228  19.890  0.00  0.00    +0.000 OA
ATOM     28  H   UNL     1      -2.227  18.667  19.028  0.00  0.00    +0.000 HD
ENDBRANCH  22  27
ENDBRANCH   1  19
BRANCH   8  29
ATOM     29  N   UNL     1       1.279   9.661  18.620  0.00  0.00    +0.000 N 
ATOM     30  H   UNL     1       1.120  10.002  17.674  0.00  0.00    +0.000 HD
BRANCH  29  31
ATOM     31  C   UNL     1       2.053   8.506  18.638  0.00  0.00    +0.000 A 
ATOM     32  C   UNL     1       2.900   8.094  17.604  0.00  0.00    +0.000 A 
ATOM     33  C   UNL     1       3.601   6.884  17.680  0.00  0.00    +0.000 A 
ATOM     34  C   UNL     1       3.423   6.055  18.782  0.00  0.00    +0.000 A 
ATOM     35  F   UNL     1       4.088   4.893  18.848  0.00  0.00    +0.000 F 
ATOM     36  C   UNL     1       2.549   6.404  19.796  0.00  0.00    +0.000 A 
ATOM     37  C   UNL     1       1.864   7.620  19.714  0.00  0.00    +0.000 A 
ENDBRANCH  29  31
ENDBRANCH   8  29
BRANCH  12  38
ATOM     38  O   UNL     1       2.429  14.124  20.205  0.00  0.00    +0.000 OA
ATOM     39  H   UNL     1       2.538  14.840  20.849  0.00  0.00    +0.000 HD
ENDBRANCH  12  38
TORSDOF 7
ENDMDL
MODEL 9
REMARK VINA RESULT:      -6.0      8.864     11.318
REMARK  Name = 
REMARK  9 active torsions:
REMARK  status: ('A' for Active; 'I' for Inactive)
REMARK    1  A    between atoms: C_1  and  O_2
REMARK    2  A    between atoms: O_2  and  C_3
REMARK    3  A    between atoms: C_5  and  C_6
REMARK    4  A    between atoms: C_13  and  N_14
REMARK    5  A    between atoms: N_14  and  C_15
REMARK    6  A    between atoms: C_25  and  O_26
REMARK    7  A    between atoms: C_32  and  O_33
REMARK    8  A    between atoms: O_33  and  C_34
REMARK    9  A    between atoms: C_35  and  O_36
REMARK                            x       y       z     vdW  Elec       q    Type
REMARK                         _______ _______ _______ _____ _____    ______ ____
ROOT
ATOM      1  C   UNL     1       7.528  14.657  20.169  0.00  0.00    +0.000 C 
ATOM      2  C   UNL     1       6.048  15.109  20.254  0.00  0.00    +0.000 A 
ATOM      3  C   UNL     1       5.339  15.339  19.067  0.00  0.00    +0.000 A 
ATOM      4  C   UNL     1       4.055  14.837  19.017  0.00  0.00    +0.000 A 
ATOM      5  C   UNL     1       3.430  14.268  20.107  0.00  0.00    +0.000 A 
ATOM      6  C   UNL     1       4.007  14.296  21.358  0.00  0.00    +0.000 A 
ATOM      7  C   UNL     1       5.331  14.741  21.455  0.00  0.00    +0.000 A 
ATOM      8  C   UNL     1       6.029  14.693  22.817  0.00  0.00    +0.000 C 
ATOM      9  C   UNL     1       7.451  15.235  22.639  0.00  0.00    +0.000 C 
ATOM     10  C   UNL     1       8.409  15.121  23.804  0.00  0.00    +0.000 C 
ATOM     11  O   UNL     1       9.728  14.986  23.236  0.00  0.00    +0.000 OA
ATOM     12  C   UNL     1       9.613  14.860  21.812  0.00  0.00    +0.000 C 
ATOM     13  C   UNL     1       8.176  14.471  21.552  0.00  0.00    +0.000 C 
ATOM     14  O   UNL     1       2.291  13.624  19.768  0.00  0.00    +0.000 OA
ATOM     15  C   UNL     1       2.400  13.651  18.330  0.00  0.00    +0.000 C 
ATOM     16  O   UNL     1       3.334  14.666  17.876  0.00  0.00    +0.000 OA
ENDROOT
BRANCH   1  19
ATOM     17  C   UNL     1       9.920  16.536  17.759  0.00  0.00    +0.000 A 
ATOM     18  C   UNL     1       8.841  16.316  18.653  0.00  0.00    +0.000 A 
ATOM     19  C   UNL     1       8.484  15.023  19.040  0.00  0.00    +0.000 A 
ATOM     20  C   UNL     1       9.195  13.955  18.446  0.00  0.00    +0.000 A 
ATOM     21  C   UNL     1      10.261  14.138  17.557  0.00  0.00    +0.000 A 
ATOM     22  C   UNL     1      10.633  15.442  17.230  0.00  0.00    +0.000 A 
BRANCH  17  24
ATOM     23  C   UNL     1      10.901  18.630  18.432  0.00  0.00    +0.000 C 
ATOM     24  O   UNL     1      10.139  17.869  17.499  0.00  0.00    +0.000 OA
ENDBRANCH  17  24
BRANCH  21  25
ATOM     25  O   UNL     1      10.797  12.947  17.146  0.00  0.00    +0.000 OA
ATOM     26  C   UNL     1      10.406  11.736  17.770  0.00  0.00    +0.000 C 
ENDBRANCH  21  25
BRANCH  22  27
ATOM     27  O   UNL     1      11.689  15.656  16.390  0.00  0.00    +0.000 OA
ATOM     28  H   UNL     1      11.493  15.125  15.599  0.00  0.00    +0.000 HD
ENDBRANCH  22  27
ENDBRANCH   1  19
BRANCH   8  29
ATOM     29  N   UNL     1       6.070  13.306  23.287  0.00  0.00    +0.000 N 
ATOM     30  H   UNL     1       5.568  12.667  22.674  0.00  0.00    +0.000 HD
BRANCH  29  31
ATOM     31  C   UNL     1       6.035  12.895  24.615  0.00  0.00    +0.000 A 
ATOM     32  C   UNL     1       6.399  11.624  25.070  0.00  0.00    +0.000 A 
ATOM     33  C   UNL     1       6.277  11.275  26.420  0.00  0.00    +0.000 A 
ATOM     34  C   UNL     1       5.745  12.190  27.322  0.00  0.00    +0.000 A 
ATOM     35  F   UNL     1       5.621  11.851  28.613  0.00  0.00    +0.000 F 
ATOM     36  C   UNL     1       5.320  13.436  26.896  0.00  0.00    +0.000 A 
ATOM     37  C   UNL     1       5.458  13.778  25.547  0.00  0.00    +0.000 A 
ENDBRANCH  29  31
ENDBRANCH   8  29
BRANCH  12  38
ATOM     38  O   UNL     1      10.510  13.869  21.359  0.00  0.00    +0.000 OA
ATOM     39  H   UNL     1      11.347  14.015  21.826  0.00  0.00    +0.000 HD
ENDBRANCH  12  38
TORSDOF 7
ENDMDL
