MODEL 1
REMARK VINA RESULT:      -7.0      0.000      0.000
REMARK  Name = 
REMARK  6 active torsions:
REMARK  status: ('A' for Active; 'I' for Inactive)
REMARK    1  A    between atoms: C_1  and  C_2
REMARK    2  A    between atoms: C_2  and  C_3
REMARK    3  A    between atoms: C_3  and  N_4
REMARK    4  A    between atoms: N_7  and  C_8
REMARK    5  A    between atoms: N_15  and  C_16
REMARK    6  A    between atoms: C_16  and  C_17
REMARK                            x       y       z     vdW  Elec       q    Type
REMARK                         _______ _______ _______ _____ _____    ______ ____
ROOT
ATOM      1  N   UNL     1       2.866   5.329  19.688  0.00  0.00    +0.000 N 
ATOM      2  C   UNL     1       2.538   6.647  19.382  0.00  0.00    +0.000 A 
ATOM      3  O   UNL     1       1.833   7.327  20.133  0.00  0.00    +0.000 OA
ATOM      4  N   UNL     1       3.061   7.166  18.182  0.00  0.00    +0.000 N 
ATOM      5  C   UNL     1       2.711   8.530  17.825  0.00  0.00    +0.000 C 
ATOM      6  C   UNL     1       3.929   6.500  17.320  0.00  0.00    +0.000 A 
ATOM      7  O   UNL     1       4.474   7.040  16.360  0.00  0.00    +0.000 OA
ATOM      8  C   UNL     1       4.108   5.117  17.632  0.00  0.00    +0.000 A 
ATOM      9  C   UNL     1       3.588   4.585  18.785  0.00  0.00    +0.000 A 
ATOM     10  N   UNL     1       3.909   3.277  18.935  0.00  0.00    +0.000 NA
ATOM     11  C   UNL     1       4.619   2.992  17.869  0.00  0.00    +0.000 A 
ATOM     12  N   UNL     1       4.749   4.074  17.011  0.00  0.00    +0.000 N 
ENDROOT
BRANCH   1  13
ATOM     13  C   UNL     1       2.414   4.746  20.951  0.00  0.00    +0.000 C 
BRANCH  13  15
ATOM     14  C   UNL     1       1.458   2.506  21.571  0.00  0.00    +0.000 C 
ATOM     15  C   UNL     1       1.247   3.778  20.765  0.00  0.00    +0.000 C 
ENDBRANCH  13  15
ENDBRANCH   1  13
BRANCH  12  16
ATOM     16  C   UNL     1       5.673   4.005  15.880  0.00  0.00    +0.000 C 
BRANCH  16  17
ATOM     17  C   UNL     1       7.050   4.627  15.896  0.00  0.00    +0.000 C 
ATOM     18  N   UNL     1       7.451   5.505  14.947  0.00  0.00    +0.000 N 
ATOM     19  O   UNL     1       7.834   4.381  16.817  0.00  0.00    +0.000 OA
ATOM     20  H   UNL     1       6.763   6.169  14.598  0.00  0.00    +0.000 HD
ATOM     21  H   UNL     1       8.333   5.953  15.171  0.00  0.00    +0.000 HD
ENDBRANCH  16  17
ENDBRANCH  12  16
TORSDOF 4
ENDMDL
MODEL 2
REMARK VINA RESULT:      -6.8      2.235      5.648
REMARK  Name = 
REMARK  6 active torsions:
REMARK  status: ('A' for Active; 'I' for Inactive)
REMARK    1  A    between atoms: C_1  and  C_2
REMARK    2  A    between atoms: C_2  and  C_3
REMARK    3  A    between atoms: C_3  and  N_4
REMARK    4  A    between atoms: N_7  and  C_8
REMARK    5  A    between atoms: N_15  and  C_16
REMARK    6  A    between atoms: C_16  and  C_17
REMARK                            x       y       z     vdW  Elec       q    Type
REMARK                         _______ _______ _______ _____ _____    ______ ____
ROOT
ATOM      1  N   UNL     1       5.684   4.902  16.017  0.00  0.00    +0.000 N 
ATOM      2  C   UNL     1       6.730   5.638  16.568  0.00  0.00    +0.000 A 
ATOM      3  O   UNL     1       7.566   6.203  15.858  0.00  0.00    +0.000 OA
ATOM      4  N   UNL     1       6.776   5.713  17.974  0.00  0.00    +0.000 N 
ATOM      5  C   UNL     1       7.873   6.451  18.577  0.00  0.00    +0.000 C 
ATOM      6  C   UNL     1       5.832   5.178  18.847  0.00  0.00    +0.000 A 
ATOM      7  O   UNL     1       5.834   5.390  20.057  0.00  0.00    +0.000 OA
ATOM      8  C   UNL     1       4.872   4.330  18.213  0.00  0.00    +0.000 A 
ATOM      9  C   UNL     1       4.823   4.224  16.846  0.00  0.00    +0.000 A 
ATOM     10  N   UNL     1       3.814   3.421  16.431  0.00  0.00    +0.000 NA
ATOM     11  C   UNL     1       3.241   3.017  17.541  0.00  0.00    +0.000 A 
ATOM     12  N   UNL     1       3.867   3.515  18.673  0.00  0.00    +0.000 N 
ENDROOT
BRANCH   1  13
ATOM     13  C   UNL     1       5.536   4.837  14.563  0.00  0.00    +0.000 C 
BRANCH  13  15
ATOM     14  C   UNL     1       5.943   3.506  12.470  0.00  0.00    +0.000 C 
ATOM     15  C   UNL     1       6.255   3.636  13.953  0.00  0.00    +0.000 C 
ENDBRANCH  13  15
ENDBRANCH   1  13
BRANCH  12  16
ATOM     16  C   UNL     1       3.249   3.342  19.988  0.00  0.00    +0.000 C 
BRANCH  16  17
ATOM     17  C   UNL     1       2.283   4.338  20.587  0.00  0.00    +0.000 C 
ATOM     18  N   UNL     1       2.636   5.621  20.828  0.00  0.00    +0.000 N 
ATOM     19  O   UNL     1       1.119   4.008  20.827  0.00  0.00    +0.000 OA
ATOM     20  H   UNL     1       3.247   6.077  20.154  0.00  0.00    +0.000 HD
ATOM     21  H   UNL     1       1.848   6.207  21.084  0.00  0.00    +0.000 HD
ENDBRANCH  16  17
ENDBRANCH  12  16
TORSDOF 4
ENDMDL
MODEL 3
REMARK VINA RESULT:      -6.6      2.488      5.578
REMARK  Name = 
REMARK  6 active torsions:
REMARK  status: ('A' for Active; 'I' for Inactive)
REMARK    1  A    between atoms: C_1  and  C_2
REMARK    2  A    between atoms: C_2  and  C_3
REMARK    3  A    between atoms: C_3  and  N_4
REMARK    4  A    between atoms: N_7  and  C_8
REMARK    5  A    between atoms: N_15  and  C_16
REMARK    6  A    between atoms: C_16  and  C_17
REMARK                            x       y       z     vdW  Elec       q    Type
REMARK                         _______ _______ _______ _____ _____    ______ ____
ROOT
ATOM      1  N   UNL     1       5.678   5.051  15.963  0.00  0.00    +0.000 N 
ATOM      2  C   UNL     1       6.761   5.652  16.598  0.00  0.00    +0.000 A 
ATOM      3  O   UNL     1       7.667   6.192  15.956  0.00  0.00    +0.000 OA
ATOM      4  N   UNL     1       6.764   5.622  18.006  0.00  0.00    +0.000 N 
ATOM      5  C   UNL     1       7.897   6.218  18.694  0.00  0.00    +0.000 C 
ATOM      6  C   UNL     1       5.747   5.110  18.809  0.00  0.00    +0.000 A 
ATOM      7  O   UNL     1       5.724   5.235  20.031  0.00  0.00    +0.000 OA
ATOM      8  C   UNL     1       4.743   4.397  18.086  0.00  0.00    +0.000 A 
ATOM      9  C   UNL     1       4.733   4.393  16.715  0.00  0.00    +0.000 A 
ATOM     10  N   UNL     1       3.675   3.713  16.211  0.00  0.00    +0.000 NA
ATOM     11  C   UNL     1       3.031   3.282  17.271  0.00  0.00    +0.000 A 
ATOM     12  N   UNL     1       3.656   3.642  18.455  0.00  0.00    +0.000 N 
ENDROOT
BRANCH   1  13
ATOM     13  C   UNL     1       5.576   5.103  14.505  0.00  0.00    +0.000 C 
BRANCH  13  15
ATOM     14  C   UNL     1       5.573   3.467  12.597  0.00  0.00    +0.000 C 
ATOM     15  C   UNL     1       6.325   3.960  13.824  0.00  0.00    +0.000 C 
ENDBRANCH  13  15
ENDBRANCH   1  13
BRANCH  12  16
ATOM     16  C   UNL     1       2.979   3.429  19.734  0.00  0.00    +0.000 C 
BRANCH  16  17
ATOM     17  C   UNL     1       3.551   2.574  20.842  0.00  0.00    +0.000 C 
ATOM     18  N   UNL     1       4.785   2.027  20.759  0.00  0.00    +0.000 N 
ATOM     19  O   UNL     1       2.912   2.396  21.882  0.00  0.00    +0.000 OA
ATOM     20  H   UNL     1       5.518   2.579  20.321  0.00  0.00    +0.000 HD
ATOM     21  H   UNL     1       5.093   1.611  21.633  0.00  0.00    +0.000 HD
ENDBRANCH  16  17
ENDBRANCH  12  16
TORSDOF 4
ENDMDL
MODEL 4
REMARK VINA RESULT:      -6.5      1.275      1.312
REMARK  Name = 
REMARK  6 active torsions:
REMARK  status: ('A' for Active; 'I' for Inactive)
REMARK    1  A    between atoms: C_1  and  C_2
REMARK    2  A    between atoms: C_2  and  C_3
REMARK    3  A    between atoms: C_3  and  N_4
REMARK    4  A    between atoms: N_7  and  C_8
REMARK    5  A    between atoms: N_15  and  C_16
REMARK    6  A    between atoms: C_16  and  C_17
REMARK                            x       y       z     vdW  Elec       q    Type
REMARK                         _______ _______ _______ _____ _____    ______ ____
ROOT
ATOM      1  N   UNL     1       2.822   4.603  19.646  0.00  0.00    +0.000 N 
ATOM      2  C   UNL     1       2.270   5.856  19.902  0.00  0.00    +0.000 A 
ATOM      3  O   UNL     1       1.549   6.055  20.884  0.00  0.00    +0.000 OA
ATOM      4  N   UNL     1       2.586   6.883  18.991  0.00  0.00    +0.000 N 
ATOM      5  C   UNL     1       2.002   8.193  19.219  0.00  0.00    +0.000 C 
ATOM      6  C   UNL     1       3.455   6.768  17.908  0.00  0.00    +0.000 A 
ATOM      7  O   UNL     1       3.814   7.725  17.227  0.00  0.00    +0.000 OA
ATOM      8  C   UNL     1       3.869   5.428  17.638  0.00  0.00    +0.000 A 
ATOM      9  C   UNL     1       3.554   4.408  18.499  0.00  0.00    +0.000 A 
ATOM     10  N   UNL     1       4.080   3.224  18.106  0.00  0.00    +0.000 NA
ATOM     11  C   UNL     1       4.716   3.504  16.992  0.00  0.00    +0.000 A 
ATOM     12  N   UNL     1       4.595   4.838  16.633  0.00  0.00    +0.000 N 
ENDROOT
BRANCH   1  13
ATOM     13  C   UNL     1       2.590   3.507  20.587  0.00  0.00    +0.000 C 
BRANCH  13  15
ATOM     14  C   UNL     1       0.752   2.509  19.194  0.00  0.00    +0.000 C 
ATOM     15  C   UNL     1       1.143   3.019  20.572  0.00  0.00    +0.000 C 
ENDBRANCH  13  15
ENDBRANCH   1  13
BRANCH  12  16
ATOM     16  C   UNL     1       5.402   5.377  15.538  0.00  0.00    +0.000 C 
BRANCH  16  17
ATOM     17  C   UNL     1       6.876   5.682  15.668  0.00  0.00    +0.000 C 
ATOM     18  N   UNL     1       7.373   6.384  16.712  0.00  0.00    +0.000 N 
ATOM     19  O   UNL     1       7.677   5.249  14.836  0.00  0.00    +0.000 OA
ATOM     20  H   UNL     1       6.961   6.223  17.628  0.00  0.00    +0.000 HD
ATOM     21  H   UNL     1       8.388   6.378  16.747  0.00  0.00    +0.000 HD
ENDBRANCH  16  17
ENDBRANCH  12  16
TORSDOF 4
ENDMDL
MODEL 5
REMARK VINA RESULT:      -6.4      1.015      1.021
REMARK  Name = 
REMARK  6 active torsions:
REMARK  status: ('A' for Active; 'I' for Inactive)
REMARK    1  A    between atoms: C_1  and  C_2
REMARK    2  A    between atoms: C_2  and  C_3
REMARK    3  A    between atoms: C_3  and  N_4
REMARK    4  A    between atoms: N_7  and  C_8
REMARK    5  A    between atoms: N_15  and  C_16
REMARK    6  A    between atoms: C_16  and  C_17
REMARK                            x       y       z     vdW  Elec       q    Type
REMARK                         _______ _______ _______ _____ _____    ______ ____
ROOT
ATOM      1  N   UNL     1       2.717   5.538  19.881  0.00  0.00    +0.000 N 
ATOM      2  C   UNL     1       2.132   6.801  19.843  0.00  0.00    +0.000 A 
ATOM      3  O   UNL     1       1.394   7.198  20.750  0.00  0.00    +0.000 OA
ATOM      4  N   UNL     1       2.435   7.604  18.727  0.00  0.00    +0.000 N 
ATOM      5  C   UNL     1       1.817   8.916  18.648  0.00  0.00    +0.000 C 
ATOM      6  C   UNL     1       3.320   7.271  17.703  0.00  0.00    +0.000 A 
ATOM      7  O   UNL     1       3.664   8.059  16.826  0.00  0.00    +0.000 OA
ATOM      8  C   UNL     1       3.770   5.916  17.745  0.00  0.00    +0.000 A 
ATOM      9  C   UNL     1       3.468   5.108  18.812  0.00  0.00    +0.000 A 
ATOM     10  N   UNL     1       4.028   3.880  18.700  0.00  0.00    +0.000 NA
ATOM     11  C   UNL     1       4.671   3.918  17.556  0.00  0.00    +0.000 A 
ATOM     12  N   UNL     1       4.522   5.133  16.904  0.00  0.00    +0.000 N 
ENDROOT
BRANCH   1  13
ATOM     13  C   UNL     1       2.500   4.676  21.043  0.00  0.00    +0.000 C 
BRANCH  13  15
ATOM     14  C   UNL     1       1.487   2.460  21.657  0.00  0.00    +0.000 C 
ATOM     15  C   UNL     1       1.302   3.747  20.867  0.00  0.00    +0.000 C 
ENDBRANCH  13  15
ENDBRANCH   1  13
BRANCH  12  16
ATOM     16  C   UNL     1       5.330   5.433  15.722  0.00  0.00    +0.000 C 
BRANCH  16  17
ATOM     17  C   UNL     1       6.481   4.568  15.264  0.00  0.00    +0.000 C 
ATOM     18  N   UNL     1       6.330   3.622  14.308  0.00  0.00    +0.000 N 
ATOM     19  O   UNL     1       7.612   4.742  15.725  0.00  0.00    +0.000 OA
ATOM     20  H   UNL     1       5.710   3.833  13.529  0.00  0.00    +0.000 HD
ATOM     21  H   UNL     1       7.213   3.231  13.996  0.00  0.00    +0.000 HD
ENDBRANCH  16  17
ENDBRANCH  12  16
TORSDOF 4
ENDMDL
MODEL 6
REMARK VINA RESULT:      -6.4      1.856      3.611
REMARK  Name = 
REMARK  6 active torsions:
REMARK  status: ('A' for Active; 'I' for Inactive)
REMARK    1  A    between atoms: C_1  and  C_2
REMARK    2  A    between atoms: C_2  and  C_3
REMARK    3  A    between atoms: C_3  and  N_4
REMARK    4  A    between atoms: N_7  and  C_8
REMARK    5  A    between atoms: N_15  and  C_16
REMARK    6  A    between atoms: C_16  and  C_17
REMARK                            x       y       z     vdW  Elec       q    Type
REMARK                         _______ _______ _______ _____ _____    ______ ____
ROOT
ATOM      1  N   UNL     1       2.844   6.136  18.836  0.00  0.00    +0.000 N 
ATOM      2  C   UNL     1       2.280   5.073  19.536  0.00  0.00    +0.000 A 
ATOM      3  O   UNL     1       1.443   5.256  20.424  0.00  0.00    +0.000 OA
ATOM      4  N   UNL     1       2.705   3.781  19.170  0.00  0.00    +0.000 N 
ATOM      5  C   UNL     1       2.153   2.654  19.903  0.00  0.00    +0.000 C 
ATOM      6  C   UNL     1       3.579   3.478  18.129  0.00  0.00    +0.000 A 
ATOM      7  O   UNL     1       3.809   2.332  17.752  0.00  0.00    +0.000 OA
ATOM      8  C   UNL     1       4.212   4.622  17.553  0.00  0.00    +0.000 A 
ATOM      9  C   UNL     1       3.830   5.890  17.911  0.00  0.00    +0.000 A 
ATOM     10  N   UNL     1       4.502   6.842  17.219  0.00  0.00    +0.000 NA
ATOM     11  C   UNL     1       5.311   6.166  16.437  0.00  0.00    +0.000 A 
ATOM     12  N   UNL     1       5.204   4.796  16.620  0.00  0.00    +0.000 N 
ENDROOT
BRANCH   1  13
ATOM     13  C   UNL     1       2.400   7.502  19.117  0.00  0.00    +0.000 C 
BRANCH  13  15
ATOM     14  C   UNL     1       1.716   9.689  18.086  0.00  0.00    +0.000 C 
ATOM     15  C   UNL     1       1.787   8.182  17.895  0.00  0.00    +0.000 C 
ENDBRANCH  13  15
ENDBRANCH   1  13
BRANCH  12  16
ATOM     16  C   UNL     1       5.875   3.879  15.698  0.00  0.00    +0.000 C 
BRANCH  16  17
ATOM     17  C   UNL     1       6.541   4.332  14.419  0.00  0.00    +0.000 C 
ATOM     18  N   UNL     1       7.581   5.196  14.420  0.00  0.00    +0.000 N 
ATOM     19  O   UNL     1       6.174   3.877  13.332  0.00  0.00    +0.000 OA
ATOM     20  H   UNL     1       8.267   5.108  15.167  0.00  0.00    +0.000 HD
ATOM     21  H   UNL     1       8.021   5.287  13.510  0.00  0.00    +0.000 HD
ENDBRANCH  16  17
ENDBRANCH  12  16
TORSDOF 4
ENDMDL
MODEL 7
REMARK VINA RESULT:      -6.4      1.888      5.324
REMARK  Name = 
REMARK  6 active torsions:
REMARK  status: ('A' for Active; 'I' for Inactive)
REMARK    1  A    between atoms: C_1  and  C_2
REMARK    2  A    between atoms: C_2  and  C_3
REMARK    3  A    between atoms: C_3  and  N_4
REMARK    4  A    between atoms: N_7  and  C_8
REMARK    5  A    between atoms: N_15  and  C_16
REMARK    6  A    between atoms: C_16  and  C_17
REMARK                            x       y       z     vdW  Elec       q    Type
REMARK                         _______ _______ _______ _____ _____    ______ ____
ROOT
ATOM      1  N   UNL     1       4.998   4.537  16.397  0.00  0.00    +0.000 N 
ATOM      2  C   UNL     1       4.833   5.917  16.486  0.00  0.00    +0.000 A 
ATOM      3  O   UNL     1       5.471   6.691  15.765  0.00  0.00    +0.000 OA
ATOM      4  N   UNL     1       3.896   6.382  17.428  0.00  0.00    +0.000 N 
ATOM      5  C   UNL     1       3.724   7.818  17.561  0.00  0.00    +0.000 C 
ATOM      6  C   UNL     1       3.076   5.581  18.220  0.00  0.00    +0.000 A 
ATOM      7  O   UNL     1       2.172   6.027  18.923  0.00  0.00    +0.000 OA
ATOM      8  C   UNL     1       3.399   4.190  18.167  0.00  0.00    +0.000 A 
ATOM      9  C   UNL     1       4.325   3.718  17.273  0.00  0.00    +0.000 A 
ATOM     10  N   UNL     1       4.455   2.371  17.332  0.00  0.00    +0.000 NA
ATOM     11  C   UNL     1       3.617   2.004  18.273  0.00  0.00    +0.000 A 
ATOM     12  N   UNL     1       2.961   3.082  18.849  0.00  0.00    +0.000 N 
ENDROOT
BRANCH   1  13
ATOM     13  C   UNL     1       5.905   3.982  15.393  0.00  0.00    +0.000 C 
BRANCH  13  15
ATOM     14  C   UNL     1       6.362   3.722  12.936  0.00  0.00    +0.000 C 
ATOM     15  C   UNL     1       5.299   3.981  13.992  0.00  0.00    +0.000 C 
ENDBRANCH  13  15
ENDBRANCH   1  13
BRANCH  12  16
ATOM     16  C   UNL     1       1.845   2.854  19.767  0.00  0.00    +0.000 C 
BRANCH  16  17
ATOM     17  C   UNL     1       1.861   3.290  21.214  0.00  0.00    +0.000 C 
ATOM     18  N   UNL     1       2.314   4.507  21.591  0.00  0.00    +0.000 N 
ATOM     19  O   UNL     1       1.407   2.550  22.091  0.00  0.00    +0.000 OA
ATOM     20  H   UNL     1       2.108   5.297  20.983  0.00  0.00    +0.000 HD
ATOM     21  H   UNL     1       2.122   4.717  22.565  0.00  0.00    +0.000 HD
ENDBRANCH  16  17
ENDBRANCH  12  16
TORSDOF 4
ENDMDL
MODEL 8
REMARK VINA RESULT:      -6.4      3.091      5.152
REMARK  Name = 
REMARK  6 active torsions:
REMARK  status: ('A' for Active; 'I' for Inactive)
REMARK    1  A    between atoms: C_1  and  C_2
REMARK    2  A    between atoms: C_2  and  C_3
REMARK    3  A    between atoms: C_3  and  N_4
REMARK    4  A    between atoms: N_7  and  C_8
REMARK    5  A    between atoms: N_15  and  C_16
REMARK    6  A    between atoms: C_16  and  C_17
REMARK                            x       y       z     vdW  Elec       q    Type
REMARK                         _______ _______ _______ _____ _____    ______ ____
ROOT
ATOM      1  N   UNL     1       6.943   5.717  17.671  0.00  0.00    +0.000 N 
ATOM      2  C   UNL     1       6.174   5.180  18.700  0.00  0.00    +0.000 A 
ATOM      3  O   UNL     1       6.363   5.495  19.879  0.00  0.00    +0.000 OA
ATOM      4  N   UNL     1       5.165   4.272  18.326  0.00  0.00    +0.000 N 
ATOM      5  C   UNL     1       4.365   3.676  19.381  0.00  0.00    +0.000 C 
ATOM      6  C   UNL     1       4.829   3.925  17.019  0.00  0.00    +0.000 A 
ATOM      7  O   UNL     1       3.849   3.242  16.732  0.00  0.00    +0.000 OA
ATOM      8  C   UNL     1       5.746   4.411  16.037  0.00  0.00    +0.000 A 
ATOM      9  C   UNL     1       6.751   5.279  16.383  0.00  0.00    +0.000 A 
ATOM     10  N   UNL     1       7.480   5.671  15.311  0.00  0.00    +0.000 NA
ATOM     11  C   UNL     1       6.936   5.038  14.297  0.00  0.00    +0.000 A 
ATOM     12  N   UNL     1       5.886   4.220  14.684  0.00  0.00    +0.000 N 
ENDROOT
BRANCH   1  13
ATOM     13  C   UNL     1       7.965   6.718  17.980  0.00  0.00    +0.000 C 
BRANCH  13  15
ATOM     14  C   UNL     1       8.435   9.175  18.225  0.00  0.00    +0.000 C 
ATOM     15  C   UNL     1       7.548   8.128  17.569  0.00  0.00    +0.000 C 
ENDBRANCH  13  15
ENDBRANCH   1  13
BRANCH  12  16
ATOM     16  C   UNL     1       5.031   3.599  13.673  0.00  0.00    +0.000 C 
BRANCH  16  17
ATOM     17  C   UNL     1       5.511   3.253  12.282  0.00  0.00    +0.000 C 
ATOM     18  N   UNL     1       6.700   2.645  12.065  0.00  0.00    +0.000 N 
ATOM     19  O   UNL     1       4.794   3.477  11.303  0.00  0.00    +0.000 OA
ATOM     20  H   UNL     1       6.996   1.936  12.731  0.00  0.00    +0.000 HD
ATOM     21  H   UNL     1       6.818   2.338  11.105  0.00  0.00    +0.000 HD
ENDBRANCH  16  17
ENDBRANCH  12  16
TORSDOF 4
ENDMDL
MODEL 9
REMARK VINA RESULT:      -6.3      1.810      5.230
REMARK  Name = 
REMARK  6 active torsions:
REMARK  status: ('A' for Active; 'I' for Inactive)
REMARK    1  A    between atoms: C_1  and  C_2
REMARK    2  A    between atoms: C_2  and  C_3
REMARK    3  A    between atoms: C_3  and  N_4
REMARK    4  A    between atoms: N_7  and  C_8
REMARK    5  A    between atoms: N_15  and  C_16
REMARK    6  A    between atoms: C_16  and  C_17
REMARK                            x       y       z     vdW  Elec       q    Type
REMARK                         _______ _______ _______ _____ _____    ______ ____
ROOT
ATOM      1  N   UNL     1       5.136   5.152  17.357  0.00  0.00    +0.000 N 
ATOM      2  C   UNL     1       4.679   6.419  17.001  0.00  0.00    +0.000 A 
ATOM      3  O   UNL     1       5.130   7.014  16.018  0.00  0.00    +0.000 OA
ATOM      4  N   UNL     1       3.671   6.977  17.811  0.00  0.00    +0.000 N 
ATOM      5  C   UNL     1       3.195   8.308  17.478  0.00  0.00    +0.000 C 
ATOM      6  C   UNL     1       3.049   6.344  18.884  0.00  0.00    +0.000 A 
ATOM      7  O   UNL     1       2.075   6.810  19.471  0.00  0.00    +0.000 OA
ATOM      8  C   UNL     1       3.663   5.112  19.265  0.00  0.00    +0.000 A 
ATOM      9  C   UNL     1       4.663   4.561  18.504  0.00  0.00    +0.000 A 
ATOM     10  N   UNL     1       5.080   3.368  18.992  0.00  0.00    +0.000 NA
ATOM     11  C   UNL     1       4.347   3.181  20.065  0.00  0.00    +0.000 A 
ATOM     12  N   UNL     1       3.479   4.235  20.306  0.00  0.00    +0.000 N 
ENDROOT
BRANCH   1  13
ATOM     13  C   UNL     1       6.134   4.484  16.523  0.00  0.00    +0.000 C 
BRANCH  13  15
ATOM     14  C   UNL     1       6.306   4.124  14.041  0.00  0.00    +0.000 C 
ATOM     15  C   UNL     1       5.518   3.805  15.302  0.00  0.00    +0.000 C 
ENDBRANCH  13  15
ENDBRANCH   1  13
BRANCH  12  16
ATOM     16  C   UNL     1       2.446   4.112  21.334  0.00  0.00    +0.000 C 
BRANCH  16  17
ATOM     17  C   UNL     1       1.363   3.058  21.298  0.00  0.00    +0.000 C 
ATOM     18  N   UNL     1       0.522   2.931  20.246  0.00  0.00    +0.000 N 
ATOM     19  O   UNL     1       1.254   2.247  22.221  0.00  0.00    +0.000 OA
ATOM     20  H   UNL     1       0.904   3.081  19.315  0.00  0.00    +0.000 HD
ATOM     21  H   UNL     1      -0.045   2.091  20.293  0.00  0.00    +0.000 HD
ENDBRANCH  16  17
ENDBRANCH  12  16
TORSDOF 4
ENDMDL
