MODEL 1
REMARK VINA RESULT:      -6.7      0.000      0.000
REMARK  Name = 
REMARK  4 active torsions:
REMARK  status: ('A' for Active; 'I' for Inactive)
REMARK    1  A    between atoms: C_5  and  C_6
REMARK    2  A    between atoms: C_9  and  O_10
REMARK    3  A    between atoms: C_17  and  O_18
REMARK    4  A    between atoms: C_23  and  O_24
REMARK                            x       y       z     vdW  Elec       q    Type
REMARK                         _______ _______ _______ _____ _____    ______ ____
ROOT
ATOM      1  C   UNL     1       1.170   9.024  19.735  0.00  0.00    +0.000 A 
ATOM      2  C   UNL     1       0.563   8.648  20.956  0.00  0.00    +0.000 A 
ATOM      3  C   UNL     1       0.788   7.405  21.540  0.00  0.00    +0.000 A 
ATOM      4  C   UNL     1       1.646   6.507  20.922  0.00  0.00    +0.000 A 
ATOM      5  C   UNL     1       2.276   6.819  19.707  0.00  0.00    +0.000 A 
ATOM      6  C   UNL     1       2.034   8.084  19.108  0.00  0.00    +0.000 A 
ATOM      7  C   UNL     1       2.716   8.362  17.789  0.00  0.00    +0.000 C 
ATOM      8  O   UNL     1       2.387   9.288  17.054  0.00  0.00    +0.000 OA
ATOM      9  C   UNL     1       3.845   7.456  17.374  0.00  0.00    +0.000 C 
ATOM     10  C   UNL     1       3.432   6.018  17.606  0.00  0.00    +0.000 C 
ATOM     11  C   UNL     1       3.217   5.799  19.096  0.00  0.00    +0.000 C 
ENDROOT
BRANCH   1  16
ATOM     12  O   UNL     1      -1.823  12.834  21.323  0.00  0.00    +0.000 OA
ATOM     13  C   UNL     1      -1.077  12.080  20.706  0.00  0.00    +0.000 C 
ATOM     14  C   UNL     1       0.288  11.761  21.275  0.00  0.00    +0.000 C 
ATOM     15  C   UNL     1       1.320  11.526  20.189  0.00  0.00    +0.000 C 
ATOM     16  C   UNL     1       0.894  10.438  19.196  0.00  0.00    +0.000 C 
ATOM     17  C   UNL     1      -0.537  10.641  18.715  0.00  0.00    +0.000 A 
ATOM     18  C   UNL     1      -0.915  10.002  17.517  0.00  0.00    +0.000 A 
ATOM     19  C   UNL     1      -2.216  10.098  17.038  0.00  0.00    +0.000 A 
ATOM     20  C   UNL     1      -3.160  10.830  17.751  0.00  0.00    +0.000 A 
ATOM     21  C   UNL     1      -2.797  11.478  18.937  0.00  0.00    +0.000 A 
ATOM     22  C   UNL     1      -1.483  11.401  19.431  0.00  0.00    +0.000 A 
BRANCH  21  23
ATOM     23  O   UNL     1      -3.766  12.160  19.617  0.00  0.00    +0.000 OA
ATOM     24  H   UNL     1      -3.854  11.811  20.517  0.00  0.00    +0.000 HD
ENDBRANCH  21  23
ENDBRANCH   1  16
BRANCH   4  25
ATOM     25  O   UNL     1       1.889   5.298  21.511  0.00  0.00    +0.000 OA
ATOM     26  H   UNL     1       2.847   5.133  21.532  0.00  0.00    +0.000 HD
ENDBRANCH   4  25
BRANCH  11  27
ATOM     27  O   UNL     1       4.502   5.860  19.718  0.00  0.00    +0.000 OA
ATOM     28  H   UNL     1       5.127   5.343  19.184  0.00  0.00    +0.000 HD
ENDBRANCH  11  27
TORSDOF 4
ENDMDL
MODEL 2
REMARK VINA RESULT:      -6.6      2.342      7.451
REMARK  Name = 
REMARK  4 active torsions:
REMARK  status: ('A' for Active; 'I' for Inactive)
REMARK    1  A    between atoms: C_5  and  C_6
REMARK    2  A    between atoms: C_9  and  O_10
REMARK    3  A    between atoms: C_17  and  O_18
REMARK    4  A    between atoms: C_23  and  O_24
REMARK                            x       y       z     vdW  Elec       q    Type
REMARK                         _______ _______ _______ _____ _____    ______ ____
ROOT
ATOM      1  C   UNL     1      -2.260  11.673  19.280  0.00  0.00    +0.000 A 
ATOM      2  C   UNL     1      -2.503  10.643  18.341  0.00  0.00    +0.000 A 
ATOM      3  C   UNL     1      -3.765  10.420  17.799  0.00  0.00    +0.000 A 
ATOM      4  C   UNL     1      -4.820  11.239  18.171  0.00  0.00    +0.000 A 
ATOM      5  C   UNL     1      -4.645  12.276  19.101  0.00  0.00    +0.000 A 
ATOM      6  C   UNL     1      -3.358  12.492  19.661  0.00  0.00    +0.000 A 
ATOM      7  C   UNL     1      -3.227  13.604  20.676  0.00  0.00    +0.000 C 
ATOM      8  O   UNL     1      -2.254  13.716  21.414  0.00  0.00    +0.000 OA
ATOM      9  C   UNL     1      -4.346  14.607  20.771  0.00  0.00    +0.000 C 
ATOM     10  C   UNL     1      -5.668  13.870  20.777  0.00  0.00    +0.000 C 
ATOM     11  C   UNL     1      -5.837  13.147  19.449  0.00  0.00    +0.000 C 
ENDROOT
BRANCH   1  16
ATOM     12  O   UNL     1       1.938   8.789  19.022  0.00  0.00    +0.000 OA
ATOM     13  C   UNL     1       1.086   9.638  19.267  0.00  0.00    +0.000 C 
ATOM     14  C   UNL     1       0.572  10.516  18.147  0.00  0.00    +0.000 C 
ATOM     15  C   UNL     1       0.193  11.900  18.633  0.00  0.00    +0.000 C 
ATOM     16  C   UNL     1      -0.820  11.866  19.783  0.00  0.00    +0.000 C 
ATOM     17  C   UNL     1      -0.412  10.875  20.865  0.00  0.00    +0.000 A 
ATOM     18  C   UNL     1      -0.987  11.035  22.143  0.00  0.00    +0.000 A 
ATOM     19  C   UNL     1      -0.704  10.142  23.169  0.00  0.00    +0.000 A 
ATOM     20  C   UNL     1       0.155   9.073  22.934  0.00  0.00    +0.000 A 
ATOM     21  C   UNL     1       0.741   8.906  21.675  0.00  0.00    +0.000 A 
ATOM     22  C   UNL     1       0.475   9.806  20.628  0.00  0.00    +0.000 A 
BRANCH  21  23
ATOM     23  O   UNL     1       1.554   7.825  21.485  0.00  0.00    +0.000 OA
ATOM     24  H   UNL     1       2.443   8.113  21.228  0.00  0.00    +0.000 HD
ENDBRANCH  21  23
ENDBRANCH   1  16
BRANCH   4  25
ATOM     25  O   UNL     1      -6.054  11.039  17.617  0.00  0.00    +0.000 OA
ATOM     26  H   UNL     1      -5.988  10.380  16.905  0.00  0.00    +0.000 HD
ENDBRANCH   4  25
BRANCH  11  27
ATOM     27  O   UNL     1      -6.041  14.148  18.450  0.00  0.00    +0.000 OA
ATOM     28  H   UNL     1      -5.860  15.018  18.844  0.00  0.00    +0.000 HD
ENDBRANCH  11  27
TORSDOF 4
ENDMDL
MODEL 3
REMARK VINA RESULT:      -6.6      2.232      6.963
REMARK  Name = 
REMARK  4 active torsions:
REMARK  status: ('A' for Active; 'I' for Inactive)
REMARK    1  A    between atoms: C_5  and  C_6
REMARK    2  A    between atoms: C_9  and  O_10
REMARK    3  A    between atoms: C_17  and  O_18
REMARK    4  A    between atoms: C_23  and  O_24
REMARK                            x       y       z     vdW  Elec       q    Type
REMARK                         _______ _______ _______ _____ _____    ______ ____
ROOT
ATOM      1  C   UNL     1       2.108   7.704  19.142  0.00  0.00    +0.000 A 
ATOM      2  C   UNL     1       1.987   8.027  17.770  0.00  0.00    +0.000 A 
ATOM      3  C   UNL     1       1.224   9.104  17.330  0.00  0.00    +0.000 A 
ATOM      4  C   UNL     1       0.573   9.902  18.259  0.00  0.00    +0.000 A 
ATOM      5  C   UNL     1       0.650   9.632  19.634  0.00  0.00    +0.000 A 
ATOM      6  C   UNL     1       1.420   8.524  20.078  0.00  0.00    +0.000 A 
ATOM      7  C   UNL     1       1.451   8.260  21.566  0.00  0.00    +0.000 C 
ATOM      8  O   UNL     1       1.849   7.203  22.043  0.00  0.00    +0.000 OA
ATOM      9  C   UNL     1       0.969   9.350  22.486  0.00  0.00    +0.000 C 
ATOM     10  C   UNL     1      -0.332   9.908  21.948  0.00  0.00    +0.000 C 
ATOM     11  C   UNL     1      -0.071  10.556  20.596  0.00  0.00    +0.000 C 
ENDROOT
BRANCH   1  16
ATOM     12  O   UNL     1       4.203   3.900  16.469  0.00  0.00    +0.000 OA
ATOM     13  C   UNL     1       3.788   4.662  17.338  0.00  0.00    +0.000 C 
ATOM     14  C   UNL     1       4.340   6.068  17.414  0.00  0.00    +0.000 C 
ATOM     15  C   UNL     1       4.378   6.591  18.836  0.00  0.00    +0.000 C 
ATOM     16  C   UNL     1       3.013   6.522  19.529  0.00  0.00    +0.000 C 
ATOM     17  C   UNL     1       2.354   5.161  19.343  0.00  0.00    +0.000 A 
ATOM     18  C   UNL     1       1.332   4.805  20.247  0.00  0.00    +0.000 A 
ATOM     19  C   UNL     1       0.650   3.603  20.114  0.00  0.00    +0.000 A 
ATOM     20  C   UNL     1       0.973   2.739  19.073  0.00  0.00    +0.000 A 
ATOM     21  C   UNL     1       1.991   3.073  18.173  0.00  0.00    +0.000 A 
ATOM     22  C   UNL     1       2.700   4.280  18.299  0.00  0.00    +0.000 A 
BRANCH  21  23
ATOM     23  O   UNL     1       2.252   2.206  17.150  0.00  0.00    +0.000 OA
ATOM     24  H   UNL     1       3.190   1.960  17.148  0.00  0.00    +0.000 HD
ENDBRANCH  21  23
ENDBRANCH   1  16
BRANCH   4  25
ATOM     25  O   UNL     1      -0.153  10.978  17.829  0.00  0.00    +0.000 OA
ATOM     26  H   UNL     1       0.409  11.771  17.829  0.00  0.00    +0.000 HD
ENDBRANCH   4  25
BRANCH  11  27
ATOM     27  O   UNL     1       0.699  11.735  20.838  0.00  0.00    +0.000 OA
ATOM     28  H   UNL     1       0.090  12.468  21.027  0.00  0.00    +0.000 HD
ENDBRANCH  11  27
TORSDOF 4
ENDMDL
MODEL 4
REMARK VINA RESULT:      -6.4      2.379      7.133
REMARK  Name = 
REMARK  4 active torsions:
REMARK  status: ('A' for Active; 'I' for Inactive)
REMARK    1  A    between atoms: C_5  and  C_6
REMARK    2  A    between atoms: C_9  and  O_10
REMARK    3  A    between atoms: C_17  and  O_18
REMARK    4  A    between atoms: C_23  and  O_24
REMARK                            x       y       z     vdW  Elec       q    Type
REMARK                         _______ _______ _______ _____ _____    ______ ____
ROOT
ATOM      1  C   UNL     1       1.918   6.943  19.282  0.00  0.00    +0.000 A 
ATOM      2  C   UNL     1       1.581   6.373  20.532  0.00  0.00    +0.000 A 
ATOM      3  C   UNL     1       1.055   7.131  21.573  0.00  0.00    +0.000 A 
ATOM      4  C   UNL     1       0.834   8.487  21.383  0.00  0.00    +0.000 A 
ATOM      5  C   UNL     1       1.151   9.114  20.167  0.00  0.00    +0.000 A 
ATOM      6  C   UNL     1       1.699   8.338  19.112  0.00  0.00    +0.000 A 
ATOM      7  C   UNL     1       2.046   9.064  17.833  0.00  0.00    +0.000 C 
ATOM      8  O   UNL     1       2.757   8.572  16.963  0.00  0.00    +0.000 OA
ATOM      9  C   UNL     1       1.488  10.449  17.634  0.00  0.00    +0.000 C 
ATOM     10  C   UNL     1       1.678  11.243  18.909  0.00  0.00    +0.000 C 
ATOM     11  C   UNL     1       0.865  10.596  20.021  0.00  0.00    +0.000 C 
ENDROOT
BRANCH   1  16
ATOM     12  O   UNL     1       2.624   1.900  19.032  0.00  0.00    +0.000 OA
ATOM     13  C   UNL     1       2.604   3.113  18.847  0.00  0.00    +0.000 C 
ATOM     14  C   UNL     1       1.275   3.809  18.646  0.00  0.00    +0.000 C 
ATOM     15  C   UNL     1       1.390   5.003  17.720  0.00  0.00    +0.000 C 
ATOM     16  C   UNL     1       2.449   6.010  18.181  0.00  0.00    +0.000 C 
ATOM     17  C   UNL     1       3.761   5.325  18.541  0.00  0.00    +0.000 A 
ATOM     18  C   UNL     1       4.924   6.122  18.566  0.00  0.00    +0.000 A 
ATOM     19  C   UNL     1       6.150   5.582  18.932  0.00  0.00    +0.000 A 
ATOM     20  C   UNL     1       6.234   4.239  19.283  0.00  0.00    +0.000 A 
ATOM     21  C   UNL     1       5.091   3.432  19.253  0.00  0.00    +0.000 A 
ATOM     22  C   UNL     1       3.843   3.959  18.874  0.00  0.00    +0.000 A 
BRANCH  21  23
ATOM     23  O   UNL     1       5.217   2.127  19.635  0.00  0.00    +0.000 OA
ATOM     24  H   UNL     1       4.712   1.962  20.446  0.00  0.00    +0.000 HD
ENDBRANCH  21  23
ENDBRANCH   1  16
BRANCH   4  25
ATOM     25  O   UNL     1       0.290   9.227  22.395  0.00  0.00    +0.000 OA
ATOM     26  H   UNL     1      -0.180   8.640  23.012  0.00  0.00    +0.000 HD
ENDBRANCH   4  25
BRANCH  11  27
ATOM     27  O   UNL     1      -0.513  10.819  19.716  0.00  0.00    +0.000 OA
ATOM     28  H   UNL     1      -0.851  10.045  19.235  0.00  0.00    +0.000 HD
ENDBRANCH  11  27
TORSDOF 4
ENDMDL
MODEL 5
REMARK VINA RESULT:      -6.3      3.120      7.542
REMARK  Name = 
REMARK  4 active torsions:
REMARK  status: ('A' for Active; 'I' for Inactive)
REMARK    1  A    between atoms: C_5  and  C_6
REMARK    2  A    between atoms: C_9  and  O_10
REMARK    3  A    between atoms: C_17  and  O_18
REMARK    4  A    between atoms: C_23  and  O_24
REMARK                            x       y       z     vdW  Elec       q    Type
REMARK                         _______ _______ _______ _____ _____    ______ ____
ROOT
ATOM      1  C   UNL     1      -2.710  12.082  19.386  0.00  0.00    +0.000 A 
ATOM      2  C   UNL     1      -2.637  11.725  18.019  0.00  0.00    +0.000 A 
ATOM      3  C   UNL     1      -3.774  11.574  17.234  0.00  0.00    +0.000 A 
ATOM      4  C   UNL     1      -5.024  11.795  17.794  0.00  0.00    +0.000 A 
ATOM      5  C   UNL     1      -5.164  12.147  19.145  0.00  0.00    +0.000 A 
ATOM      6  C   UNL     1      -4.001  12.289  19.947  0.00  0.00    +0.000 A 
ATOM      7  C   UNL     1      -4.207  12.645  21.401  0.00  0.00    +0.000 C 
ATOM      8  O   UNL     1      -3.320  12.536  22.242  0.00  0.00    +0.000 OA
ATOM      9  C   UNL     1      -5.561  13.153  21.818  0.00  0.00    +0.000 C 
ATOM     10  C   UNL     1      -6.627  12.271  21.204  0.00  0.00    +0.000 C 
ATOM     11  C   UNL     1      -6.559  12.393  19.688  0.00  0.00    +0.000 C 
ENDROOT
BRANCH   1  16
ATOM     12  O   UNL     1       1.692  14.389  18.246  0.00  0.00    +0.000 OA
ATOM     13  C   UNL     1       0.782  13.732  18.744  0.00  0.00    +0.000 C 
ATOM     14  C   UNL     1      -0.463  14.442  19.229  0.00  0.00    +0.000 C 
ATOM     15  C   UNL     1      -1.087  13.748  20.424  0.00  0.00    +0.000 C 
ATOM     16  C   UNL     1      -1.392  12.270  20.156  0.00  0.00    +0.000 C 
ATOM     17  C   UNL     1      -0.206  11.555  19.522  0.00  0.00    +0.000 A 
ATOM     18  C   UNL     1      -0.174  10.148  19.611  0.00  0.00    +0.000 A 
ATOM     19  C   UNL     1       0.848   9.420  19.015  0.00  0.00    +0.000 A 
ATOM     20  C   UNL     1       1.852  10.084  18.319  0.00  0.00    +0.000 A 
ATOM     21  C   UNL     1       1.839  11.481  18.230  0.00  0.00    +0.000 A 
ATOM     22  C   UNL     1       0.819  12.235  18.836  0.00  0.00    +0.000 A 
BRANCH  21  23
ATOM     23  O   UNL     1       2.830  12.086  17.511  0.00  0.00    +0.000 OA
ATOM     24  H   UNL     1       3.432  12.564  18.101  0.00  0.00    +0.000 HD
ENDBRANCH  21  23
ENDBRANCH   1  16
BRANCH   4  25
ATOM     25  O   UNL     1      -6.140  11.675  17.014  0.00  0.00    +0.000 OA
ATOM     26  H   UNL     1      -6.441  12.557  16.738  0.00  0.00    +0.000 HD
ENDBRANCH   4  25
BRANCH  11  27
ATOM     27  O   UNL     1      -7.008  13.707  19.353  0.00  0.00    +0.000 OA
ATOM     28  H   UNL     1      -6.865  13.849  18.403  0.00  0.00    +0.000 HD
ENDBRANCH  11  27
TORSDOF 4
ENDMDL
MODEL 6
REMARK VINA RESULT:      -6.3      7.829     10.956
REMARK  Name = 
REMARK  4 active torsions:
REMARK  status: ('A' for Active; 'I' for Inactive)
REMARK    1  A    between atoms: C_5  and  C_6
REMARK    2  A    between atoms: C_9  and  O_10
REMARK    3  A    between atoms: C_17  and  O_18
REMARK    4  A    between atoms: C_23  and  O_24
REMARK                            x       y       z     vdW  Elec       q    Type
REMARK                         _______ _______ _______ _____ _____    ______ ____
ROOT
ATOM      1  C   UNL     1       7.296  14.840  19.472  0.00  0.00    +0.000 A 
ATOM      2  C   UNL     1       6.862  14.685  18.134  0.00  0.00    +0.000 A 
ATOM      3  C   UNL     1       5.514  14.698  17.789  0.00  0.00    +0.000 A 
ATOM      4  C   UNL     1       4.559  14.886  18.777  0.00  0.00    +0.000 A 
ATOM      5  C   UNL     1       4.925  15.041  20.123  0.00  0.00    +0.000 A 
ATOM      6  C   UNL     1       6.301  15.014  20.473  0.00  0.00    +0.000 A 
ATOM      7  C   UNL     1       6.641  15.161  21.938  0.00  0.00    +0.000 C 
ATOM      8  O   UNL     1       7.749  14.892  22.391  0.00  0.00    +0.000 OA
ATOM      9  C   UNL     1       5.565  15.658  22.866  0.00  0.00    +0.000 C 
ATOM     10  C   UNL     1       4.277  14.921  22.565  0.00  0.00    +0.000 C 
ATOM     11  C   UNL     1       3.831  15.262  21.150  0.00  0.00    +0.000 C 
ENDROOT
BRANCH   1  16
ATOM     12  O   UNL     1      11.347  15.852  16.546  0.00  0.00    +0.000 OA
ATOM     13  C   UNL     1      10.571  15.517  17.436  0.00  0.00    +0.000 C 
ATOM     14  C   UNL     1       9.693  16.564  18.086  0.00  0.00    +0.000 C 
ATOM     15  C   UNL     1       9.414  16.252  19.542  0.00  0.00    +0.000 C 
ATOM     16  C   UNL     1       8.809  14.858  19.743  0.00  0.00    +0.000 C 
ATOM     17  C   UNL     1       9.581  13.792  18.975  0.00  0.00    +0.000 A 
ATOM     18  C   UNL     1       9.422  12.453  19.386  0.00  0.00    +0.000 A 
ATOM     19  C   UNL     1      10.052  11.419  18.706  0.00  0.00    +0.000 A 
ATOM     20  C   UNL     1      10.849  11.705  17.602  0.00  0.00    +0.000 A 
ATOM     21  C   UNL     1      11.025  13.030  17.188  0.00  0.00    +0.000 A 
ATOM     22  C   UNL     1      10.403  14.091  17.871  0.00  0.00    +0.000 A 
BRANCH  21  23
ATOM     23  O   UNL     1      11.792  13.259  16.081  0.00  0.00    +0.000 OA
ATOM     24  H   UNL     1      11.250  13.624  15.365  0.00  0.00    +0.000 HD
ENDBRANCH  21  23
ENDBRANCH   1  16
BRANCH   4  25
ATOM     25  O   UNL     1       3.237  14.928  18.434  0.00  0.00    +0.000 OA
ATOM     26  H   UNL     1       2.694  14.666  19.197  0.00  0.00    +0.000 HD
ENDBRANCH   4  25
BRANCH  11  27
ATOM     27  O   UNL     1       3.415  16.628  21.161  0.00  0.00    +0.000 OA
ATOM     28  H   UNL     1       3.217  16.897  20.248  0.00  0.00    +0.000 HD
ENDBRANCH  11  27
TORSDOF 4
ENDMDL
MODEL 7
REMARK VINA RESULT:      -6.3      3.907      6.472
REMARK  Name = 
REMARK  4 active torsions:
REMARK  status: ('A' for Active; 'I' for Inactive)
REMARK    1  A    between atoms: C_5  and  C_6
REMARK    2  A    between atoms: C_9  and  O_10
REMARK    3  A    between atoms: C_17  and  O_18
REMARK    4  A    between atoms: C_23  and  O_24
REMARK                            x       y       z     vdW  Elec       q    Type
REMARK                         _______ _______ _______ _____ _____    ______ ____
ROOT
ATOM      1  C   UNL     1      -3.418  12.749  20.633  0.00  0.00    +0.000 A 
ATOM      2  C   UNL     1      -2.668  12.762  21.832  0.00  0.00    +0.000 A 
ATOM      3  C   UNL     1      -1.488  12.038  21.973  0.00  0.00    +0.000 A 
ATOM      4  C   UNL     1      -1.014  11.292  20.904  0.00  0.00    +0.000 A 
ATOM      5  C   UNL     1      -1.714  11.235  19.688  0.00  0.00    +0.000 A 
ATOM      6  C   UNL     1      -2.925  11.966  19.553  0.00  0.00    +0.000 A 
ATOM      7  C   UNL     1      -3.653  11.852  18.234  0.00  0.00    +0.000 C 
ATOM      8  O   UNL     1      -4.817  12.209  18.087  0.00  0.00    +0.000 OA
ATOM      9  C   UNL     1      -2.905  11.273  17.063  0.00  0.00    +0.000 C 
ATOM     10  C   UNL     1      -2.172  10.028  17.514  0.00  0.00    +0.000 C 
ATOM     11  C   UNL     1      -1.130  10.416  18.554  0.00  0.00    +0.000 C 
ENDROOT
BRANCH   1  16
ATOM     12  O   UNL     1      -5.817  15.689  24.039  0.00  0.00    +0.000 OA
ATOM     13  C   UNL     1      -5.477  15.026  23.063  0.00  0.00    +0.000 C 
ATOM     14  C   UNL     1      -4.252  15.440  22.278  0.00  0.00    +0.000 C 
ATOM     15  C   UNL     1      -4.377  15.102  20.805  0.00  0.00    +0.000 C 
ATOM     16  C   UNL     1      -4.683  13.620  20.563  0.00  0.00    +0.000 C 
ATOM     17  C   UNL     1      -5.816  13.125  21.452  0.00  0.00    +0.000 A 
ATOM     18  C   UNL     1      -6.484  11.947  21.058  0.00  0.00    +0.000 A 
ATOM     19  C   UNL     1      -7.494  11.405  21.842  0.00  0.00    +0.000 A 
ATOM     20  C   UNL     1      -7.852  12.027  23.033  0.00  0.00    +0.000 A 
ATOM     21  C   UNL     1      -7.206  13.202  23.432  0.00  0.00    +0.000 A 
ATOM     22  C   UNL     1      -6.189  13.772  22.647  0.00  0.00    +0.000 A 
BRANCH  21  23
ATOM     23  O   UNL     1      -7.571  13.761  24.624  0.00  0.00    +0.000 OA
ATOM     24  H   UNL     1      -8.335  13.293  24.995  0.00  0.00    +0.000 HD
ENDBRANCH  21  23
ENDBRANCH   1  16
BRANCH   4  25
ATOM     25  O   UNL     1       0.160  10.605  21.032  0.00  0.00    +0.000 OA
ATOM     26  H   UNL     1       0.042   9.874  21.663  0.00  0.00    +0.000 HD
ENDBRANCH   4  25
BRANCH  11  27
ATOM     27  O   UNL     1      -0.111  11.149  17.872  0.00  0.00    +0.000 OA
ATOM     28  H   UNL     1      -0.466  11.449  17.019  0.00  0.00    +0.000 HD
ENDBRANCH  11  27
TORSDOF 4
ENDMDL
MODEL 8
REMARK VINA RESULT:      -6.2      4.863      7.729
REMARK  Name = 
REMARK  4 active torsions:
REMARK  status: ('A' for Active; 'I' for Inactive)
REMARK    1  A    between atoms: C_5  and  C_6
REMARK    2  A    between atoms: C_9  and  O_10
REMARK    3  A    between atoms: C_17  and  O_18
REMARK    4  A    between atoms: C_23  and  O_24
REMARK                            x       y       z     vdW  Elec       q    Type
REMARK                         _______ _______ _______ _____ _____    ______ ____
ROOT
ATOM      1  C   UNL     1      -4.853  12.864  19.910  0.00  0.00    +0.000 A 
ATOM      2  C   UNL     1      -4.015  13.384  20.925  0.00  0.00    +0.000 A 
ATOM      3  C   UNL     1      -2.643  13.158  20.938  0.00  0.00    +0.000 A 
ATOM      4  C   UNL     1      -2.066  12.415  19.919  0.00  0.00    +0.000 A 
ATOM      5  C   UNL     1      -2.842  11.869  18.885  0.00  0.00    +0.000 A 
ATOM      6  C   UNL     1      -4.245  12.092  18.882  0.00  0.00    +0.000 A 
ATOM      7  C   UNL     1      -5.040  11.462  17.763  0.00  0.00    +0.000 C 
ATOM      8  O   UNL     1      -6.261  11.357  17.794  0.00  0.00    +0.000 OA
ATOM      9  C   UNL     1      -4.285  10.946  16.566  0.00  0.00    +0.000 C 
ATOM     10  C   UNL     1      -3.088  10.153  17.044  0.00  0.00    +0.000 C 
ATOM     11  C   UNL     1      -2.144  11.084  17.791  0.00  0.00    +0.000 C 
ENDROOT
BRANCH   1  16
ATOM     12  O   UNL     1      -7.421  17.009  21.400  0.00  0.00    +0.000 OA
ATOM     13  C   UNL     1      -7.064  15.893  21.036  0.00  0.00    +0.000 C 
ATOM     14  C   UNL     1      -6.390  15.733  19.692  0.00  0.00    +0.000 C 
ATOM     15  C   UNL     1      -6.699  14.394  19.052  0.00  0.00    +0.000 C 
ATOM     16  C   UNL     1      -6.350  13.211  19.961  0.00  0.00    +0.000 C 
ATOM     17  C   UNL     1      -6.885  13.407  21.374  0.00  0.00    +0.000 A 
ATOM     18  C   UNL     1      -7.020  12.259  22.182  0.00  0.00    +0.000 A 
ATOM     19  C   UNL     1      -7.454  12.362  23.498  0.00  0.00    +0.000 A 
ATOM     20  C   UNL     1      -7.756  13.612  24.028  0.00  0.00    +0.000 A 
ATOM     21  C   UNL     1      -7.636  14.759  23.236  0.00  0.00    +0.000 A 
ATOM     22  C   UNL     1      -7.209  14.673  21.899  0.00  0.00    +0.000 A 
BRANCH  21  23
ATOM     23  O   UNL     1      -7.915  15.966  23.810  0.00  0.00    +0.000 OA
ATOM     24  H   UNL     1      -8.316  15.840  24.684  0.00  0.00    +0.000 HD
ENDBRANCH  21  23
ENDBRANCH   1  16
BRANCH   4  25
ATOM     25  O   UNL     1      -0.713  12.217  19.915  0.00  0.00    +0.000 OA
ATOM     26  H   UNL     1      -0.397  12.146  18.998  0.00  0.00    +0.000 HD
ENDBRANCH   4  25
BRANCH  11  27
ATOM     27  O   UNL     1      -1.570  11.964  16.823  0.00  0.00    +0.000 OA
ATOM     28  H   UNL     1      -1.367  11.452  16.023  0.00  0.00    +0.000 HD
ENDBRANCH  11  27
TORSDOF 4
ENDMDL
MODEL 9
REMARK VINA RESULT:      -6.2      8.657     10.585
REMARK  Name = 
REMARK  4 active torsions:
REMARK  status: ('A' for Active; 'I' for Inactive)
REMARK    1  A    between atoms: C_5  and  C_6
REMARK    2  A    between atoms: C_9  and  O_10
REMARK    3  A    between atoms: C_17  and  O_18
REMARK    4  A    between atoms: C_23  and  O_24
REMARK                            x       y       z     vdW  Elec       q    Type
REMARK                         _______ _______ _______ _____ _____    ______ ____
ROOT
ATOM      1  C   UNL     1       8.787  15.102  18.577  0.00  0.00    +0.000 A 
ATOM      2  C   UNL     1       9.014  16.438  18.173  0.00  0.00    +0.000 A 
ATOM      3  C   UNL     1      10.166  16.818  17.491  0.00  0.00    +0.000 A 
ATOM      4  C   UNL     1      11.119  15.860  17.178  0.00  0.00    +0.000 A 
ATOM      5  C   UNL     1      10.954  14.518  17.554  0.00  0.00    +0.000 A 
ATOM      6  C   UNL     1       9.782  14.137  18.261  0.00  0.00    +0.000 A 
ATOM      7  C   UNL     1       9.664  12.686  18.665  0.00  0.00    +0.000 C 
ATOM      8  O   UNL     1       8.848  12.293  19.492  0.00  0.00    +0.000 OA
ATOM      9  C   UNL     1      10.594  11.695  18.016  0.00  0.00    +0.000 C 
ATOM     10  C   UNL     1      11.997  12.262  18.020  0.00  0.00    +0.000 C 
ATOM     11  C   UNL     1      12.026  13.519  17.163  0.00  0.00    +0.000 C 
ENDROOT
BRANCH   1  16
ATOM     12  O   UNL     1       4.133  17.177  18.378  0.00  0.00    +0.000 OA
ATOM     13  C   UNL     1       5.144  16.535  18.650  0.00  0.00    +0.000 C 
ATOM     14  C   UNL     1       5.697  15.560  17.635  0.00  0.00    +0.000 C 
ATOM     15  C   UNL     1       6.365  14.368  18.292  0.00  0.00    +0.000 C 
ATOM     16  C   UNL     1       7.460  14.776  19.283  0.00  0.00    +0.000 C 
ATOM     17  C   UNL     1       6.986  15.873  20.229  0.00  0.00    +0.000 A 
ATOM     18  C   UNL     1       7.700  16.045  21.432  0.00  0.00    +0.000 A 
ATOM     19  C   UNL     1       7.361  17.055  22.324  0.00  0.00    +0.000 A 
ATOM     20  C   UNL     1       6.305  17.911  22.026  0.00  0.00    +0.000 A 
ATOM     21  C   UNL     1       5.580  17.745  20.841  0.00  0.00    +0.000 A 
ATOM     22  C   UNL     1       5.902  16.722  19.932  0.00  0.00    +0.000 A 
BRANCH  21  23
ATOM     23  O   UNL     1       4.571  18.628  20.578  0.00  0.00    +0.000 OA
ATOM     24  H   UNL     1       4.065  18.341  19.803  0.00  0.00    +0.000 HD
ENDBRANCH  21  23
ENDBRANCH   1  16
BRANCH   4  25
ATOM     25  O   UNL     1      12.237  16.228  16.483  0.00  0.00    +0.000 OA
ATOM     26  H   UNL     1      12.802  15.449  16.340  0.00  0.00    +0.000 HD
ENDBRANCH   4  25
BRANCH  11  27
ATOM     27  O   UNL     1      11.860  13.104  15.806  0.00  0.00    +0.000 OA
ATOM     28  H   UNL     1      11.587  12.171  15.800  0.00  0.00    +0.000 HD
ENDBRANCH  11  27
TORSDOF 4
ENDMDL
