MODEL 1
REMARK VINA RESULT:      -7.3      0.000      0.000
REMARK  Name = 
REMARK  8 active torsions:
REMARK  status: ('A' for Active; 'I' for Inactive)
REMARK    1  A    between atoms: C_2  and  C_5
REMARK    2  A    between atoms: N_3  and  O_4
REMARK    3  A    between atoms: N_9  and  C_10
REMARK    4  A    between atoms: C_10  and  C_11
REMARK    5  A    between atoms: C_12  and  C_13
REMARK    6  A    between atoms: C_13  and  O_14
REMARK    7  A    between atoms: C_18  and  C_19
REMARK    8  A    between atoms: C_19  and  O_20
REMARK                            x       y       z     vdW  Elec       q    Type
REMARK                         _______ _______ _______ _____ _____    ______ ____
ROOT
ATOM      1  C   UNL     1       6.003   4.677  14.663  0.00  0.00    +0.000 A 
ATOM      2  C   UNL     1       5.610   3.818  15.655  0.00  0.00    +0.000 A 
ATOM      3  N   UNL     1       5.051   4.231  16.810  0.00  0.00    +0.000 NA
ATOM      4  C   UNL     1       4.855   5.549  16.966  0.00  0.00    +0.000 A 
ATOM      5  N   UNL     1       4.313   6.032  18.137  0.00  0.00    +0.000 N 
ATOM      6  N   UNL     1       5.178   6.461  16.039  0.00  0.00    +0.000 NA
ATOM      7  C   UNL     1       5.735   5.998  14.893  0.00  0.00    +0.000 A 
ATOM      8  H   UNL     1       4.465   7.031  18.203  0.00  0.00    +0.000 HD
ENDROOT
BRANCH   1  10
ATOM      9  O   UNL     1       7.501   4.840  12.863  0.00  0.00    +0.000 OA
ATOM     10  C   UNL     1       6.658   4.169  13.450  0.00  0.00    +0.000 C 
ATOM     11  N   UNL     1       6.236   2.943  12.988  0.00  0.00    +0.000 N 
ATOM     12  H   UNL     1       5.321   2.560  13.209  0.00  0.00    +0.000 HD
BRANCH  11  13
ATOM     13  O   UNL     1       6.762   2.573  11.727  0.00  0.00    +0.000 OA
ATOM     14  H   UNL     1       6.406   3.272  11.133  0.00  0.00    +0.000 HD
ENDBRANCH  11  13
ENDBRANCH   1  10
BRANCH   5  15
ATOM     15  C   UNL     1       4.603   5.298  19.353  0.00  0.00    +0.000 C 
BRANCH  15  16
ATOM     16  C   UNL     1       3.338   4.628  19.876  0.00  0.00    +0.000 A 
ATOM     17  C   UNL     1       3.267   3.209  20.006  0.00  0.00    +0.000 A 
ATOM     18  C   UNL     1       2.030   2.610  20.312  0.00  0.00    +0.000 A 
ATOM     19  C   UNL     1       0.898   3.375  20.555  0.00  0.00    +0.000 A 
ATOM     20  C   UNL     1       0.983   4.761  20.511  0.00  0.00    +0.000 A 
ATOM     21  C   UNL     1       2.190   5.413  20.192  0.00  0.00    +0.000 A 
BRANCH  17  22
ATOM     22  C   UNL     1       4.448   2.294  19.739  0.00  0.00    +0.000 C 
BRANCH  22  23
ATOM     23  O   UNL     1       4.331   1.628  18.478  0.00  0.00    +0.000 OA
ATOM     24  H   UNL     1       4.846   2.153  17.842  0.00  0.00    +0.000 HD
ENDBRANCH  22  23
ENDBRANCH  17  22
BRANCH  21  25
ATOM     25  C   UNL     1       2.124   6.926  20.095  0.00  0.00    +0.000 C 
BRANCH  25  26
ATOM     26  O   UNL     1       1.712   7.564  21.295  0.00  0.00    +0.000 OA
ATOM     27  H   UNL     1       2.346   7.293  21.981  0.00  0.00    +0.000 HD
ENDBRANCH  25  26
ENDBRANCH  21  25
ENDBRANCH  15  16
ENDBRANCH   5  15
TORSDOF 8
ENDMDL
MODEL 2
REMARK VINA RESULT:      -7.2      0.153      2.843
REMARK  Name = 
REMARK  8 active torsions:
REMARK  status: ('A' for Active; 'I' for Inactive)
REMARK    1  A    between atoms: C_2  and  C_5
REMARK    2  A    between atoms: N_3  and  O_4
REMARK    3  A    between atoms: N_9  and  C_10
REMARK    4  A    between atoms: C_10  and  C_11
REMARK    5  A    between atoms: C_12  and  C_13
REMARK    6  A    between atoms: C_13  and  O_14
REMARK    7  A    between atoms: C_18  and  C_19
REMARK    8  A    between atoms: C_19  and  O_20
REMARK                            x       y       z     vdW  Elec       q    Type
REMARK                         _______ _______ _______ _____ _____    ______ ____
ROOT
ATOM      1  C   UNL     1       6.038   4.655  14.607  0.00  0.00    +0.000 A 
ATOM      2  C   UNL     1       5.560   3.799  15.563  0.00  0.00    +0.000 A 
ATOM      3  N   UNL     1       5.016   4.219  16.724  0.00  0.00    +0.000 NA
ATOM      4  C   UNL     1       4.925   5.543  16.922  0.00  0.00    +0.000 A 
ATOM      5  N   UNL     1       4.405   6.029  18.101  0.00  0.00    +0.000 N 
ATOM      6  N   UNL     1       5.338   6.455  16.031  0.00  0.00    +0.000 NA
ATOM      7  C   UNL     1       5.875   5.986  14.879  0.00  0.00    +0.000 A 
ATOM      8  H   UNL     1       4.636   7.010  18.203  0.00  0.00    +0.000 HD
ENDROOT
BRANCH   1  10
ATOM      9  O   UNL     1       7.516   4.795  12.788  0.00  0.00    +0.000 OA
ATOM     10  C   UNL     1       6.671   4.136  13.387  0.00  0.00    +0.000 C 
ATOM     11  N   UNL     1       6.226   2.915  12.934  0.00  0.00    +0.000 N 
ATOM     12  H   UNL     1       5.309   2.545  13.167  0.00  0.00    +0.000 HD
BRANCH  11  13
ATOM     13  O   UNL     1       6.731   2.535  11.667  0.00  0.00    +0.000 OA
ATOM     14  H   UNL     1       7.682   2.778  11.734  0.00  0.00    +0.000 HD
ENDBRANCH  11  13
ENDBRANCH   1  10
BRANCH   5  15
ATOM     15  C   UNL     1       4.612   5.234  19.295  0.00  0.00    +0.000 C 
BRANCH  15  16
ATOM     16  C   UNL     1       3.305   4.583  19.727  0.00  0.00    +0.000 A 
ATOM     17  C   UNL     1       2.177   5.381  20.083  0.00  0.00    +0.000 A 
ATOM     18  C   UNL     1       1.050   4.758  20.654  0.00  0.00    +0.000 A 
ATOM     19  C   UNL     1       0.990   3.381  20.815  0.00  0.00    +0.000 A 
ATOM     20  C   UNL     1       2.053   2.593  20.392  0.00  0.00    +0.000 A 
ATOM     21  C   UNL     1       3.212   3.163  19.831  0.00  0.00    +0.000 A 
BRANCH  17  22
ATOM     22  C   UNL     1       2.163   6.894  19.962  0.00  0.00    +0.000 C 
BRANCH  22  23
ATOM     23  O   UNL     1       1.739   7.521  21.175  0.00  0.00    +0.000 OA
ATOM     24  H   UNL     1       2.311   8.298  21.297  0.00  0.00    +0.000 HD
ENDBRANCH  22  23
ENDBRANCH  17  22
BRANCH  21  25
ATOM     25  C   UNL     1       4.331   2.197  19.491  0.00  0.00    +0.000 C 
BRANCH  25  26
ATOM     26  O   UNL     1       4.235   1.635  18.191  0.00  0.00    +0.000 OA
ATOM     27  H   UNL     1       5.136   1.631  17.826  0.00  0.00    +0.000 HD
ENDBRANCH  25  26
ENDBRANCH  21  25
ENDBRANCH  15  16
ENDBRANCH   5  15
TORSDOF 8
ENDMDL
MODEL 3
REMARK VINA RESULT:      -6.9      1.291      1.386
REMARK  Name = 
REMARK  8 active torsions:
REMARK  status: ('A' for Active; 'I' for Inactive)
REMARK    1  A    between atoms: C_2  and  C_5
REMARK    2  A    between atoms: N_3  and  O_4
REMARK    3  A    between atoms: N_9  and  C_10
REMARK    4  A    between atoms: C_10  and  C_11
REMARK    5  A    between atoms: C_12  and  C_13
REMARK    6  A    between atoms: C_13  and  O_14
REMARK    7  A    between atoms: C_18  and  C_19
REMARK    8  A    between atoms: C_19  and  O_20
REMARK                            x       y       z     vdW  Elec       q    Type
REMARK                         _______ _______ _______ _____ _____    ______ ____
ROOT
ATOM      1  C   UNL     1       6.497   4.909  15.269  0.00  0.00    +0.000 A 
ATOM      2  C   UNL     1       5.678   3.906  15.716  0.00  0.00    +0.000 A 
ATOM      3  N   UNL     1       5.102   3.911  16.935  0.00  0.00    +0.000 NA
ATOM      4  C   UNL     1       5.334   4.972  17.723  0.00  0.00    +0.000 A 
ATOM      5  N   UNL     1       4.795   5.019  18.990  0.00  0.00    +0.000 N 
ATOM      6  N   UNL     1       6.096   6.013  17.361  0.00  0.00    +0.000 NA
ATOM      7  C   UNL     1       6.651   5.963  16.126  0.00  0.00    +0.000 A 
ATOM      8  H   UNL     1       5.258   5.735  19.537  0.00  0.00    +0.000 HD
ENDROOT
BRANCH   1  10
ATOM      9  O   UNL     1       8.018   5.611  13.624  0.00  0.00    +0.000 OA
ATOM     10  C   UNL     1       7.140   4.818  13.951  0.00  0.00    +0.000 C 
ATOM     11  N   UNL     1       6.668   3.845  13.100  0.00  0.00    +0.000 N 
ATOM     12  H   UNL     1       5.735   3.451  13.182  0.00  0.00    +0.000 HD
BRANCH  11  13
ATOM     13  O   UNL     1       7.189   3.906  11.785  0.00  0.00    +0.000 OA
ATOM     14  H   UNL     1       7.539   2.996  11.651  0.00  0.00    +0.000 HD
ENDBRANCH  11  13
ENDBRANCH   1  10
BRANCH   5  15
ATOM     15  C   UNL     1       4.612   3.758  19.681  0.00  0.00    +0.000 C 
BRANCH  15  16
ATOM     16  C   UNL     1       3.153   3.325  19.608  0.00  0.00    +0.000 A 
ATOM     17  C   UNL     1       2.768   2.193  18.831  0.00  0.00    +0.000 A 
ATOM     18  C   UNL     1       1.398   1.931  18.633  0.00  0.00    +0.000 A 
ATOM     19  C   UNL     1       0.421   2.712  19.233  0.00  0.00    +0.000 A 
ATOM     20  C   UNL     1       0.792   3.766  20.058  0.00  0.00    +0.000 A 
ATOM     21  C   UNL     1       2.147   4.084  20.276  0.00  0.00    +0.000 A 
BRANCH  17  22
ATOM     22  C   UNL     1       3.768   1.297  18.122  0.00  0.00    +0.000 C 
BRANCH  22  23
ATOM     23  O   UNL     1       4.538   0.523  19.046  0.00  0.00    +0.000 OA
ATOM     24  H   UNL     1       3.975   0.393  19.830  0.00  0.00    +0.000 HD
ENDBRANCH  22  23
ENDBRANCH  17  22
BRANCH  21  25
ATOM     25  C   UNL     1       2.414   5.310  21.130  0.00  0.00    +0.000 C 
BRANCH  25  26
ATOM     26  O   UNL     1       2.437   6.528  20.399  0.00  0.00    +0.000 OA
ATOM     27  H   UNL     1       3.196   6.471  19.795  0.00  0.00    +0.000 HD
ENDBRANCH  25  26
ENDBRANCH  21  25
ENDBRANCH  15  16
ENDBRANCH   5  15
TORSDOF 8
ENDMDL
MODEL 4
REMARK VINA RESULT:      -6.7      3.328      3.889
REMARK  Name = 
REMARK  8 active torsions:
REMARK  status: ('A' for Active; 'I' for Inactive)
REMARK    1  A    between atoms: C_2  and  C_5
REMARK    2  A    between atoms: N_3  and  O_4
REMARK    3  A    between atoms: N_9  and  C_10
REMARK    4  A    between atoms: C_10  and  C_11
REMARK    5  A    between atoms: C_12  and  C_13
REMARK    6  A    between atoms: C_13  and  O_14
REMARK    7  A    between atoms: C_18  and  C_19
REMARK    8  A    between atoms: C_19  and  O_20
REMARK                            x       y       z     vdW  Elec       q    Type
REMARK                         _______ _______ _______ _____ _____    ______ ____
ROOT
ATOM      1  C   UNL     1       6.592   6.307  17.708  0.00  0.00    +0.000 A 
ATOM      2  C   UNL     1       6.809   4.967  17.890  0.00  0.00    +0.000 A 
ATOM      3  N   UNL     1       5.871   4.028  17.651  0.00  0.00    +0.000 NA
ATOM      4  C   UNL     1       4.682   4.445  17.190  0.00  0.00    +0.000 A 
ATOM      5  N   UNL     1       3.676   3.534  16.955  0.00  0.00    +0.000 N 
ATOM      6  N   UNL     1       4.388   5.731  16.953  0.00  0.00    +0.000 NA
ATOM      7  C   UNL     1       5.364   6.637  17.205  0.00  0.00    +0.000 A 
ATOM      8  H   UNL     1       2.789   4.014  16.862  0.00  0.00    +0.000 HD
ENDROOT
BRANCH   1  10
ATOM      9  O   UNL     1       8.470   7.045  18.908  0.00  0.00    +0.000 OA
ATOM     10  C   UNL     1       7.636   7.285  18.040  0.00  0.00    +0.000 C 
ATOM     11  N   UNL     1       7.590   8.487  17.371  0.00  0.00    +0.000 N 
ATOM     12  H   UNL     1       6.736   8.851  16.958  0.00  0.00    +0.000 HD
BRANCH  11  13
ATOM     13  O   UNL     1       8.500   9.462  17.844  0.00  0.00    +0.000 OA
ATOM     14  H   UNL     1       8.028  10.305  17.657  0.00  0.00    +0.000 HD
ENDBRANCH  11  13
ENDBRANCH   1  10
BRANCH   5  15
ATOM     15  C   UNL     1       3.638   2.356  17.799  0.00  0.00    +0.000 C 
BRANCH  15  16
ATOM     16  C   UNL     1       2.991   2.689  19.138  0.00  0.00    +0.000 A 
ATOM     17  C   UNL     1       3.642   2.356  20.363  0.00  0.00    +0.000 A 
ATOM     18  C   UNL     1       2.940   2.506  21.575  0.00  0.00    +0.000 A 
ATOM     19  C   UNL     1       1.657   3.032  21.605  0.00  0.00    +0.000 A 
ATOM     20  C   UNL     1       1.051   3.435  20.421  0.00  0.00    +0.000 A 
ATOM     21  C   UNL     1       1.699   3.292  19.179  0.00  0.00    +0.000 A 
BRANCH  17  22
ATOM     22  C   UNL     1       5.035   1.756  20.423  0.00  0.00    +0.000 C 
BRANCH  22  23
ATOM     23  O   UNL     1       5.362   1.300  21.738  0.00  0.00    +0.000 OA
ATOM     24  H   UNL     1       6.290   1.007  21.704  0.00  0.00    +0.000 HD
ENDBRANCH  22  23
ENDBRANCH  17  22
BRANCH  21  25
ATOM     25  C   UNL     1       0.893   3.692  17.958  0.00  0.00    +0.000 C 
BRANCH  25  26
ATOM     26  O   UNL     1       1.219   4.976  17.446  0.00  0.00    +0.000 OA
ATOM     27  H   UNL     1       2.189   5.042  17.470  0.00  0.00    +0.000 HD
ENDBRANCH  25  26
ENDBRANCH  21  25
ENDBRANCH  15  16
ENDBRANCH   5  15
TORSDOF 8
ENDMDL
MODEL 5
REMARK VINA RESULT:      -6.7      1.279      3.026
REMARK  Name = 
REMARK  8 active torsions:
REMARK  status: ('A' for Active; 'I' for Inactive)
REMARK    1  A    between atoms: C_2  and  C_5
REMARK    2  A    between atoms: N_3  and  O_4
REMARK    3  A    between atoms: N_9  and  C_10
REMARK    4  A    between atoms: C_10  and  C_11
REMARK    5  A    between atoms: C_12  and  C_13
REMARK    6  A    between atoms: C_13  and  O_14
REMARK    7  A    between atoms: C_18  and  C_19
REMARK    8  A    between atoms: C_19  and  O_20
REMARK                            x       y       z     vdW  Elec       q    Type
REMARK                         _______ _______ _______ _____ _____    ______ ____
ROOT
ATOM      1  C   UNL     1       6.573   4.913  15.286  0.00  0.00    +0.000 A 
ATOM      2  C   UNL     1       5.640   4.000  15.699  0.00  0.00    +0.000 A 
ATOM      3  N   UNL     1       5.089   4.013  16.930  0.00  0.00    +0.000 NA
ATOM      4  C   UNL     1       5.468   4.991  17.767  0.00  0.00    +0.000 A 
ATOM      5  N   UNL     1       4.960   5.038  19.046  0.00  0.00    +0.000 N 
ATOM      6  N   UNL     1       6.351   5.944  17.441  0.00  0.00    +0.000 NA
ATOM      7  C   UNL     1       6.875   5.891  16.193  0.00  0.00    +0.000 A 
ATOM      8  H   UNL     1       5.520   5.658  19.619  0.00  0.00    +0.000 HD
ENDROOT
BRANCH   1  10
ATOM      9  O   UNL     1       8.051   5.599  13.595  0.00  0.00    +0.000 OA
ATOM     10  C   UNL     1       7.178   4.812  13.951  0.00  0.00    +0.000 C 
ATOM     11  N   UNL     1       6.677   3.837  13.119  0.00  0.00    +0.000 N 
ATOM     12  H   UNL     1       5.745   3.449  13.229  0.00  0.00    +0.000 HD
BRANCH  11  13
ATOM     13  O   UNL     1       7.161   3.889  11.790  0.00  0.00    +0.000 OA
ATOM     14  H   UNL     1       7.519   2.982  11.657  0.00  0.00    +0.000 HD
ENDBRANCH  11  13
ENDBRANCH   1  10
BRANCH   5  15
ATOM     15  C   UNL     1       4.627   3.775  19.675  0.00  0.00    +0.000 C 
BRANCH  15  16
ATOM     16  C   UNL     1       3.138   3.490  19.527  0.00  0.00    +0.000 A 
ATOM     17  C   UNL     1       2.174   4.281  20.220  0.00  0.00    +0.000 A 
ATOM     18  C   UNL     1       0.824   3.879  20.212  0.00  0.00    +0.000 A 
ATOM     19  C   UNL     1       0.406   2.769  19.492  0.00  0.00    +0.000 A 
ATOM     20  C   UNL     1       1.329   2.044  18.749  0.00  0.00    +0.000 A 
ATOM     21  C   UNL     1       2.694   2.391  18.734  0.00  0.00    +0.000 A 
BRANCH  17  22
ATOM     22  C   UNL     1       2.543   5.497  21.050  0.00  0.00    +0.000 C 
BRANCH  22  23
ATOM     23  O   UNL     1       1.681   6.606  20.783  0.00  0.00    +0.000 OA
ATOM     24  H   UNL     1       1.890   6.905  19.880  0.00  0.00    +0.000 HD
ENDBRANCH  22  23
ENDBRANCH  17  22
BRANCH  21  25
ATOM     25  C   UNL     1       3.607   1.466  17.951  0.00  0.00    +0.000 C 
BRANCH  25  26
ATOM     26  O   UNL     1       4.324   0.543  18.757  0.00  0.00    +0.000 OA
ATOM     27  H   UNL     1       4.072  -0.344  18.450  0.00  0.00    +0.000 HD
ENDBRANCH  25  26
ENDBRANCH  21  25
ENDBRANCH  15  16
ENDBRANCH   5  15
TORSDOF 8
ENDMDL
MODEL 6
REMARK VINA RESULT:      -6.6      3.374      4.382
REMARK  Name = 
REMARK  8 active torsions:
REMARK  status: ('A' for Active; 'I' for Inactive)
REMARK    1  A    between atoms: C_2  and  C_5
REMARK    2  A    between atoms: N_3  and  O_4
REMARK    3  A    between atoms: N_9  and  C_10
REMARK    4  A    between atoms: C_10  and  C_11
REMARK    5  A    between atoms: C_12  and  C_13
REMARK    6  A    between atoms: C_13  and  O_14
REMARK    7  A    between atoms: C_18  and  C_19
REMARK    8  A    between atoms: C_19  and  O_20
REMARK                            x       y       z     vdW  Elec       q    Type
REMARK                         _______ _______ _______ _____ _____    ______ ____
ROOT
ATOM      1  C   UNL     1       6.535   6.284  17.722  0.00  0.00    +0.000 A 
ATOM      2  C   UNL     1       6.764   4.936  17.807  0.00  0.00    +0.000 A 
ATOM      3  N   UNL     1       5.811   4.010  17.580  0.00  0.00    +0.000 NA
ATOM      4  C   UNL     1       4.592   4.450  17.229  0.00  0.00    +0.000 A 
ATOM      5  N   UNL     1       3.571   3.550  17.013  0.00  0.00    +0.000 N 
ATOM      6  N   UNL     1       4.283   5.746  17.092  0.00  0.00    +0.000 NA
ATOM      7  C   UNL     1       5.274   6.639  17.328  0.00  0.00    +0.000 A 
ATOM      8  H   UNL     1       2.680   4.031  17.012  0.00  0.00    +0.000 HD
ENDROOT
BRANCH   1  10
ATOM      9  O   UNL     1       8.450   6.987  18.884  0.00  0.00    +0.000 OA
ATOM     10  C   UNL     1       7.601   7.245  18.036  0.00  0.00    +0.000 C 
ATOM     11  N   UNL     1       7.558   8.451  17.374  0.00  0.00    +0.000 N 
ATOM     12  H   UNL     1       6.702   8.830  16.982  0.00  0.00    +0.000 HD
BRANCH  11  13
ATOM     13  O   UNL     1       8.493   9.410  17.833  0.00  0.00    +0.000 OA
ATOM     14  H   UNL     1       8.031   9.807  18.606  0.00  0.00    +0.000 HD
ENDBRANCH  11  13
ENDBRANCH   1  10
BRANCH   5  15
ATOM     15  C   UNL     1       3.593   2.324  17.785  0.00  0.00    +0.000 C 
BRANCH  15  16
ATOM     16  C   UNL     1       2.894   2.534  19.123  0.00  0.00    +0.000 A 
ATOM     17  C   UNL     1       1.542   2.986  19.175  0.00  0.00    +0.000 A 
ATOM     18  C   UNL     1       0.987   3.348  20.418  0.00  0.00    +0.000 A 
ATOM     19  C   UNL     1       1.707   3.210  21.597  0.00  0.00    +0.000 A 
ATOM     20  C   UNL     1       2.995   2.691  21.559  0.00  0.00    +0.000 A 
ATOM     21  C   UNL     1       3.605   2.330  20.343  0.00  0.00    +0.000 A 
BRANCH  17  22
ATOM     22  C   UNL     1       0.689   3.187  17.936  0.00  0.00    +0.000 C 
BRANCH  22  23
ATOM     23  O   UNL     1       0.938   4.452  17.317  0.00  0.00    +0.000 OA
ATOM     24  H   UNL     1       0.808   4.320  16.362  0.00  0.00    +0.000 HD
ENDBRANCH  22  23
ENDBRANCH  17  22
BRANCH  21  25
ATOM     25  C   UNL     1       5.045   1.858  20.435  0.00  0.00    +0.000 C 
BRANCH  25  26
ATOM     26  O   UNL     1       5.384   1.282  21.687  0.00  0.00    +0.000 OA
ATOM     27  H   UNL     1       5.742   0.399  21.494  0.00  0.00    +0.000 HD
ENDBRANCH  25  26
ENDBRANCH  21  25
ENDBRANCH  15  16
ENDBRANCH   5  15
TORSDOF 8
ENDMDL
MODEL 7
REMARK VINA RESULT:      -6.5      3.509      6.754
REMARK  Name = 
REMARK  8 active torsions:
REMARK  status: ('A' for Active; 'I' for Inactive)
REMARK    1  A    between atoms: C_2  and  C_5
REMARK    2  A    between atoms: N_3  and  O_4
REMARK    3  A    between atoms: N_9  and  C_10
REMARK    4  A    between atoms: C_10  and  C_11
REMARK    5  A    between atoms: C_12  and  C_13
REMARK    6  A    between atoms: C_13  and  O_14
REMARK    7  A    between atoms: C_18  and  C_19
REMARK    8  A    between atoms: C_19  and  O_20
REMARK                            x       y       z     vdW  Elec       q    Type
REMARK                         _______ _______ _______ _____ _____    ______ ____
ROOT
ATOM      1  C   UNL     1       0.527   9.819  18.890  0.00  0.00    +0.000 A 
ATOM      2  C   UNL     1       0.890   9.172  20.041  0.00  0.00    +0.000 A 
ATOM      3  N   UNL     1       1.792   8.171  20.072  0.00  0.00    +0.000 NA
ATOM      4  C   UNL     1       2.369   7.822  18.912  0.00  0.00    +0.000 A 
ATOM      5  N   UNL     1       3.277   6.787  18.879  0.00  0.00    +0.000 N 
ATOM      6  N   UNL     1       2.100   8.417  17.742  0.00  0.00    +0.000 NA
ATOM      7  C   UNL     1       1.190   9.420  17.762  0.00  0.00    +0.000 A 
ATOM      8  H   UNL     1       3.422   6.485  17.923  0.00  0.00    +0.000 HD
ENDROOT
BRANCH   1  10
ATOM      9  O   UNL     1      -0.958  11.278  19.976  0.00  0.00    +0.000 OA
ATOM     10  C   UNL     1      -0.504  10.866  18.913  0.00  0.00    +0.000 C 
ATOM     11  N   UNL     1      -0.962  11.307  17.692  0.00  0.00    +0.000 N 
ATOM     12  H   UNL     1      -0.898  10.746  16.848  0.00  0.00    +0.000 HD
BRANCH  11  13
ATOM     13  O   UNL     1      -2.073  12.182  17.759  0.00  0.00    +0.000 OA
ATOM     14  H   UNL     1      -1.646  13.068  17.784  0.00  0.00    +0.000 HD
ENDBRANCH  11  13
ENDBRANCH   1  10
BRANCH   5  15
ATOM     15  C   UNL     1       3.089   5.709  19.828  0.00  0.00    +0.000 C 
BRANCH  15  16
ATOM     16  C   UNL     1       3.111   4.365  19.110  0.00  0.00    +0.000 A 
ATOM     17  C   UNL     1       4.205   4.008  18.267  0.00  0.00    +0.000 A 
ATOM     18  C   UNL     1       4.110   2.848  17.474  0.00  0.00    +0.000 A 
ATOM     19  C   UNL     1       3.003   2.014  17.547  0.00  0.00    +0.000 A 
ATOM     20  C   UNL     1       1.972   2.313  18.428  0.00  0.00    +0.000 A 
ATOM     21  C   UNL     1       2.007   3.470  19.232  0.00  0.00    +0.000 A 
BRANCH  17  22
ATOM     22  C   UNL     1       5.443   4.872  18.109  0.00  0.00    +0.000 C 
BRANCH  22  23
ATOM     23  O   UNL     1       6.643   4.093  18.142  0.00  0.00    +0.000 OA
ATOM     24  H   UNL     1       7.339   4.677  18.492  0.00  0.00    +0.000 HD
ENDBRANCH  22  23
ENDBRANCH  17  22
BRANCH  21  25
ATOM     25  C   UNL     1       0.779   3.723  20.087  0.00  0.00    +0.000 C 
BRANCH  25  26
ATOM     26  O   UNL     1       0.732   2.947  21.274  0.00  0.00    +0.000 OA
ATOM     27  H   UNL     1       0.611   2.024  20.994  0.00  0.00    +0.000 HD
ENDBRANCH  25  26
ENDBRANCH  21  25
ENDBRANCH  15  16
ENDBRANCH   5  15
TORSDOF 8
ENDMDL
MODEL 8
REMARK VINA RESULT:      -6.5      1.214      2.965
REMARK  Name = 
REMARK  8 active torsions:
REMARK  status: ('A' for Active; 'I' for Inactive)
REMARK    1  A    between atoms: C_2  and  C_5
REMARK    2  A    between atoms: N_3  and  O_4
REMARK    3  A    between atoms: N_9  and  C_10
REMARK    4  A    between atoms: C_10  and  C_11
REMARK    5  A    between atoms: C_12  and  C_13
REMARK    6  A    between atoms: C_13  and  O_14
REMARK    7  A    between atoms: C_18  and  C_19
REMARK    8  A    between atoms: C_19  and  O_20
REMARK                            x       y       z     vdW  Elec       q    Type
REMARK                         _______ _______ _______ _____ _____    ______ ____
ROOT
ATOM      1  C   UNL     1       6.553   4.981  14.967  0.00  0.00    +0.000 A 
ATOM      2  C   UNL     1       5.420   5.749  15.011  0.00  0.00    +0.000 A 
ATOM      3  N   UNL     1       4.692   5.927  16.132  0.00  0.00    +0.000 NA
ATOM      4  C   UNL     1       5.130   5.336  17.254  0.00  0.00    +0.000 A 
ATOM      5  N   UNL     1       4.412   5.459  18.423  0.00  0.00    +0.000 N 
ATOM      6  N   UNL     1       6.242   4.591  17.314  0.00  0.00    +0.000 NA
ATOM      7  C   UNL     1       6.942   4.443  16.163  0.00  0.00    +0.000 A 
ATOM      8  H   UNL     1       4.720   4.766  19.094  0.00  0.00    +0.000 HD
ENDROOT
BRANCH   1  10
ATOM      9  O   UNL     1       8.182   5.532  13.369  0.00  0.00    +0.000 OA
ATOM     10  C   UNL     1       7.271   4.779  13.701  0.00  0.00    +0.000 C 
ATOM     11  N   UNL     1       6.833   3.750  12.900  0.00  0.00    +0.000 N 
ATOM     12  H   UNL     1       5.890   3.377  12.955  0.00  0.00    +0.000 HD
BRANCH  11  13
ATOM     13  O   UNL     1       7.432   3.702  11.619  0.00  0.00    +0.000 OA
ATOM     14  H   UNL     1       7.272   4.610  11.274  0.00  0.00    +0.000 HD
ENDBRANCH  11  13
ENDBRANCH   1  10
BRANCH   5  15
ATOM     15  C   UNL     1       2.973   5.586  18.307  0.00  0.00    +0.000 C 
BRANCH  15  16
ATOM     16  C   UNL     1       2.281   4.514  19.139  0.00  0.00    +0.000 A 
ATOM     17  C   UNL     1       1.637   4.848  20.368  0.00  0.00    +0.000 A 
ATOM     18  C   UNL     1       1.172   3.812  21.202  0.00  0.00    +0.000 A 
ATOM     19  C   UNL     1       1.270   2.481  20.822  0.00  0.00    +0.000 A 
ATOM     20  C   UNL     1       1.822   2.156  19.589  0.00  0.00    +0.000 A 
ATOM     21  C   UNL     1       2.318   3.150  18.723  0.00  0.00    +0.000 A 
BRANCH  17  22
ATOM     22  C   UNL     1       1.505   6.274  20.871  0.00  0.00    +0.000 C 
BRANCH  22  23
ATOM     23  O   UNL     1       2.617   7.082  20.476  0.00  0.00    +0.000 OA
ATOM     24  H   UNL     1       2.499   7.943  20.916  0.00  0.00    +0.000 HD
ENDBRANCH  22  23
ENDBRANCH  17  22
BRANCH  21  25
ATOM     25  C   UNL     1       2.972   2.653  17.447  0.00  0.00    +0.000 C 
BRANCH  25  26
ATOM     26  O   UNL     1       4.299   2.179  17.624  0.00  0.00    +0.000 OA
ATOM     27  H   UNL     1       4.583   1.830  16.762  0.00  0.00    +0.000 HD
ENDBRANCH  25  26
ENDBRANCH  21  25
ENDBRANCH  15  16
ENDBRANCH   5  15
TORSDOF 8
ENDMDL
MODEL 9
REMARK VINA RESULT:      -6.4      3.645      6.842
REMARK  Name = 
REMARK  8 active torsions:
REMARK  status: ('A' for Active; 'I' for Inactive)
REMARK    1  A    between atoms: C_2  and  C_5
REMARK    2  A    between atoms: N_3  and  O_4
REMARK    3  A    between atoms: N_9  and  C_10
REMARK    4  A    between atoms: C_10  and  C_11
REMARK    5  A    between atoms: C_12  and  C_13
REMARK    6  A    between atoms: C_13  and  O_14
REMARK    7  A    between atoms: C_18  and  C_19
REMARK    8  A    between atoms: C_19  and  O_20
REMARK                            x       y       z     vdW  Elec       q    Type
REMARK                         _______ _______ _______ _____ _____    ______ ____
ROOT
ATOM      1  C   UNL     1       0.869  10.153  19.290  0.00  0.00    +0.000 A 
ATOM      2  C   UNL     1       1.428   9.265  18.409  0.00  0.00    +0.000 A 
ATOM      3  N   UNL     1       1.908   8.061  18.780  0.00  0.00    +0.000 NA
ATOM      4  C   UNL     1       1.800   7.723  20.074  0.00  0.00    +0.000 A 
ATOM      5  N   UNL     1       2.298   6.517  20.516  0.00  0.00    +0.000 N 
ATOM      6  N   UNL     1       1.242   8.513  21.002  0.00  0.00    +0.000 NA
ATOM      7  C   UNL     1       0.771   9.712  20.581  0.00  0.00    +0.000 A 
ATOM      8  H   UNL     1       2.372   6.522  21.526  0.00  0.00    +0.000 HD
ENDROOT
BRANCH   1  10
ATOM      9  O   UNL     1       0.830  12.499  19.365  0.00  0.00    +0.000 OA
ATOM     10  C   UNL     1       0.415  11.473  18.833  0.00  0.00    +0.000 C 
ATOM     11  N   UNL     1      -0.528  11.489  17.831  0.00  0.00    +0.000 N 
ATOM     12  H   UNL     1      -1.147  10.705  17.650  0.00  0.00    +0.000 HD
BRANCH  11  13
ATOM     13  O   UNL     1      -1.066  12.767  17.546  0.00  0.00    +0.000 OA
ATOM     14  H   UNL     1      -0.262  13.295  17.337  0.00  0.00    +0.000 HD
ENDBRANCH  11  13
ENDBRANCH   1  10
BRANCH   5  15
ATOM     15  C   UNL     1       3.460   5.989  19.830  0.00  0.00    +0.000 C 
BRANCH  15  16
ATOM     16  C   UNL     1       3.119   4.661  19.164  0.00  0.00    +0.000 A 
ATOM     17  C   UNL     1       3.451   4.427  17.797  0.00  0.00    +0.000 A 
ATOM     18  C   UNL     1       2.960   3.270  17.161  0.00  0.00    +0.000 A 
ATOM     19  C   UNL     1       2.217   2.326  17.855  0.00  0.00    +0.000 A 
ATOM     20  C   UNL     1       1.962   2.510  19.208  0.00  0.00    +0.000 A 
ATOM     21  C   UNL     1       2.414   3.656  19.890  0.00  0.00    +0.000 A 
BRANCH  17  22
ATOM     22  C   UNL     1       4.239   5.414  16.956  0.00  0.00    +0.000 C 
BRANCH  22  23
ATOM     23  O   UNL     1       5.627   5.075  16.898  0.00  0.00    +0.000 OA
ATOM     24  H   UNL     1       6.095   5.882  16.619  0.00  0.00    +0.000 HD
ENDBRANCH  22  23
ENDBRANCH  17  22
BRANCH  21  25
ATOM     25  C   UNL     1       1.994   3.775  21.344  0.00  0.00    +0.000 C 
BRANCH  25  26
ATOM     26  O   UNL     1       2.115   2.567  22.080  0.00  0.00    +0.000 OA
ATOM     27  H   UNL     1       1.210   2.249  22.236  0.00  0.00    +0.000 HD
ENDBRANCH  25  26
ENDBRANCH  21  25
ENDBRANCH  15  16
ENDBRANCH   5  15
TORSDOF 8
ENDMDL
