MODEL 1
REMARK VINA RESULT:      -7.3      0.000      0.000
REMARK  Name = 
REMARK  3 active torsions:
REMARK  status: ('A' for Active; 'I' for Inactive)
REMARK    1  A    between atoms: S_2  and  C_4
REMARK    2  A    between atoms: S_2  and  C_13
REMARK    3  A    between atoms: C_5  and  C_6
REMARK                            x       y       z     vdW  Elec       q    Type
REMARK                         _______ _______ _______ _____ _____    ______ ____
ROOT
ATOM      1  O   UNL     1       6.617   3.669  15.218  0.00  0.00    +0.000 OA
ATOM      2  S   UNL     1       5.753   4.706  15.751  0.00  0.00    +0.000 S 
ATOM      3  O   UNL     1       5.054   5.608  14.853  0.00  0.00    +0.000 OA
ENDROOT
BRANCH   2   4
ATOM      4  C   UNL     1       6.764   5.716  16.823  0.00  0.00    +0.000 A 
ATOM      5  C   UNL     1       6.889   7.087  16.566  0.00  0.00    +0.000 A 
ATOM      6  C   UNL     1       7.628   7.882  17.445  0.00  0.00    +0.000 A 
ATOM      7  C   UNL     1       8.223   7.306  18.564  0.00  0.00    +0.000 A 
ATOM      8  F   UNL     1       8.921   8.075  19.408  0.00  0.00    +0.000 F 
ATOM      9  C   UNL     1       8.091   5.946  18.828  0.00  0.00    +0.000 A 
ATOM     10  C   UNL     1       7.351   5.143  17.960  0.00  0.00    +0.000 A 
ENDBRANCH   2   4
BRANCH   2  11
ATOM     11  C   UNL     1       4.617   3.973  16.837  0.00  0.00    +0.000 C 
ATOM     12  C   UNL     1       3.685   4.731  17.431  0.00  0.00    +0.000 C 
BRANCH  12  13
ATOM     13  C   UNL     1       2.672   4.170  18.332  0.00  0.00    +0.000 A 
ATOM     14  C   UNL     1       2.213   2.870  18.083  0.00  0.00    +0.000 A 
ATOM     15  C   UNL     1       1.215   2.304  18.882  0.00  0.00    +0.000 A 
ATOM     16  C   UNL     1       0.669   3.031  19.938  0.00  0.00    +0.000 A 
ATOM     17  C   UNL     1       1.127   4.322  20.204  0.00  0.00    +0.000 A 
ATOM     18  C   UNL     1       2.124   4.891  19.407  0.00  0.00    +0.000 A 
ATOM     19 CL   UNL     1       2.640   6.501  19.774  0.00  0.00    +0.000 Cl
ENDBRANCH  12  13
ENDBRANCH   2  11
TORSDOF 3
ENDMDL
MODEL 2
REMARK VINA RESULT:      -7.2      3.035      3.654
REMARK  Name = 
REMARK  3 active torsions:
REMARK  status: ('A' for Active; 'I' for Inactive)
REMARK    1  A    between atoms: S_2  and  C_4
REMARK    2  A    between atoms: S_2  and  C_13
REMARK    3  A    between atoms: C_5  and  C_6
REMARK                            x       y       z     vdW  Elec       q    Type
REMARK                         _______ _______ _______ _____ _____    ______ ____
ROOT
ATOM      1  O   UNL     1       6.859   6.514  18.015  0.00  0.00    +0.000 OA
ATOM      2  S   UNL     1       6.959   5.074  17.861  0.00  0.00    +0.000 S 
ATOM      3  O   UNL     1       8.178   4.382  18.241  0.00  0.00    +0.000 OA
ENDROOT
BRANCH   2   4
ATOM      4  C   UNL     1       6.674   4.720  16.134  0.00  0.00    +0.000 A 
ATOM      5  C   UNL     1       7.538   5.249  15.167  0.00  0.00    +0.000 A 
ATOM      6  C   UNL     1       7.348   4.916  13.825  0.00  0.00    +0.000 A 
ATOM      7  C   UNL     1       6.310   4.060  13.466  0.00  0.00    +0.000 A 
ATOM      8  F   UNL     1       6.139   3.736  12.178  0.00  0.00    +0.000 F 
ATOM      9  C   UNL     1       5.456   3.524  14.425  0.00  0.00    +0.000 A 
ATOM     10  C   UNL     1       5.641   3.846  15.770  0.00  0.00    +0.000 A 
ENDBRANCH   2   4
BRANCH   2  11
ATOM     11  C   UNL     1       5.604   4.339  18.655  0.00  0.00    +0.000 C 
ATOM     12  C   UNL     1       4.533   5.084  18.965  0.00  0.00    +0.000 C 
BRANCH  12  13
ATOM     13  C   UNL     1       3.340   4.518  19.604  0.00  0.00    +0.000 A 
ATOM     14  C   UNL     1       3.279   3.129  19.779  0.00  0.00    +0.000 A 
ATOM     15  C   UNL     1       2.146   2.533  20.339  0.00  0.00    +0.000 A 
ATOM     16  C   UNL     1       1.064   3.319  20.732  0.00  0.00    +0.000 A 
ATOM     17  C   UNL     1       1.118   4.705  20.574  0.00  0.00    +0.000 A 
ATOM     18  C   UNL     1       2.249   5.304  20.014  0.00  0.00    +0.000 A 
ATOM     19 CL   UNL     1       2.252   7.023  19.828  0.00  0.00    +0.000 Cl
ENDBRANCH  12  13
ENDBRANCH   2  11
TORSDOF 3
ENDMDL
MODEL 3
REMARK VINA RESULT:      -7.2      3.477      4.352
REMARK  Name = 
REMARK  3 active torsions:
REMARK  status: ('A' for Active; 'I' for Inactive)
REMARK    1  A    between atoms: S_2  and  C_4
REMARK    2  A    between atoms: S_2  and  C_13
REMARK    3  A    between atoms: C_5  and  C_6
REMARK                            x       y       z     vdW  Elec       q    Type
REMARK                         _______ _______ _______ _____ _____    ______ ____
ROOT
ATOM      1  O   UNL     1       7.594   6.787  16.513  0.00  0.00    +0.000 OA
ATOM      2  S   UNL     1       7.113   5.428  16.679  0.00  0.00    +0.000 S 
ATOM      3  O   UNL     1       7.958   4.425  17.302  0.00  0.00    +0.000 OA
ENDROOT
BRANCH   2   4
ATOM      4  C   UNL     1       6.703   4.826  15.048  0.00  0.00    +0.000 A 
ATOM      5  C   UNL     1       7.605   5.012  13.994  0.00  0.00    +0.000 A 
ATOM      6  C   UNL     1       7.307   4.483  12.737  0.00  0.00    +0.000 A 
ATOM      7  C   UNL     1       6.125   3.773  12.549  0.00  0.00    +0.000 A 
ATOM      8  F   UNL     1       5.849   3.258  11.344  0.00  0.00    +0.000 F 
ATOM      9  C   UNL     1       5.230   3.576  13.597  0.00  0.00    +0.000 A 
ATOM     10  C   UNL     1       5.521   4.096  14.859  0.00  0.00    +0.000 A 
ENDBRANCH   2   4
BRANCH   2  11
ATOM     11  C   UNL     1       5.581   5.479  17.489  0.00  0.00    +0.000 C 
ATOM     12  C   UNL     1       5.351   4.660  18.525  0.00  0.00    +0.000 C 
BRANCH  12  13
ATOM     13  C   UNL     1       4.091   4.676  19.276  0.00  0.00    +0.000 A 
ATOM     14  C   UNL     1       3.369   5.876  19.331  0.00  0.00    +0.000 A 
ATOM     15  C   UNL     1       2.187   5.960  20.073  0.00  0.00    +0.000 A 
ATOM     16  C   UNL     1       1.714   4.846  20.762  0.00  0.00    +0.000 A 
ATOM     17  C   UNL     1       2.417   3.642  20.706  0.00  0.00    +0.000 A 
ATOM     18  C   UNL     1       3.600   3.555  19.966  0.00  0.00    +0.000 A 
ATOM     19 CL   UNL     1       4.437   2.041  19.945  0.00  0.00    +0.000 Cl
ENDBRANCH  12  13
ENDBRANCH   2  11
TORSDOF 3
ENDMDL
MODEL 4
REMARK VINA RESULT:      -7.2      3.307      4.120
REMARK  Name = 
REMARK  3 active torsions:
REMARK  status: ('A' for Active; 'I' for Inactive)
REMARK    1  A    between atoms: S_2  and  C_4
REMARK    2  A    between atoms: S_2  and  C_13
REMARK    3  A    between atoms: C_5  and  C_6
REMARK                            x       y       z     vdW  Elec       q    Type
REMARK                         _______ _______ _______ _____ _____    ______ ____
ROOT
ATOM      1  O   UNL     1       6.644   7.046  16.854  0.00  0.00    +0.000 OA
ATOM      2  S   UNL     1       6.520   5.602  16.918  0.00  0.00    +0.000 S 
ATOM      3  O   UNL     1       7.495   4.816  17.653  0.00  0.00    +0.000 OA
ENDROOT
BRANCH   2   4
ATOM      4  C   UNL     1       6.535   5.009  15.233  0.00  0.00    +0.000 A 
ATOM      5  C   UNL     1       7.567   5.401  14.371  0.00  0.00    +0.000 A 
ATOM      6  C   UNL     1       7.608   4.883  13.075  0.00  0.00    +0.000 A 
ATOM      7  C   UNL     1       6.632   3.983  12.659  0.00  0.00    +0.000 A 
ATOM      8  F   UNL     1       6.682   3.482  11.418  0.00  0.00    +0.000 F 
ATOM      9  C   UNL     1       5.611   3.583  13.517  0.00  0.00    +0.000 A 
ATOM     10  C   UNL     1       5.563   4.089  14.816  0.00  0.00    +0.000 A 
ENDBRANCH   2   4
BRANCH   2  11
ATOM     11  C   UNL     1       4.924   5.209  17.471  0.00  0.00    +0.000 C 
ATOM     12  C   UNL     1       4.764   4.588  18.648  0.00  0.00    +0.000 C 
BRANCH  12  13
ATOM     13  C   UNL     1       3.442   4.259  19.191  0.00  0.00    +0.000 A 
ATOM     14  C   UNL     1       2.821   5.192  20.032  0.00  0.00    +0.000 A 
ATOM     15  C   UNL     1       1.582   4.910  20.614  0.00  0.00    +0.000 A 
ATOM     16  C   UNL     1       0.951   3.694  20.360  0.00  0.00    +0.000 A 
ATOM     17  C   UNL     1       1.553   2.761  19.515  0.00  0.00    +0.000 A 
ATOM     18  C   UNL     1       2.793   3.040  18.931  0.00  0.00    +0.000 A 
ATOM     19 CL   UNL     1       3.498   1.839  17.906  0.00  0.00    +0.000 Cl
ENDBRANCH  12  13
ENDBRANCH   2  11
TORSDOF 3
ENDMDL
MODEL 5
REMARK VINA RESULT:      -7.2      3.171      3.936
REMARK  Name = 
REMARK  3 active torsions:
REMARK  status: ('A' for Active; 'I' for Inactive)
REMARK    1  A    between atoms: S_2  and  C_4
REMARK    2  A    between atoms: S_2  and  C_13
REMARK    3  A    between atoms: C_5  and  C_6
REMARK                            x       y       z     vdW  Elec       q    Type
REMARK                         _______ _______ _______ _____ _____    ______ ____
ROOT
ATOM      1  O   UNL     1       5.666   7.035  16.183  0.00  0.00    +0.000 OA
ATOM      2  S   UNL     1       6.299   5.753  16.432  0.00  0.00    +0.000 S 
ATOM      3  O   UNL     1       7.573   5.690  17.124  0.00  0.00    +0.000 OA
ENDROOT
BRANCH   2   4
ATOM      4  C   UNL     1       6.530   4.976  14.840  0.00  0.00    +0.000 A 
ATOM      5  C   UNL     1       5.611   4.017  14.398  0.00  0.00    +0.000 A 
ATOM      6  C   UNL     1       5.762   3.461  13.126  0.00  0.00    +0.000 A 
ATOM      7  C   UNL     1       6.815   3.870  12.314  0.00  0.00    +0.000 A 
ATOM      8  F   UNL     1       6.949   3.341  11.091  0.00  0.00    +0.000 F 
ATOM      9  C   UNL     1       7.725   4.831  12.745  0.00  0.00    +0.000 A 
ATOM     10  C   UNL     1       7.580   5.397  14.012  0.00  0.00    +0.000 A 
ENDBRANCH   2   4
BRANCH   2  11
ATOM     11  C   UNL     1       5.156   4.719  17.225  0.00  0.00    +0.000 C 
ATOM     12  C   UNL     1       3.956   5.202  17.576  0.00  0.00    +0.000 C 
BRANCH  12  13
ATOM     13  C   UNL     1       2.930   4.373  18.218  0.00  0.00    +0.000 A 
ATOM     14  C   UNL     1       2.726   3.076  17.727  0.00  0.00    +0.000 A 
ATOM     15  C   UNL     1       1.730   2.260  18.271  0.00  0.00    +0.000 A 
ATOM     16  C   UNL     1       0.931   2.731  19.310  0.00  0.00    +0.000 A 
ATOM     17  C   UNL     1       1.132   4.016  19.816  0.00  0.00    +0.000 A 
ATOM     18  C   UNL     1       2.126   4.835  19.274  0.00  0.00    +0.000 A 
ATOM     19 CL   UNL     1       2.319   6.424  19.930  0.00  0.00    +0.000 Cl
ENDBRANCH  12  13
ENDBRANCH   2  11
TORSDOF 3
ENDMDL
MODEL 6
REMARK VINA RESULT:      -7.2      3.266      4.137
REMARK  Name = 
REMARK  3 active torsions:
REMARK  status: ('A' for Active; 'I' for Inactive)
REMARK    1  A    between atoms: S_2  and  C_4
REMARK    2  A    between atoms: S_2  and  C_13
REMARK    3  A    between atoms: C_5  and  C_6
REMARK                            x       y       z     vdW  Elec       q    Type
REMARK                         _______ _______ _______ _____ _____    ______ ____
ROOT
ATOM      1  O   UNL     1       6.494   7.178  16.820  0.00  0.00    +0.000 OA
ATOM      2  S   UNL     1       6.433   5.739  17.000  0.00  0.00    +0.000 S 
ATOM      3  O   UNL     1       7.428   5.062  17.813  0.00  0.00    +0.000 OA
ENDROOT
BRANCH   2   4
ATOM      4  C   UNL     1       6.509   5.013  15.370  0.00  0.00    +0.000 A 
ATOM      5  C   UNL     1       5.481   4.164  14.941  0.00  0.00    +0.000 A 
ATOM      6  C   UNL     1       5.515   3.652  13.642  0.00  0.00    +0.000 A 
ATOM      7  C   UNL     1       6.561   3.994  12.792  0.00  0.00    +0.000 A 
ATOM      8  F   UNL     1       6.583   3.508  11.544  0.00  0.00    +0.000 F 
ATOM      9  C   UNL     1       7.579   4.846  13.210  0.00  0.00    +0.000 A 
ATOM     10  C   UNL     1       7.553   5.368  14.504  0.00  0.00    +0.000 A 
ENDBRANCH   2   4
BRANCH   2  11
ATOM     11  C   UNL     1       4.846   5.319  17.557  0.00  0.00    +0.000 C 
ATOM     12  C   UNL     1       4.706   4.601  18.680  0.00  0.00    +0.000 C 
BRANCH  12  13
ATOM     13  C   UNL     1       3.392   4.242  19.226  0.00  0.00    +0.000 A 
ATOM     14  C   UNL     1       2.747   5.165  20.059  0.00  0.00    +0.000 A 
ATOM     15  C   UNL     1       1.516   4.855  20.644  0.00  0.00    +0.000 A 
ATOM     16  C   UNL     1       0.917   3.621  20.399  0.00  0.00    +0.000 A 
ATOM     17  C   UNL     1       1.543   2.697  19.561  0.00  0.00    +0.000 A 
ATOM     18  C   UNL     1       2.775   3.004  18.976  0.00  0.00    +0.000 A 
ATOM     19 CL   UNL     1       3.512   1.814  17.960  0.00  0.00    +0.000 Cl
ENDBRANCH  12  13
ENDBRANCH   2  11
TORSDOF 3
ENDMDL
MODEL 7
REMARK VINA RESULT:      -7.1      3.476      4.418
REMARK  Name = 
REMARK  3 active torsions:
REMARK  status: ('A' for Active; 'I' for Inactive)
REMARK    1  A    between atoms: S_2  and  C_4
REMARK    2  A    between atoms: S_2  and  C_13
REMARK    3  A    between atoms: C_5  and  C_6
REMARK                            x       y       z     vdW  Elec       q    Type
REMARK                         _______ _______ _______ _____ _____    ______ ____
ROOT
ATOM      1  O   UNL     1       7.616   6.761  16.399  0.00  0.00    +0.000 OA
ATOM      2  S   UNL     1       7.139   5.412  16.643  0.00  0.00    +0.000 S 
ATOM      3  O   UNL     1       7.994   4.444  17.307  0.00  0.00    +0.000 OA
ENDROOT
BRANCH   2   4
ATOM      4  C   UNL     1       6.708   4.724  15.052  0.00  0.00    +0.000 A 
ATOM      5  C   UNL     1       5.486   4.059  14.893  0.00  0.00    +0.000 A 
ATOM      6  C   UNL     1       5.127   3.580  13.632  0.00  0.00    +0.000 A 
ATOM      7  C   UNL     1       5.981   3.774  12.551  0.00  0.00    +0.000 A 
ATOM      8  F   UNL     1       5.627   3.321  11.341  0.00  0.00    +0.000 F 
ATOM      9  C   UNL     1       7.192   4.443  12.702  0.00  0.00    +0.000 A 
ATOM     10  C   UNL     1       7.559   4.931  13.957  0.00  0.00    +0.000 A 
ENDBRANCH   2   4
BRANCH   2  11
ATOM     11  C   UNL     1       5.618   5.506  17.470  0.00  0.00    +0.000 C 
ATOM     12  C   UNL     1       5.351   4.649  18.465  0.00  0.00    +0.000 C 
BRANCH  12  13
ATOM     13  C   UNL     1       4.099   4.696  19.229  0.00  0.00    +0.000 A 
ATOM     14  C   UNL     1       3.391   5.905  19.265  0.00  0.00    +0.000 A 
ATOM     15  C   UNL     1       2.218   6.019  20.016  0.00  0.00    +0.000 A 
ATOM     16  C   UNL     1       1.740   4.926  20.735  0.00  0.00    +0.000 A 
ATOM     17  C   UNL     1       2.428   3.713  20.697  0.00  0.00    +0.000 A 
ATOM     18  C   UNL     1       3.603   3.596  19.948  0.00  0.00    +0.000 A 
ATOM     19 CL   UNL     1       4.422   2.073  19.952  0.00  0.00    +0.000 Cl
ENDBRANCH  12  13
ENDBRANCH   2  11
TORSDOF 3
ENDMDL
MODEL 8
REMARK VINA RESULT:      -7.1      0.456      1.204
REMARK  Name = 
REMARK  3 active torsions:
REMARK  status: ('A' for Active; 'I' for Inactive)
REMARK    1  A    between atoms: S_2  and  C_4
REMARK    2  A    between atoms: S_2  and  C_13
REMARK    3  A    between atoms: C_5  and  C_6
REMARK                            x       y       z     vdW  Elec       q    Type
REMARK                         _______ _______ _______ _____ _____    ______ ____
ROOT
ATOM      1  O   UNL     1       6.473   3.454  15.451  0.00  0.00    +0.000 OA
ATOM      2  S   UNL     1       5.594   4.540  15.843  0.00  0.00    +0.000 S 
ATOM      3  O   UNL     1       4.969   5.375  14.834  0.00  0.00    +0.000 OA
ENDROOT
BRANCH   2   4
ATOM      4  C   UNL     1       6.551   5.621  16.896  0.00  0.00    +0.000 A 
ATOM      5  C   UNL     1       7.249   5.086  17.986  0.00  0.00    +0.000 A 
ATOM      6  C   UNL     1       8.046   5.926  18.766  0.00  0.00    +0.000 A 
ATOM      7  C   UNL     1       8.142   7.278  18.449  0.00  0.00    +0.000 A 
ATOM      8  F   UNL     1       8.916   8.077  19.194  0.00  0.00    +0.000 F 
ATOM      9  C   UNL     1       7.458   7.811  17.360  0.00  0.00    +0.000 A 
ATOM     10  C   UNL     1       6.663   6.980  16.570  0.00  0.00    +0.000 A 
ENDBRANCH   2   4
BRANCH   2  11
ATOM     11  C   UNL     1       4.379   3.909  16.908  0.00  0.00    +0.000 C 
ATOM     12  C   UNL     1       3.988   4.629  17.968  0.00  0.00    +0.000 C 
BRANCH  12  13
ATOM     13  C   UNL     1       2.941   4.170  18.888  0.00  0.00    +0.000 A 
ATOM     14  C   UNL     1       2.644   2.801  18.922  0.00  0.00    +0.000 A 
ATOM     15  C   UNL     1       1.623   2.316  19.744  0.00  0.00    +0.000 A 
ATOM     16  C   UNL     1       0.892   3.194  20.542  0.00  0.00    +0.000 A 
ATOM     17  C   UNL     1       1.186   4.558  20.526  0.00  0.00    +0.000 A 
ATOM     18  C   UNL     1       2.205   5.046  19.704  0.00  0.00    +0.000 A 
ATOM     19 CL   UNL     1       2.514   6.748  19.713  0.00  0.00    +0.000 Cl
ENDBRANCH  12  13
ENDBRANCH   2  11
TORSDOF 3
ENDMDL
MODEL 9
REMARK VINA RESULT:      -7.1      1.593      1.719
REMARK  Name = 
REMARK  3 active torsions:
REMARK  status: ('A' for Active; 'I' for Inactive)
REMARK    1  A    between atoms: S_2  and  C_4
REMARK    2  A    between atoms: S_2  and  C_13
REMARK    3  A    between atoms: C_5  and  C_6
REMARK                            x       y       z     vdW  Elec       q    Type
REMARK                         _______ _______ _______ _____ _____    ______ ____
ROOT
ATOM      1  O   UNL     1       6.099   3.323  15.908  0.00  0.00    +0.000 OA
ATOM      2  S   UNL     1       5.418   4.593  16.080  0.00  0.00    +0.000 S 
ATOM      3  O   UNL     1       4.966   5.342  14.921  0.00  0.00    +0.000 OA
ENDROOT
BRANCH   2   4
ATOM      4  C   UNL     1       6.531   5.654  16.987  0.00  0.00    +0.000 A 
ATOM      5  C   UNL     1       6.627   7.009  16.647  0.00  0.00    +0.000 A 
ATOM      6  C   UNL     1       7.451   7.847  17.402  0.00  0.00    +0.000 A 
ATOM      7  C   UNL     1       8.158   7.329  18.483  0.00  0.00    +0.000 A 
ATOM      8  F   UNL     1       8.938   8.140  19.209  0.00  0.00    +0.000 F 
ATOM      9  C   UNL     1       8.057   5.986  18.831  0.00  0.00    +0.000 A 
ATOM     10  C   UNL     1       7.233   5.140  18.087  0.00  0.00    +0.000 A 
ENDBRANCH   2   4
BRANCH   2  11
ATOM     11  C   UNL     1       4.093   4.364  17.175  0.00  0.00    +0.000 C 
ATOM     12  C   UNL     1       4.274   3.650  18.295  0.00  0.00    +0.000 C 
BRANCH  12  13
ATOM     13  C   UNL     1       3.206   3.447  19.280  0.00  0.00    +0.000 A 
ATOM     14  C   UNL     1       1.992   4.121  19.087  0.00  0.00    +0.000 A 
ATOM     15  C   UNL     1       0.958   4.001  20.020  0.00  0.00    +0.000 A 
ATOM     16  C   UNL     1       1.126   3.206  21.152  0.00  0.00    +0.000 A 
ATOM     17  C   UNL     1       2.326   2.521  21.349  0.00  0.00    +0.000 A 
ATOM     18  C   UNL     1       3.362   2.639  20.419  0.00  0.00    +0.000 A 
ATOM     19 CL   UNL     1       4.832   1.780  20.724  0.00  0.00    +0.000 Cl
ENDBRANCH  12  13
ENDBRANCH   2  11
TORSDOF 3
ENDMDL
