MODEL 1
REMARK VINA RESULT:      -7.9      0.000      0.000
REMARK  Name = 
REMARK  2 active torsions:
REMARK  status: ('A' for Active; 'I' for Inactive)
REMARK    1  A    between atoms: N_10  and  C_11
REMARK    2  A    between atoms: C_15  and  N_16
REMARK                            x       y       z     vdW  Elec       q    Type
REMARK                         _______ _______ _______ _____ _____    ______ ____
ROOT
ATOM      1  N   UNL     1       6.850   4.429  14.683  0.00  0.00    +0.000 N 
ATOM      2  C   UNL     1       5.910   4.656  15.612  0.00  0.00    +0.000 A 
ATOM      3  N   UNL     1       5.458   3.720  16.414  0.00  0.00    +0.000 NA
ATOM      4  C   UNL     1       4.557   4.278  17.291  0.00  0.00    +0.000 A 
ATOM      5  C   UNL     1       4.318   5.630  17.131  0.00  0.00    +0.000 A 
ATOM      6  S   UNL     1       5.225   6.225  15.828  0.00  0.00    +0.000 S 
ATOM      7  C   UNL     1       3.453   6.388  18.025  0.00  0.00    +0.000 A 
ATOM      8  N   UNL     1       3.080   7.633  17.668  0.00  0.00    +0.000 NA
ATOM      9  C   UNL     1       2.281   8.272  18.532  0.00  0.00    +0.000 A 
ATOM     10  N   UNL     1       1.878   9.571  18.208  0.00  0.00    +0.000 N 
ATOM     11  N   UNL     1       1.867   7.746  19.701  0.00  0.00    +0.000 NA
ATOM     12  C   UNL     1       2.274   6.509  20.022  0.00  0.00    +0.000 A 
ATOM     13  C   UNL     1       3.069   5.756  19.204  0.00  0.00    +0.000 A 
ATOM     14  C   UNL     1       3.589   4.391  19.586  0.00  0.00    +0.000 C 
ATOM     15  C   UNL     1       3.885   3.490  18.367  0.00  0.00    +0.000 C 
ATOM     16  H   UNL     1       7.043   3.464  14.448  0.00  0.00    +0.000 HD
ATOM     17  H   UNL     1       6.988   5.101  13.940  0.00  0.00    +0.000 HD
ATOM     18  H   UNL     1       2.244   9.818  17.297  0.00  0.00    +0.000 HD
ENDROOT
BRANCH  10  19
ATOM     19  C   UNL     1       0.641  10.161  18.525  0.00  0.00    +0.000 A 
ATOM     20  C   UNL     1       0.568  11.093  19.568  0.00  0.00    +0.000 A 
ATOM     21  C   UNL     1      -0.643  11.710  19.901  0.00  0.00    +0.000 A 
ATOM     22  C   UNL     1      -1.801  11.413  19.183  0.00  0.00    +0.000 A 
ATOM     23  C   UNL     1      -1.739  10.486  18.135  0.00  0.00    +0.000 A 
ATOM     24  C   UNL     1      -0.526   9.866  17.806  0.00  0.00    +0.000 A 
BRANCH  23  25
ATOM     25  N   UNL     1      -2.944  10.169  17.366  0.00  0.00    +0.000 N 
ATOM     26  O   UNL     1      -4.041  10.449  17.869  0.00  0.00    +0.000 OA
ATOM     27  O   UNL     1      -2.801   9.644  16.247  0.00  0.00    +0.000 OA
ENDBRANCH  23  25
ENDBRANCH  10  19
TORSDOF 2
ENDMDL
MODEL 2
REMARK VINA RESULT:      -7.9      4.278      8.670
REMARK  Name = 
REMARK  2 active torsions:
REMARK  status: ('A' for Active; 'I' for Inactive)
REMARK    1  A    between atoms: N_10  and  C_11
REMARK    2  A    between atoms: C_15  and  N_16
REMARK                            x       y       z     vdW  Elec       q    Type
REMARK                         _______ _______ _______ _____ _____    ______ ____
ROOT
ATOM      1  N   UNL     1      -2.540  12.894  23.658  0.00  0.00    +0.000 N 
ATOM      2  C   UNL     1      -1.958  12.260  22.631  0.00  0.00    +0.000 A 
ATOM      3  N   UNL     1      -2.046  12.677  21.389  0.00  0.00    +0.000 NA
ATOM      4  C   UNL     1      -1.290  11.856  20.585  0.00  0.00    +0.000 A 
ATOM      5  C   UNL     1      -0.652  10.808  21.222  0.00  0.00    +0.000 A 
ATOM      6  S   UNL     1      -1.025  10.828  22.876  0.00  0.00    +0.000 S 
ATOM      7  C   UNL     1       0.247   9.895  20.530  0.00  0.00    +0.000 A 
ATOM      8  N   UNL     1       0.636   8.767  21.155  0.00  0.00    +0.000 NA
ATOM      9  C   UNL     1       1.458   7.970  20.460  0.00  0.00    +0.000 A 
ATOM     10  N   UNL     1       1.898   6.794  21.075  0.00  0.00    +0.000 N 
ATOM     11  N   UNL     1       1.904   8.249  19.220  0.00  0.00    +0.000 NA
ATOM     12  C   UNL     1       1.501   9.390  18.641  0.00  0.00    +0.000 A 
ATOM     13  C   UNL     1       0.642  10.265  19.247  0.00  0.00    +0.000 A 
ATOM     14  C   UNL     1       0.237  11.583  18.634  0.00  0.00    +0.000 C 
ATOM     15  C   UNL     1      -1.143  12.080  19.116  0.00  0.00    +0.000 C 
ATOM     16  H   UNL     1      -3.252  13.579  23.433  0.00  0.00    +0.000 HD
ATOM     17  H   UNL     1      -2.652  12.415  24.541  0.00  0.00    +0.000 HD
ATOM     18  H   UNL     1       1.463   6.709  21.985  0.00  0.00    +0.000 HD
ENDROOT
BRANCH  10  19
ATOM     19  C   UNL     1       2.164   5.570  20.433  0.00  0.00    +0.000 A 
ATOM     20  C   UNL     1       1.201   4.553  20.462  0.00  0.00    +0.000 A 
ATOM     21  C   UNL     1       1.427   3.329  19.823  0.00  0.00    +0.000 A 
ATOM     22  C   UNL     1       2.617   3.109  19.129  0.00  0.00    +0.000 A 
ATOM     23  C   UNL     1       3.584   4.121  19.091  0.00  0.00    +0.000 A 
ATOM     24  C   UNL     1       3.358   5.344  19.735  0.00  0.00    +0.000 A 
BRANCH  23  25
ATOM     25  N   UNL     1       4.836   3.909  18.361  0.00  0.00    +0.000 N 
ATOM     26  O   UNL     1       4.762   3.626  17.157  0.00  0.00    +0.000 OA
ATOM     27  O   UNL     1       5.904   4.033  18.987  0.00  0.00    +0.000 OA
ENDBRANCH  23  25
ENDBRANCH  10  19
TORSDOF 2
ENDMDL
MODEL 3
REMARK VINA RESULT:      -7.7      5.115      8.475
REMARK  Name = 
REMARK  2 active torsions:
REMARK  status: ('A' for Active; 'I' for Inactive)
REMARK    1  A    between atoms: N_10  and  C_11
REMARK    2  A    between atoms: C_15  and  N_16
REMARK                            x       y       z     vdW  Elec       q    Type
REMARK                         _______ _______ _______ _____ _____    ______ ____
ROOT
ATOM      1  N   UNL     1       1.770   2.444  22.443  0.00  0.00    +0.000 N 
ATOM      2  C   UNL     1       2.070   3.258  21.422  0.00  0.00    +0.000 A 
ATOM      3  N   UNL     1       1.456   4.400  21.214  0.00  0.00    +0.000 NA
ATOM      4  C   UNL     1       2.034   5.030  20.136  0.00  0.00    +0.000 A 
ATOM      5  C   UNL     1       3.069   4.348  19.523  0.00  0.00    +0.000 A 
ATOM      6  S   UNL     1       3.316   2.860  20.296  0.00  0.00    +0.000 S 
ATOM      7  C   UNL     1       3.837   4.910  18.420  0.00  0.00    +0.000 A 
ATOM      8  N   UNL     1       4.659   4.101  17.722  0.00  0.00    +0.000 NA
ATOM      9  C   UNL     1       5.331   4.680  16.719  0.00  0.00    +0.000 A 
ATOM     10  N   UNL     1       6.205   3.881  15.975  0.00  0.00    +0.000 N 
ATOM     11  N   UNL     1       5.232   5.986  16.404  0.00  0.00    +0.000 NA
ATOM     12  C   UNL     1       4.412   6.756  17.133  0.00  0.00    +0.000 A 
ATOM     13  C   UNL     1       3.658   6.266  18.164  0.00  0.00    +0.000 A 
ATOM     14  C   UNL     1       2.785   7.136  19.035  0.00  0.00    +0.000 C 
ATOM     15  C   UNL     1       1.595   6.375  19.657  0.00  0.00    +0.000 C 
ATOM     16  H   UNL     1       0.895   2.610  22.925  0.00  0.00    +0.000 HD
ATOM     17  H   UNL     1       2.087   1.484  22.425  0.00  0.00    +0.000 HD
ATOM     18  H   UNL     1       6.153   2.927  16.309  0.00  0.00    +0.000 HD
ENDROOT
BRANCH  10  19
ATOM     19  C   UNL     1       6.483   4.010  14.602  0.00  0.00    +0.000 A 
ATOM     20  C   UNL     1       7.422   4.957  14.175  0.00  0.00    +0.000 A 
ATOM     21  C   UNL     1       7.734   5.103  12.818  0.00  0.00    +0.000 A 
ATOM     22  C   UNL     1       7.120   4.288  11.867  0.00  0.00    +0.000 A 
ATOM     23  C   UNL     1       6.184   3.335  12.283  0.00  0.00    +0.000 A 
ATOM     24  C   UNL     1       5.869   3.194  13.642  0.00  0.00    +0.000 A 
BRANCH  23  25
ATOM     25  N   UNL     1       5.535   2.466  11.298  0.00  0.00    +0.000 N 
ATOM     26  O   UNL     1       4.409   2.789  10.896  0.00  0.00    +0.000 OA
ATOM     27  O   UNL     1       6.153   1.458  10.914  0.00  0.00    +0.000 OA
ENDBRANCH  23  25
ENDBRANCH  10  19
TORSDOF 2
ENDMDL
MODEL 4
REMARK VINA RESULT:      -7.7      2.025      2.333
REMARK  Name = 
REMARK  2 active torsions:
REMARK  status: ('A' for Active; 'I' for Inactive)
REMARK    1  A    between atoms: N_10  and  C_11
REMARK    2  A    between atoms: C_15  and  N_16
REMARK                            x       y       z     vdW  Elec       q    Type
REMARK                         _______ _______ _______ _____ _____    ______ ____
ROOT
ATOM      1  N   UNL     1       7.006   4.536  14.317  0.00  0.00    +0.000 N 
ATOM      2  C   UNL     1       6.065   4.660  15.263  0.00  0.00    +0.000 A 
ATOM      3  N   UNL     1       5.592   3.638  15.938  0.00  0.00    +0.000 NA
ATOM      4  C   UNL     1       4.696   4.096  16.876  0.00  0.00    +0.000 A 
ATOM      5  C   UNL     1       4.481   5.462  16.888  0.00  0.00    +0.000 A 
ATOM      6  S   UNL     1       5.406   6.200  15.675  0.00  0.00    +0.000 S 
ATOM      7  C   UNL     1       3.624   6.116  17.868  0.00  0.00    +0.000 A 
ATOM      8  N   UNL     1       3.275   7.402  17.670  0.00  0.00    +0.000 NA
ATOM      9  C   UNL     1       2.482   7.940  18.606  0.00  0.00    +0.000 A 
ATOM     10  N   UNL     1       2.103   9.277  18.448  0.00  0.00    +0.000 N 
ATOM     11  N   UNL     1       2.051   7.278  19.697  0.00  0.00    +0.000 NA
ATOM     12  C   UNL     1       2.435   6.003  19.860  0.00  0.00    +0.000 A 
ATOM     13  C   UNL     1       3.222   5.345  18.956  0.00  0.00    +0.000 A 
ATOM     14  C   UNL     1       3.716   3.934  19.163  0.00  0.00    +0.000 C 
ATOM     15  C   UNL     1       4.003   3.190  17.841  0.00  0.00    +0.000 C 
ATOM     16  H   UNL     1       7.184   3.605  13.961  0.00  0.00    +0.000 HD
ATOM     17  H   UNL     1       7.160   5.294  13.665  0.00  0.00    +0.000 HD
ATOM     18  H   UNL     1       2.478   9.631  17.577  0.00  0.00    +0.000 HD
ENDROOT
BRANCH  10  19
ATOM     19  C   UNL     1       0.874   9.844  18.833  0.00  0.00    +0.000 A 
ATOM     20  C   UNL     1      -0.176   9.906  17.908  0.00  0.00    +0.000 A 
ATOM     21  C   UNL     1      -1.416  10.451  18.261  0.00  0.00    +0.000 A 
ATOM     22  C   UNL     1      -1.629  10.928  19.554  0.00  0.00    +0.000 A 
ATOM     23  C   UNL     1      -0.587  10.867  20.487  0.00  0.00    +0.000 A 
ATOM     24  C   UNL     1       0.655  10.325  20.131  0.00  0.00    +0.000 A 
BRANCH  23  25
ATOM     25  N   UNL     1      -0.797  11.357  21.851  0.00  0.00    +0.000 N 
ATOM     26  O   UNL     1      -1.766  12.101  22.055  0.00  0.00    +0.000 OA
ATOM     27  O   UNL     1       0.004  10.995  22.731  0.00  0.00    +0.000 OA
ENDBRANCH  23  25
ENDBRANCH  10  19
TORSDOF 2
ENDMDL
MODEL 5
REMARK VINA RESULT:      -7.7      4.248      8.609
REMARK  Name = 
REMARK  2 active torsions:
REMARK  status: ('A' for Active; 'I' for Inactive)
REMARK    1  A    between atoms: N_10  and  C_11
REMARK    2  A    between atoms: C_15  and  N_16
REMARK                            x       y       z     vdW  Elec       q    Type
REMARK                         _______ _______ _______ _____ _____    ______ ____
ROOT
ATOM      1  N   UNL     1      -2.401  12.182  23.796  0.00  0.00    +0.000 N 
ATOM      2  C   UNL     1      -1.828  11.725  22.674  0.00  0.00    +0.000 A 
ATOM      3  N   UNL     1      -2.036  12.263  21.495  0.00  0.00    +0.000 NA
ATOM      4  C   UNL     1      -1.259  11.614  20.563  0.00  0.00    +0.000 A 
ATOM      5  C   UNL     1      -0.485  10.574  21.042  0.00  0.00    +0.000 A 
ATOM      6  S   UNL     1      -0.750  10.378  22.704  0.00  0.00    +0.000 S 
ATOM      7  C   UNL     1       0.451   9.838  20.203  0.00  0.00    +0.000 A 
ATOM      8  N   UNL     1       0.986   8.694  20.674  0.00  0.00    +0.000 NA
ATOM      9  C   UNL     1       1.833   8.065  19.850  0.00  0.00    +0.000 A 
ATOM     10  N   UNL     1       2.421   6.879  20.302  0.00  0.00    +0.000 N 
ATOM     11  N   UNL     1       2.169   8.520  18.627  0.00  0.00    +0.000 NA
ATOM     12  C   UNL     1       1.623   9.669  18.204  0.00  0.00    +0.000 A 
ATOM     13  C   UNL     1       0.726  10.382  18.951  0.00  0.00    +0.000 A 
ATOM     14  C   UNL     1       0.158  11.710  18.514  0.00  0.00    +0.000 C 
ATOM     15  C   UNL     1      -1.229  12.009  19.123  0.00  0.00    +0.000 C 
ATOM     16  H   UNL     1      -3.187  12.811  23.690  0.00  0.00    +0.000 HD
ATOM     17  H   UNL     1      -2.409  11.602  24.624  0.00  0.00    +0.000 HD
ATOM     18  H   UNL     1       2.056   6.653  21.219  0.00  0.00    +0.000 HD
ENDROOT
BRANCH  10  19
ATOM     19  C   UNL     1       2.760   5.766  19.512  0.00  0.00    +0.000 A 
ATOM     20  C   UNL     1       1.773   4.829  19.180  0.00  0.00    +0.000 A 
ATOM     21  C   UNL     1       2.072   3.717  18.385  0.00  0.00    +0.000 A 
ATOM     22  C   UNL     1       3.365   3.534  17.895  0.00  0.00    +0.000 A 
ATOM     23  C   UNL     1       4.358   4.466  18.217  0.00  0.00    +0.000 A 
ATOM     24  C   UNL     1       4.058   5.577  19.017  0.00  0.00    +0.000 A 
BRANCH  23  25
ATOM     25  N   UNL     1       5.720   4.292  17.705  0.00  0.00    +0.000 N 
ATOM     26  O   UNL     1       6.656   4.380  18.511  0.00  0.00    +0.000 OA
ATOM     27  O   UNL     1       5.861   4.058  16.492  0.00  0.00    +0.000 OA
ENDBRANCH  23  25
ENDBRANCH  10  19
TORSDOF 2
ENDMDL
MODEL 6
REMARK VINA RESULT:      -7.5      1.009      1.267
REMARK  Name = 
REMARK  2 active torsions:
REMARK  status: ('A' for Active; 'I' for Inactive)
REMARK    1  A    between atoms: N_10  and  C_11
REMARK    2  A    between atoms: C_15  and  N_16
REMARK                            x       y       z     vdW  Elec       q    Type
REMARK                         _______ _______ _______ _____ _____    ______ ____
ROOT
ATOM      1  N   UNL     1       5.911   3.619  16.187  0.00  0.00    +0.000 N 
ATOM      2  C   UNL     1       4.965   4.095  17.007  0.00  0.00    +0.000 A 
ATOM      3  N   UNL     1       4.331   3.345  17.879  0.00  0.00    +0.000 NA
ATOM      4  C   UNL     1       3.476   4.135  18.612  0.00  0.00    +0.000 A 
ATOM      5  C   UNL     1       3.454   5.475  18.274  0.00  0.00    +0.000 A 
ATOM      6  S   UNL     1       4.513   5.760  16.982  0.00  0.00    +0.000 S 
ATOM      7  C   UNL     1       2.663   6.458  19.002  0.00  0.00    +0.000 A 
ATOM      8  N   UNL     1       2.504   7.687  18.472  0.00  0.00    +0.000 NA
ATOM      9  C   UNL     1       1.762   8.539  19.190  0.00  0.00    +0.000 A 
ATOM     10  N   UNL     1       1.579   9.830  18.683  0.00  0.00    +0.000 N 
ATOM     11  N   UNL     1       1.207   8.234  20.379  0.00  0.00    +0.000 NA
ATOM     12  C   UNL     1       1.403   7.004  20.876  0.00  0.00    +0.000 A 
ATOM     13  C   UNL     1       2.121   6.045  20.216  0.00  0.00    +0.000 A 
ATOM     14  C   UNL     1       2.406   4.681  20.797  0.00  0.00    +0.000 C 
ATOM     15  C   UNL     1       2.632   3.597  19.721  0.00  0.00    +0.000 C 
ATOM     16  H   UNL     1       5.970   2.613  16.083  0.00  0.00    +0.000 HD
ATOM     17  H   UNL     1       6.192   4.161  15.381  0.00  0.00    +0.000 HD
ATOM     18  H   UNL     1       2.030   9.902  17.779  0.00  0.00    +0.000 HD
ENDROOT
BRANCH  10  19
ATOM     19  C   UNL     1       0.429  10.626  18.833  0.00  0.00    +0.000 A 
ATOM     20  C   UNL     1       0.437  11.682  19.753  0.00  0.00    +0.000 A 
ATOM     21  C   UNL     1      -0.685  12.503  19.917  0.00  0.00    +0.000 A 
ATOM     22  C   UNL     1      -1.829  12.289  19.149  0.00  0.00    +0.000 A 
ATOM     23  C   UNL     1      -1.845  11.239  18.223  0.00  0.00    +0.000 A 
ATOM     24  C   UNL     1      -0.723  10.415  18.063  0.00  0.00    +0.000 A 
BRANCH  23  25
ATOM     25  N   UNL     1      -3.036  11.004  17.403  0.00  0.00    +0.000 N 
ATOM     26  O   UNL     1      -4.105  10.780  17.987  0.00  0.00    +0.000 OA
ATOM     27  O   UNL     1      -2.911  11.052  16.166  0.00  0.00    +0.000 OA
ENDBRANCH  23  25
ENDBRANCH  10  19
TORSDOF 2
ENDMDL
MODEL 7
REMARK VINA RESULT:      -7.5      4.572      8.628
REMARK  Name = 
REMARK  2 active torsions:
REMARK  status: ('A' for Active; 'I' for Inactive)
REMARK    1  A    between atoms: N_10  and  C_11
REMARK    2  A    between atoms: C_15  and  N_16
REMARK                            x       y       z     vdW  Elec       q    Type
REMARK                         _______ _______ _______ _____ _____    ______ ____
ROOT
ATOM      1  N   UNL     1      -1.841  13.479  22.936  0.00  0.00    +0.000 N 
ATOM      2  C   UNL     1      -1.319  12.670  22.004  0.00  0.00    +0.000 A 
ATOM      3  N   UNL     1      -1.323  12.958  20.724  0.00  0.00    +0.000 NA
ATOM      4  C   UNL     1      -0.657  11.968  20.039  0.00  0.00    +0.000 A 
ATOM      5  C   UNL     1      -0.173  10.925  20.806  0.00  0.00    +0.000 A 
ATOM      6  S   UNL     1      -0.581  11.170  22.433  0.00  0.00    +0.000 S 
ATOM      7  C   UNL     1       0.620   9.839  20.247  0.00  0.00    +0.000 A 
ATOM      8  N   UNL     1       0.849   8.746  21.001  0.00  0.00    +0.000 NA
ATOM      9  C   UNL     1       1.581   7.783  20.425  0.00  0.00    +0.000 A 
ATOM     10  N   UNL     1       1.852   6.635  21.175  0.00  0.00    +0.000 N 
ATOM     11  N   UNL     1       2.088   7.870  19.180  0.00  0.00    +0.000 NA
ATOM     12  C   UNL     1       1.847   8.981  18.470  0.00  0.00    +0.000 A 
ATOM     13  C   UNL     1       1.091  10.016  18.949  0.00  0.00    +0.000 A 
ATOM     14  C   UNL     1       0.871  11.300  18.186  0.00  0.00    +0.000 C 
ATOM     15  C   UNL     1      -0.447  12.012  18.561  0.00  0.00    +0.000 C 
ATOM     16  H   UNL     1      -2.455  14.218  22.615  0.00  0.00    +0.000 HD
ATOM     17  H   UNL     1      -2.035  13.116  23.860  0.00  0.00    +0.000 HD
ATOM     18  H   UNL     1       1.388   6.703  22.072  0.00  0.00    +0.000 HD
ENDROOT
BRANCH  10  19
ATOM     19  C   UNL     1       1.977   5.326  20.676  0.00  0.00    +0.000 A 
ATOM     20  C   UNL     1       0.825   4.575  20.415  0.00  0.00    +0.000 A 
ATOM     21  C   UNL     1       0.911   3.274  19.904  0.00  0.00    +0.000 A 
ATOM     22  C   UNL     1       2.158   2.711  19.632  0.00  0.00    +0.000 A 
ATOM     23  C   UNL     1       3.316   3.455  19.884  0.00  0.00    +0.000 A 
ATOM     24  C   UNL     1       3.227   4.755  20.400  0.00  0.00    +0.000 A 
BRANCH  23  25
ATOM     25  N   UNL     1       4.633   2.881  19.596  0.00  0.00    +0.000 N 
ATOM     26  O   UNL     1       5.415   3.547  18.904  0.00  0.00    +0.000 OA
ATOM     27  O   UNL     1       4.896   1.761  20.069  0.00  0.00    +0.000 OA
ENDBRANCH  23  25
ENDBRANCH  10  19
TORSDOF 2
ENDMDL
MODEL 8
REMARK VINA RESULT:      -7.3      4.200      8.292
REMARK  Name = 
REMARK  2 active torsions:
REMARK  status: ('A' for Active; 'I' for Inactive)
REMARK    1  A    between atoms: N_10  and  C_11
REMARK    2  A    between atoms: C_15  and  N_16
REMARK                            x       y       z     vdW  Elec       q    Type
REMARK                         _______ _______ _______ _____ _____    ______ ____
ROOT
ATOM      1  N   UNL     1      -0.926  14.268  19.013  0.00  0.00    +0.000 N 
ATOM      2  C   UNL     1      -0.488  13.127  19.562  0.00  0.00    +0.000 A 
ATOM      3  N   UNL     1      -0.645  12.839  20.834  0.00  0.00    +0.000 NA
ATOM      4  C   UNL     1      -0.152  11.578  21.072  0.00  0.00    +0.000 A 
ATOM      5  C   UNL     1       0.397  10.928  19.982  0.00  0.00    +0.000 A 
ATOM      6  S   UNL     1       0.320  11.931  18.617  0.00  0.00    +0.000 S 
ATOM      7  C   UNL     1       0.891   9.560  20.047  0.00  0.00    +0.000 A 
ATOM      8  N   UNL     1       1.624   9.084  19.021  0.00  0.00    +0.000 NA
ATOM      9  C   UNL     1       2.051   7.821  19.148  0.00  0.00    +0.000 A 
ATOM     10  N   UNL     1       2.806   7.281  18.102  0.00  0.00    +0.000 N 
ATOM     11  N   UNL     1       1.775   7.037  20.209  0.00  0.00    +0.000 NA
ATOM     12  C   UNL     1       1.031   7.548  21.200  0.00  0.00    +0.000 A 
ATOM     13  C   UNL     1       0.563   8.833  21.189  0.00  0.00    +0.000 A 
ATOM     14  C   UNL     1      -0.332   9.396  22.265  0.00  0.00    +0.000 C 
ATOM     15  C   UNL     1      -0.213  10.928  22.416  0.00  0.00    +0.000 C 
ATOM     16  H   UNL     1      -1.178  15.018  19.645  0.00  0.00    +0.000 HD
ATOM     17  H   UNL     1      -0.575  14.553  18.108  0.00  0.00    +0.000 HD
ATOM     18  H   UNL     1       2.952   7.990  17.394  0.00  0.00    +0.000 HD
ENDROOT
BRANCH  10  19
ATOM     19  C   UNL     1       3.853   6.350  18.227  0.00  0.00    +0.000 A 
ATOM     20  C   UNL     1       3.721   5.280  19.122  0.00  0.00    +0.000 A 
ATOM     21  C   UNL     1       4.737   4.327  19.262  0.00  0.00    +0.000 A 
ATOM     22  C   UNL     1       5.897   4.422  18.493  0.00  0.00    +0.000 A 
ATOM     23  C   UNL     1       6.037   5.485  17.592  0.00  0.00    +0.000 A 
ATOM     24  C   UNL     1       5.021   6.440  17.457  0.00  0.00    +0.000 A 
BRANCH  23  25
ATOM     25  N   UNL     1       7.245   5.595  16.772  0.00  0.00    +0.000 N 
ATOM     26  O   UNL     1       7.550   6.715  16.340  0.00  0.00    +0.000 OA
ATOM     27  O   UNL     1       7.903   4.561  16.562  0.00  0.00    +0.000 OA
ENDBRANCH  23  25
ENDBRANCH  10  19
TORSDOF 2
ENDMDL
MODEL 9
REMARK VINA RESULT:      -7.3      4.198      8.530
REMARK  Name = 
REMARK  2 active torsions:
REMARK  status: ('A' for Active; 'I' for Inactive)
REMARK    1  A    between atoms: N_10  and  C_11
REMARK    2  A    between atoms: C_15  and  N_16
REMARK                            x       y       z     vdW  Elec       q    Type
REMARK                         _______ _______ _______ _____ _____    ______ ____
ROOT
ATOM      1  N   UNL     1      -2.564  12.999  23.833  0.00  0.00    +0.000 N 
ATOM      2  C   UNL     1      -2.110  12.421  22.712  0.00  0.00    +0.000 A 
ATOM      3  N   UNL     1      -2.505  12.780  21.513  0.00  0.00    +0.000 NA
ATOM      4  C   UNL     1      -1.812  12.051  20.575  0.00  0.00    +0.000 A 
ATOM      5  C   UNL     1      -0.912  11.127  21.073  0.00  0.00    +0.000 A 
ATOM      6  S   UNL     1      -0.946  11.148  22.768  0.00  0.00    +0.000 S 
ATOM      7  C   UNL     1      -0.044  10.331  20.217  0.00  0.00    +0.000 A 
ATOM      8  N   UNL     1       0.625   9.292  20.754  0.00  0.00    +0.000 NA
ATOM      9  C   UNL     1       1.401   8.600  19.910  0.00  0.00    +0.000 A 
ATOM     10  N   UNL     1       2.123   7.520  20.427  0.00  0.00    +0.000 N 
ATOM     11  N   UNL     1       1.544   8.899  18.605  0.00  0.00    +0.000 NA
ATOM     12  C   UNL     1       0.870   9.950  18.115  0.00  0.00    +0.000 A 
ATOM     13  C   UNL     1       0.029  10.712  18.880  0.00  0.00    +0.000 A 
ATOM     14  C   UNL     1      -0.680  11.937  18.356  0.00  0.00    +0.000 C 
ATOM     15  C   UNL     1      -1.995  12.245  19.105  0.00  0.00    +0.000 C 
ATOM     16  H   UNL     1      -3.399  13.566  23.755  0.00  0.00    +0.000 HD
ATOM     17  H   UNL     1      -2.425  12.538  24.723  0.00  0.00    +0.000 HD
ATOM     18  H   UNL     1       1.896   7.403  21.407  0.00  0.00    +0.000 HD
ENDROOT
BRANCH  10  19
ATOM     19  C   UNL     1       2.434   6.327  19.749  0.00  0.00    +0.000 A 
ATOM     20  C   UNL     1       3.439   6.331  18.773  0.00  0.00    +0.000 A 
ATOM     21  C   UNL     1       3.784   5.160  18.089  0.00  0.00    +0.000 A 
ATOM     22  C   UNL     1       3.137   3.960  18.384  0.00  0.00    +0.000 A 
ATOM     23  C   UNL     1       2.134   3.944  19.361  0.00  0.00    +0.000 A 
ATOM     24  C   UNL     1       1.787   5.119  20.041  0.00  0.00    +0.000 A 
BRANCH  23  25
ATOM     25  N   UNL     1       1.450   2.691  19.687  0.00  0.00    +0.000 N 
ATOM     26  O   UNL     1       1.598   2.232  20.829  0.00  0.00    +0.000 OA
ATOM     27  O   UNL     1       0.751   2.161  18.805  0.00  0.00    +0.000 OA
ENDBRANCH  23  25
ENDBRANCH  10  19
TORSDOF 2
ENDMDL
