MODEL 1
REMARK VINA RESULT:      -6.5      0.000      0.000
REMARK  Name = 
REMARK  6 active torsions:
REMARK  status: ('A' for Active; 'I' for Inactive)
REMARK    1  A    between atoms: C_1  and  C_2
REMARK    2  A    between atoms: C_2  and  N_3
REMARK    3  A    between atoms: N_6  and  C_7
REMARK    4  A    between atoms: C_7  and  C_8
REMARK    5  A    between atoms: N_10  and  N_11
REMARK    6  A    between atoms: C_12  and  C_13
REMARK                            x       y       z     vdW  Elec       q    Type
REMARK                         _______ _______ _______ _____ _____    ______ ____
ROOT
ATOM      1  C   UNL     1       7.185   6.505  17.986  0.00  0.00    +0.000 C 
ATOM      2  O   UNL     1       7.900   6.064  18.889  0.00  0.00    +0.000 OA
ATOM      3  N   UNL     1       7.336   7.747  17.388  0.00  0.00    +0.000 N 
ATOM      4  H   UNL     1       6.762   7.990  16.583  0.00  0.00    +0.000 HD
ENDROOT
BRANCH   3   5
ATOM      5  N   UNL     1       8.378   8.537  17.784  0.00  0.00    +0.000 NA
ATOM      6  C   UNL     1       8.118   9.762  18.111  0.00  0.00    +0.000 C 
BRANCH   6   7
ATOM      7  C   UNL     1       9.206  10.623  18.513  0.00  0.00    +0.000 A 
ATOM      8  C   UNL     1      10.051  11.366  17.707  0.00  0.00    +0.000 A 
ATOM      9  C   UNL     1      10.985  12.107  18.470  0.00  0.00    +0.000 A 
ATOM     10 BR   UNL     1      12.262  13.233  17.661  0.00  0.00    +0.000 Br
ATOM     11  C   UNL     1      10.848  11.920  19.822  0.00  0.00    +0.000 A 
ATOM     12  S   UNL     1       9.569  10.830  20.172  0.00  0.00    +0.000 S 
ENDBRANCH   6   7
ENDBRANCH   3   5
BRANCH   1  13
ATOM     13  C   UNL     1       5.996   5.702  17.466  0.00  0.00    +0.000 C 
BRANCH  13  17
ATOM     14  N   UNL     1       2.383   4.657  18.104  0.00  0.00    +0.000 NA
ATOM     15  C   UNL     1       3.034   5.803  18.774  0.00  0.00    +0.000 C 
ATOM     16  C   UNL     1       4.442   5.527  19.372  0.00  0.00    +0.000 C 
ATOM     17  N   UNL     1       5.414   4.813  18.500  0.00  0.00    +0.000 NA
ATOM     18  C   UNL     1       4.716   3.685  17.838  0.00  0.00    +0.000 C 
ATOM     19  C   UNL     1       3.363   4.055  17.172  0.00  0.00    +0.000 C 
BRANCH  14  21
ATOM     20  C   UNL     1       1.154   4.126  20.265  0.00  0.00    +0.000 C 
ATOM     21  C   UNL     1       1.866   3.622  19.016  0.00  0.00    +0.000 C 
ENDBRANCH  14  21
ENDBRANCH  13  17
ENDBRANCH   1  13
TORSDOF 5
ENDMDL
MODEL 2
REMARK VINA RESULT:      -6.5      0.824      1.281
REMARK  Name = 
REMARK  6 active torsions:
REMARK  status: ('A' for Active; 'I' for Inactive)
REMARK    1  A    between atoms: C_1  and  C_2
REMARK    2  A    between atoms: C_2  and  N_3
REMARK    3  A    between atoms: N_6  and  C_7
REMARK    4  A    between atoms: C_7  and  C_8
REMARK    5  A    between atoms: N_10  and  N_11
REMARK    6  A    between atoms: C_12  and  C_13
REMARK                            x       y       z     vdW  Elec       q    Type
REMARK                         _______ _______ _______ _____ _____    ______ ____
ROOT
ATOM      1  C   UNL     1       7.492   6.265  18.418  0.00  0.00    +0.000 C 
ATOM      2  O   UNL     1       8.084   5.895  19.435  0.00  0.00    +0.000 OA
ATOM      3  N   UNL     1       7.642   7.506  17.819  0.00  0.00    +0.000 N 
ATOM      4  H   UNL     1       7.188   7.691  16.927  0.00  0.00    +0.000 HD
ENDROOT
BRANCH   3   5
ATOM      5  N   UNL     1       8.544   8.382  18.354  0.00  0.00    +0.000 NA
ATOM      6  C   UNL     1       8.369   9.644  18.127  0.00  0.00    +0.000 C 
BRANCH   6   7
ATOM      7  C   UNL     1       9.321  10.589  18.664  0.00  0.00    +0.000 A 
ATOM      8  C   UNL     1      10.240  11.362  17.976  0.00  0.00    +0.000 A 
ATOM      9  C   UNL     1      10.988  12.186  18.850  0.00  0.00    +0.000 A 
ATOM     10 BR   UNL     1      12.309  13.371  18.212  0.00  0.00    +0.000 Br
ATOM     11  C   UNL     1      10.642  12.032  20.168  0.00  0.00    +0.000 A 
ATOM     12  S   UNL     1       9.393  10.870  20.350  0.00  0.00    +0.000 S 
ENDBRANCH   6   7
ENDBRANCH   3   5
BRANCH   1  13
ATOM     13  C   UNL     1       6.465   5.363  17.738  0.00  0.00    +0.000 C 
BRANCH  13  17
ATOM     14  N   UNL     1       3.323   3.328  18.467  0.00  0.00    +0.000 NA
ATOM     15  C   UNL     1       3.717   3.768  17.112  0.00  0.00    +0.000 C 
ATOM     16  C   UNL     1       4.123   5.262  16.978  0.00  0.00    +0.000 C 
ATOM     17  N   UNL     1       5.070   5.795  17.993  0.00  0.00    +0.000 NA
ATOM     18  C   UNL     1       4.648   5.316  19.332  0.00  0.00    +0.000 C 
ATOM     19  C   UNL     1       4.357   3.794  19.418  0.00  0.00    +0.000 C 
BRANCH  14  21
ATOM     20  C   UNL     1       1.269   2.903  19.903  0.00  0.00    +0.000 C 
ATOM     21  C   UNL     1       1.998   3.796  18.908  0.00  0.00    +0.000 C 
ENDBRANCH  14  21
ENDBRANCH  13  17
ENDBRANCH   1  13
TORSDOF 5
ENDMDL
MODEL 3
REMARK VINA RESULT:      -6.1      1.318      1.688
REMARK  Name = 
REMARK  6 active torsions:
REMARK  status: ('A' for Active; 'I' for Inactive)
REMARK    1  A    between atoms: C_1  and  C_2
REMARK    2  A    between atoms: C_2  and  N_3
REMARK    3  A    between atoms: N_6  and  C_7
REMARK    4  A    between atoms: C_7  and  C_8
REMARK    5  A    between atoms: N_10  and  N_11
REMARK    6  A    between atoms: C_12  and  C_13
REMARK                            x       y       z     vdW  Elec       q    Type
REMARK                         _______ _______ _______ _____ _____    ______ ____
ROOT
ATOM      1  C   UNL     1       7.396   6.356  17.771  0.00  0.00    +0.000 C 
ATOM      2  O   UNL     1       8.253   6.174  18.639  0.00  0.00    +0.000 OA
ATOM      3  N   UNL     1       7.254   7.516  17.026  0.00  0.00    +0.000 N 
ATOM      4  H   UNL     1       6.581   7.544  16.263  0.00  0.00    +0.000 HD
ENDROOT
BRANCH   3   5
ATOM      5  N   UNL     1       8.151   8.528  17.220  0.00  0.00    +0.000 NA
ATOM      6  C   UNL     1       7.839   9.460  18.062  0.00  0.00    +0.000 C 
BRANCH   6   7
ATOM      7  C   UNL     1       8.762  10.552  18.270  0.00  0.00    +0.000 A 
ATOM      8  C   UNL     1       9.950  10.544  18.980  0.00  0.00    +0.000 A 
ATOM      9  C   UNL     1      10.591  11.805  18.941  0.00  0.00    +0.000 A 
ATOM     10 BR   UNL     1      12.242  12.110  19.799  0.00  0.00    +0.000 Br
ATOM     11  C   UNL     1       9.896  12.744  18.222  0.00  0.00    +0.000 A 
ATOM     12  S   UNL     1       8.444  12.087  17.584  0.00  0.00    +0.000 S 
ENDBRANCH   6   7
ENDBRANCH   3   5
BRANCH   1  13
ATOM     13  C   UNL     1       6.347   5.289  17.471  0.00  0.00    +0.000 C 
BRANCH  13  17
ATOM     14  N   UNL     1       3.518   3.001  18.616  0.00  0.00    +0.000 NA
ATOM     15  C   UNL     1       3.590   3.602  17.268  0.00  0.00    +0.000 C 
ATOM     16  C   UNL     1       3.900   5.124  17.221  0.00  0.00    +0.000 C 
ATOM     17  N   UNL     1       5.026   5.606  18.065  0.00  0.00    +0.000 NA
ATOM     18  C   UNL     1       4.924   4.967  19.399  0.00  0.00    +0.000 C 
ATOM     19  C   UNL     1       4.717   3.429  19.372  0.00  0.00    +0.000 C 
BRANCH  14  21
ATOM     20  C   UNL     1       0.980   2.939  18.743  0.00  0.00    +0.000 C 
ATOM     21  C   UNL     1       2.304   3.340  19.379  0.00  0.00    +0.000 C 
ENDBRANCH  14  21
ENDBRANCH  13  17
ENDBRANCH   1  13
TORSDOF 5
ENDMDL
MODEL 4
REMARK VINA RESULT:      -6.1      1.364      1.750
REMARK  Name = 
REMARK  6 active torsions:
REMARK  status: ('A' for Active; 'I' for Inactive)
REMARK    1  A    between atoms: C_1  and  C_2
REMARK    2  A    between atoms: C_2  and  N_3
REMARK    3  A    between atoms: N_6  and  C_7
REMARK    4  A    between atoms: C_7  and  C_8
REMARK    5  A    between atoms: N_10  and  N_11
REMARK    6  A    between atoms: C_12  and  C_13
REMARK                            x       y       z     vdW  Elec       q    Type
REMARK                         _______ _______ _______ _____ _____    ______ ____
ROOT
ATOM      1  C   UNL     1       7.612   7.053  17.784  0.00  0.00    +0.000 C 
ATOM      2  O   UNL     1       7.737   7.323  16.587  0.00  0.00    +0.000 OA
ATOM      3  N   UNL     1       8.165   7.783  18.825  0.00  0.00    +0.000 N 
ATOM      4  H   UNL     1       7.931   7.545  19.786  0.00  0.00    +0.000 HD
ENDROOT
BRANCH   3   5
ATOM      5  N   UNL     1       8.865   8.918  18.523  0.00  0.00    +0.000 NA
ATOM      6  C   UNL     1       9.108   9.751  19.483  0.00  0.00    +0.000 C 
BRANCH   6   7
ATOM      7  C   UNL     1       9.828  10.968  19.186  0.00  0.00    +0.000 A 
ATOM      8  C   UNL     1      10.245  11.435  17.952  0.00  0.00    +0.000 A 
ATOM      9  C   UNL     1      10.906  12.682  18.061  0.00  0.00    +0.000 A 
ATOM     10 BR   UNL     1      11.575  13.589  16.550  0.00  0.00    +0.000 Br
ATOM     11  C   UNL     1      10.990  13.139  19.352  0.00  0.00    +0.000 A 
ATOM     12  S   UNL     1      10.257  12.040  20.448  0.00  0.00    +0.000 S 
ENDBRANCH   6   7
ENDBRANCH   3   5
BRANCH   1  13
ATOM     13  C   UNL     1       6.847   5.810  18.231  0.00  0.00    +0.000 C 
BRANCH  13  17
ATOM     14  N   UNL     1       3.394   4.469  19.140  0.00  0.00    +0.000 NA
ATOM     15  C   UNL     1       4.511   3.614  18.686  0.00  0.00    +0.000 C 
ATOM     16  C   UNL     1       5.266   4.103  17.419  0.00  0.00    +0.000 C 
ATOM     17  N   UNL     1       5.661   5.536  17.384  0.00  0.00    +0.000 NA
ATOM     18  C   UNL     1       4.520   6.354  17.861  0.00  0.00    +0.000 C 
ATOM     19  C   UNL     1       3.879   5.867  19.189  0.00  0.00    +0.000 C 
BRANCH  14  21
ATOM     20  C   UNL     1       1.492   3.037  18.250  0.00  0.00    +0.000 C 
ATOM     21  C   UNL     1       2.181   4.394  18.307  0.00  0.00    +0.000 C 
ENDBRANCH  14  21
ENDBRANCH  13  17
ENDBRANCH   1  13
TORSDOF 5
ENDMDL
MODEL 5
REMARK VINA RESULT:      -6.0      1.588      2.123
REMARK  Name = 
REMARK  6 active torsions:
REMARK  status: ('A' for Active; 'I' for Inactive)
REMARK    1  A    between atoms: C_1  and  C_2
REMARK    2  A    between atoms: C_2  and  N_3
REMARK    3  A    between atoms: N_6  and  C_7
REMARK    4  A    between atoms: C_7  and  C_8
REMARK    5  A    between atoms: N_10  and  N_11
REMARK    6  A    between atoms: C_12  and  C_13
REMARK                            x       y       z     vdW  Elec       q    Type
REMARK                         _______ _______ _______ _____ _____    ______ ____
ROOT
ATOM      1  C   UNL     1       7.796   7.374  17.873  0.00  0.00    +0.000 C 
ATOM      2  O   UNL     1       8.300   6.987  18.930  0.00  0.00    +0.000 OA
ATOM      3  N   UNL     1       7.662   8.702  17.497  0.00  0.00    +0.000 N 
ATOM      4  H   UNL     1       7.323   8.928  16.564  0.00  0.00    +0.000 HD
ENDROOT
BRANCH   3   5
ATOM      5  N   UNL     1       8.163   9.666  18.324  0.00  0.00    +0.000 NA
ATOM      6  C   UNL     1       9.251  10.267  17.964  0.00  0.00    +0.000 C 
BRANCH   6   7
ATOM      7  C   UNL     1       9.812  11.276  18.832  0.00  0.00    +0.000 A 
ATOM      8  C   UNL     1      10.623  12.345  18.489  0.00  0.00    +0.000 A 
ATOM      9  C   UNL     1      10.957  13.131  19.617  0.00  0.00    +0.000 A 
ATOM     10 BR   UNL     1      12.036  14.671  19.472  0.00  0.00    +0.000 Br
ATOM     11  C   UNL     1      10.413  12.661  20.785  0.00  0.00    +0.000 A 
ATOM     12  S   UNL     1       9.484  11.244  20.511  0.00  0.00    +0.000 S 
ENDBRANCH   6   7
ENDBRANCH   3   5
BRANCH   1  13
ATOM     13  C   UNL     1       7.208   6.380  16.875  0.00  0.00    +0.000 C 
BRANCH  13  17
ATOM     14  N   UNL     1       4.632   3.577  17.104  0.00  0.00    +0.000 NA
ATOM     15  C   UNL     1       5.157   4.103  15.827  0.00  0.00    +0.000 C 
ATOM     16  C   UNL     1       5.174   5.651  15.688  0.00  0.00    +0.000 C 
ATOM     17  N   UNL     1       5.727   6.422  16.835  0.00  0.00    +0.000 NA
ATOM     18  C   UNL     1       5.188   5.851  18.093  0.00  0.00    +0.000 C 
ATOM     19  C   UNL     1       5.297   4.306  18.207  0.00  0.00    +0.000 C 
BRANCH  14  21
ATOM     20  C   UNL     1       2.455   2.394  17.671  0.00  0.00    +0.000 C 
ATOM     21  C   UNL     1       3.170   3.673  17.257  0.00  0.00    +0.000 C 
ENDBRANCH  14  21
ENDBRANCH  13  17
ENDBRANCH   1  13
TORSDOF 5
ENDMDL
MODEL 6
REMARK VINA RESULT:      -6.0      1.199      1.666
REMARK  Name = 
REMARK  6 active torsions:
REMARK  status: ('A' for Active; 'I' for Inactive)
REMARK    1  A    between atoms: C_1  and  C_2
REMARK    2  A    between atoms: C_2  and  N_3
REMARK    3  A    between atoms: N_6  and  C_7
REMARK    4  A    between atoms: C_7  and  C_8
REMARK    5  A    between atoms: N_10  and  N_11
REMARK    6  A    between atoms: C_12  and  C_13
REMARK                            x       y       z     vdW  Elec       q    Type
REMARK                         _______ _______ _______ _____ _____    ______ ____
ROOT
ATOM      1  C   UNL     1       6.752   7.003  17.339  0.00  0.00    +0.000 C 
ATOM      2  O   UNL     1       6.265   7.768  16.502  0.00  0.00    +0.000 OA
ATOM      3  N   UNL     1       7.852   7.290  18.131  0.00  0.00    +0.000 N 
ATOM      4  H   UNL     1       8.127   6.638  18.864  0.00  0.00    +0.000 HD
ENDROOT
BRANCH   3   5
ATOM      5  N   UNL     1       8.426   8.525  18.027  0.00  0.00    +0.000 NA
ATOM      6  C   UNL     1       8.786   9.120  19.118  0.00  0.00    +0.000 C 
BRANCH   6   7
ATOM      7  C   UNL     1       9.376  10.435  19.036  0.00  0.00    +0.000 A 
ATOM      8  C   UNL     1       9.891  11.073  17.920  0.00  0.00    +0.000 A 
ATOM      9  C   UNL     1      10.365  12.370  18.231  0.00  0.00    +0.000 A 
ATOM     10 BR   UNL     1      11.108  13.500  16.918  0.00  0.00    +0.000 Br
ATOM     11  C   UNL     1      10.214  12.698  19.555  0.00  0.00    +0.000 A 
ATOM     12  S   UNL     1       9.488  11.415  20.434  0.00  0.00    +0.000 S 
ENDBRANCH   6   7
ENDBRANCH   3   5
BRANCH   1  13
ATOM     13  C   UNL     1       6.186   5.600  17.539  0.00  0.00    +0.000 C 
BRANCH  13  17
ATOM     14  N   UNL     1       3.368   3.679  19.248  0.00  0.00    +0.000 NA
ATOM     15  C   UNL     1       4.136   3.155  18.099  0.00  0.00    +0.000 C 
ATOM     16  C   UNL     1       4.312   4.131  16.902  0.00  0.00    +0.000 C 
ATOM     17  N   UNL     1       4.739   5.519  17.224  0.00  0.00    +0.000 NA
ATOM     18  C   UNL     1       3.957   5.996  18.389  0.00  0.00    +0.000 C 
ATOM     19  C   UNL     1       3.909   5.013  19.590  0.00  0.00    +0.000 C 
BRANCH  14  21
ATOM     20  C   UNL     1       1.089   4.261  20.210  0.00  0.00    +0.000 C 
ATOM     21  C   UNL     1       1.915   3.775  19.027  0.00  0.00    +0.000 C 
ENDBRANCH  14  21
ENDBRANCH  13  17
ENDBRANCH   1  13
TORSDOF 5
ENDMDL
MODEL 7
REMARK VINA RESULT:      -5.8      1.741      2.237
REMARK  Name = 
REMARK  6 active torsions:
REMARK  status: ('A' for Active; 'I' for Inactive)
REMARK    1  A    between atoms: C_1  and  C_2
REMARK    2  A    between atoms: C_2  and  N_3
REMARK    3  A    between atoms: N_6  and  C_7
REMARK    4  A    between atoms: C_7  and  C_8
REMARK    5  A    between atoms: N_10  and  N_11
REMARK    6  A    between atoms: C_12  and  C_13
REMARK                            x       y       z     vdW  Elec       q    Type
REMARK                         _______ _______ _______ _____ _____    ______ ____
ROOT
ATOM      1  C   UNL     1       7.806   6.906  18.045  0.00  0.00    +0.000 C 
ATOM      2  O   UNL     1       8.216   6.549  19.153  0.00  0.00    +0.000 OA
ATOM      3  N   UNL     1       7.831   8.208  17.571  0.00  0.00    +0.000 N 
ATOM      4  H   UNL     1       7.562   8.398  16.608  0.00  0.00    +0.000 HD
ENDROOT
BRANCH   3   5
ATOM      5  N   UNL     1       8.392   9.176  18.356  0.00  0.00    +0.000 NA
ATOM      6  C   UNL     1       8.971  10.173  17.767  0.00  0.00    +0.000 C 
BRANCH   6   7
ATOM      7  C   UNL     1       9.589  11.198  18.575  0.00  0.00    +0.000 A 
ATOM      8  C   UNL     1       9.129  11.747  19.759  0.00  0.00    +0.000 A 
ATOM      9  C   UNL     1      10.025  12.717  20.269  0.00  0.00    +0.000 A 
ATOM     10 BR   UNL     1       9.688  13.633  21.882  0.00  0.00    +0.000 Br
ATOM     11  C   UNL     1      11.133  12.898  19.481  0.00  0.00    +0.000 A 
ATOM     12  S   UNL     1      11.086  11.877  18.102  0.00  0.00    +0.000 S 
ENDBRANCH   6   7
ENDBRANCH   3   5
BRANCH   1  13
ATOM     13  C   UNL     1       7.165   5.905  17.088  0.00  0.00    +0.000 C 
BRANCH  13  17
ATOM     14  N   UNL     1       4.114   3.652  17.492  0.00  0.00    +0.000 NA
ATOM     15  C   UNL     1       4.838   3.828  16.216  0.00  0.00    +0.000 C 
ATOM     16  C   UNL     1       5.146   5.296  15.810  0.00  0.00    +0.000 C 
ATOM     17  N   UNL     1       5.725   6.176  16.862  0.00  0.00    +0.000 NA
ATOM     18  C   UNL     1       4.981   5.954  18.126  0.00  0.00    +0.000 C 
ATOM     19  C   UNL     1       4.799   4.464  18.522  0.00  0.00    +0.000 C 
BRANCH  14  21
ATOM     20  C   UNL     1       1.885   3.727  18.712  0.00  0.00    +0.000 C 
ATOM     21  C   UNL     1       2.686   4.009  17.447  0.00  0.00    +0.000 C 
ENDBRANCH  14  21
ENDBRANCH  13  17
ENDBRANCH   1  13
TORSDOF 5
ENDMDL
MODEL 8
REMARK VINA RESULT:      -5.8      5.998      7.851
REMARK  Name = 
REMARK  6 active torsions:
REMARK  status: ('A' for Active; 'I' for Inactive)
REMARK    1  A    between atoms: C_1  and  C_2
REMARK    2  A    between atoms: C_2  and  N_3
REMARK    3  A    between atoms: N_6  and  C_7
REMARK    4  A    between atoms: C_7  and  C_8
REMARK    5  A    between atoms: N_10  and  N_11
REMARK    6  A    between atoms: C_12  and  C_13
REMARK                            x       y       z     vdW  Elec       q    Type
REMARK                         _______ _______ _______ _____ _____    ______ ____
ROOT
ATOM      1  C   UNL     1       2.135   5.667  20.360  0.00  0.00    +0.000 C 
ATOM      2  O   UNL     1       1.110   5.061  20.681  0.00  0.00    +0.000 OA
ATOM      3  N   UNL     1       2.308   7.040  20.453  0.00  0.00    +0.000 N 
ATOM      4  H   UNL     1       3.220   7.446  20.257  0.00  0.00    +0.000 HD
ENDROOT
BRANCH   3   5
ATOM      5  N   UNL     1       1.295   7.789  20.983  0.00  0.00    +0.000 NA
ATOM      6  C   UNL     1       1.454   9.072  21.032  0.00  0.00    +0.000 C 
BRANCH   6   7
ATOM      7  C   UNL     1       0.406   9.884  21.606  0.00  0.00    +0.000 A 
ATOM      8  C   UNL     1      -0.277  10.937  21.023  0.00  0.00    +0.000 A 
ATOM      9  C   UNL     1      -1.252  11.475  21.896  0.00  0.00    +0.000 A 
ATOM     10 BR   UNL     1      -2.363  12.910  21.383  0.00  0.00    +0.000 Br
ATOM     11  C   UNL     1      -1.297  10.844  23.113  0.00  0.00    +0.000 A 
ATOM     12  S   UNL     1      -0.140   9.580  23.199  0.00  0.00    +0.000 S 
ENDBRANCH   6   7
ENDBRANCH   3   5
BRANCH   1  13
ATOM     13  C   UNL     1       3.328   4.927  19.761  0.00  0.00    +0.000 C 
BRANCH  13  17
ATOM     14  N   UNL     1       5.600   4.060  16.823  0.00  0.00    +0.000 NA
ATOM     15  C   UNL     1       6.077   4.190  18.216  0.00  0.00    +0.000 C 
ATOM     16  C   UNL     1       5.603   5.459  18.977  0.00  0.00    +0.000 C 
ATOM     17  N   UNL     1       4.157   5.794  18.890  0.00  0.00    +0.000 NA
ATOM     18  C   UNL     1       3.719   5.635  17.482  0.00  0.00    +0.000 C 
ATOM     19  C   UNL     1       4.139   4.298  16.815  0.00  0.00    +0.000 C 
BRANCH  14  21
ATOM     20  C   UNL     1       6.630   4.350  14.517  0.00  0.00    +0.000 C 
ATOM     21  C   UNL     1       6.254   4.963  15.860  0.00  0.00    +0.000 C 
ENDBRANCH  14  21
ENDBRANCH  13  17
ENDBRANCH   1  13
TORSDOF 5
ENDMDL
MODEL 9
REMARK VINA RESULT:      -5.8      6.170      7.744
REMARK  Name = 
REMARK  6 active torsions:
REMARK  status: ('A' for Active; 'I' for Inactive)
REMARK    1  A    between atoms: C_1  and  C_2
REMARK    2  A    between atoms: C_2  and  N_3
REMARK    3  A    between atoms: N_6  and  C_7
REMARK    4  A    between atoms: C_7  and  C_8
REMARK    5  A    between atoms: N_10  and  N_11
REMARK    6  A    between atoms: C_12  and  C_13
REMARK                            x       y       z     vdW  Elec       q    Type
REMARK                         _______ _______ _______ _____ _____    ______ ____
ROOT
ATOM      1  C   UNL     1       1.724   5.127  20.563  0.00  0.00    +0.000 C 
ATOM      2  O   UNL     1       0.554   4.738  20.505  0.00  0.00    +0.000 OA
ATOM      3  N   UNL     1       2.115   6.427  20.841  0.00  0.00    +0.000 N 
ATOM      4  H   UNL     1       3.103   6.639  20.965  0.00  0.00    +0.000 HD
ENDROOT
BRANCH   3   5
ATOM      5  N   UNL     1       1.149   7.352  21.122  0.00  0.00    +0.000 NA
ATOM      6  C   UNL     1       1.518   8.581  21.287  0.00  0.00    +0.000 C 
BRANCH   6   7
ATOM      7  C   UNL     1       0.519   9.574  21.605  0.00  0.00    +0.000 A 
ATOM      8  C   UNL     1      -0.007  10.554  20.780  0.00  0.00    +0.000 A 
ATOM      9  C   UNL     1      -0.986  11.329  21.446  0.00  0.00    +0.000 A 
ATOM     10 BR   UNL     1      -1.902  12.732  20.583  0.00  0.00    +0.000 Br
ATOM     11  C   UNL     1      -1.189  10.943  22.747  0.00  0.00    +0.000 A 
ATOM     12  S   UNL     1      -0.176   9.622  23.168  0.00  0.00    +0.000 S 
ENDBRANCH   6   7
ENDBRANCH   3   5
BRANCH   1  13
ATOM     13  C   UNL     1       2.881   4.176  20.270  0.00  0.00    +0.000 C 
BRANCH  13  17
ATOM     14  N   UNL     1       5.302   4.971  17.432  0.00  0.00    +0.000 NA
ATOM     15  C   UNL     1       4.049   5.718  17.673  0.00  0.00    +0.000 C 
ATOM     16  C   UNL     1       2.779   4.854  17.902  0.00  0.00    +0.000 C 
ATOM     17  N   UNL     1       2.901   3.721  18.859  0.00  0.00    +0.000 NA
ATOM     18  C   UNL     1       4.175   3.011  18.592  0.00  0.00    +0.000 C 
ATOM     19  C   UNL     1       5.421   3.930  18.477  0.00  0.00    +0.000 C 
BRANCH  14  21
ATOM     20  C   UNL     1       5.595   5.306  14.929  0.00  0.00    +0.000 C 
ATOM     21  C   UNL     1       5.403   4.350  16.100  0.00  0.00    +0.000 C 
ENDBRANCH  14  21
ENDBRANCH  13  17
ENDBRANCH   1  13
TORSDOF 5
ENDMDL
