MODEL 1
REMARK VINA RESULT:      -7.8      0.000      0.000
REMARK  Name = 
REMARK  7 active torsions:
REMARK  status: ('A' for Active; 'I' for Inactive)
REMARK    1  A    between atoms: C_1  and  C_2
REMARK    2  A    between atoms: C_4  and  C_5
REMARK    3  A    between atoms: N_7  and  C_8
REMARK    4  A    between atoms: C_8  and  C_9
REMARK    5  A    between atoms: C_9  and  N_10
REMARK    6  A    between atoms: N_13  and  C_14
REMARK    7  A    between atoms: C_17  and  C_18
REMARK                            x       y       z     vdW  Elec       q    Type
REMARK                         _______ _______ _______ _____ _____    ______ ____
ROOT
ATOM      1  C   UNL     1       8.191   8.701  17.964  0.00  0.00    +0.000 C 
ATOM      2  C   UNL     1       7.357   7.558  17.543  0.00  0.00    +0.000 A 
ATOM      3  N   UNL     1       7.768   6.651  16.600  0.00  0.00    +0.000 NA
ATOM      4  C   UNL     1       6.712   5.869  16.468  0.00  0.00    +0.000 A 
ATOM      5  N   UNL     1       5.789   6.175  17.454  0.00  0.00    +0.000 N 
ATOM      6  N   UNL     1       6.131   7.350  18.039  0.00  0.00    +0.000 NA
ENDROOT
BRANCH   5   7
ATOM      7  C   UNL     1       4.704   5.402  17.937  0.00  0.00    +0.000 A 
ATOM      8  C   UNL     1       3.398   5.659  17.493  0.00  0.00    +0.000 A 
ATOM      9  C   UNL     1       2.326   4.934  18.011  0.00  0.00    +0.000 A 
ATOM     10  C   UNL     1       2.543   3.942  18.975  0.00  0.00    +0.000 A 
ATOM     11  C   UNL     1       3.859   3.658  19.379  0.00  0.00    +0.000 A 
ATOM     12  C   UNL     1       4.940   4.368  18.847  0.00  0.00    +0.000 A 
BRANCH  10  13
ATOM     13  C   UNL     1       1.381   3.193  19.582  0.00  0.00    +0.000 C 
ATOM     14  F   UNL     1       1.757   2.186  20.419  0.00  0.00    +0.000 F 
ATOM     15  F   UNL     1       0.567   4.002  20.317  0.00  0.00    +0.000 F 
ATOM     16  F   UNL     1       0.584   2.616  18.640  0.00  0.00    +0.000 F 
ENDBRANCH  10  13
ENDBRANCH   5   7
BRANCH   4  17
ATOM     17  C   UNL     1       6.494   4.907  15.359  0.00  0.00    +0.000 A 
ATOM     18  C   UNL     1       6.848   5.062  14.040  0.00  0.00    +0.000 A 
ATOM     19  N   UNL     1       6.422   3.903  13.457  0.00  0.00    +0.000 N 
ATOM     20  N   UNL     1       5.837   3.088  14.348  0.00  0.00    +0.000 NA
ATOM     21  N   UNL     1       5.868   3.699  15.520  0.00  0.00    +0.000 NA
BRANCH  19  22
ATOM     22  C   UNL     1       6.582   3.474  12.086  0.00  0.00    +0.000 C 
BRANCH  22  23
ATOM     23  C   UNL     1       5.495   2.484  11.663  0.00  0.00    +0.000 C 
BRANCH  23  24
ATOM     24  N   UNL     1       6.026   1.125  11.529  0.00  0.00    +0.000 NA
ATOM     25  H   UNL     1       6.094   0.868  10.545  0.00  0.00    +0.000 HD
ATOM     26  H   UNL     1       5.368   0.466  11.947  0.00  0.00    +0.000 HD
ENDBRANCH  23  24
ENDBRANCH  22  23
ENDBRANCH  19  22
ENDBRANCH   4  17
TORSDOF 6
ENDMDL
MODEL 2
REMARK VINA RESULT:      -7.8      0.632      1.012
REMARK  Name = 
REMARK  7 active torsions:
REMARK  status: ('A' for Active; 'I' for Inactive)
REMARK    1  A    between atoms: C_1  and  C_2
REMARK    2  A    between atoms: C_4  and  C_5
REMARK    3  A    between atoms: N_7  and  C_8
REMARK    4  A    between atoms: C_8  and  C_9
REMARK    5  A    between atoms: C_9  and  N_10
REMARK    6  A    between atoms: N_13  and  C_14
REMARK    7  A    between atoms: C_17  and  C_18
REMARK                            x       y       z     vdW  Elec       q    Type
REMARK                         _______ _______ _______ _____ _____    ______ ____
ROOT
ATOM      1  C   UNL     1       8.252   8.527  17.986  0.00  0.00    +0.000 C 
ATOM      2  C   UNL     1       7.351   7.450  17.529  0.00  0.00    +0.000 A 
ATOM      3  N   UNL     1       7.668   6.614  16.489  0.00  0.00    +0.000 NA
ATOM      4  C   UNL     1       6.578   5.879  16.363  0.00  0.00    +0.000 A 
ATOM      5  N   UNL     1       5.731   6.130  17.430  0.00  0.00    +0.000 N 
ATOM      6  N   UNL     1       6.152   7.240  18.086  0.00  0.00    +0.000 NA
ENDROOT
BRANCH   5   7
ATOM      7  C   UNL     1       4.651   5.353  17.919  0.00  0.00    +0.000 A 
ATOM      8  C   UNL     1       3.327   5.746  17.672  0.00  0.00    +0.000 A 
ATOM      9  C   UNL     1       2.267   5.012  18.201  0.00  0.00    +0.000 A 
ATOM     10  C   UNL     1       2.514   3.873  18.979  0.00  0.00    +0.000 A 
ATOM     11  C   UNL     1       3.842   3.460  19.181  0.00  0.00    +0.000 A 
ATOM     12  C   UNL     1       4.908   4.182  18.635  0.00  0.00    +0.000 A 
BRANCH  10  13
ATOM     13  C   UNL     1       1.373   3.107  19.602  0.00  0.00    +0.000 C 
ATOM     14  F   UNL     1       0.484   2.615  18.693  0.00  0.00    +0.000 F 
ATOM     15  F   UNL     1       1.799   2.031  20.322  0.00  0.00    +0.000 F 
ATOM     16  F   UNL     1       0.642   3.868  20.463  0.00  0.00    +0.000 F 
ENDBRANCH  10  13
ENDBRANCH   5   7
BRANCH   4  17
ATOM     17  C   UNL     1       6.254   5.022  15.196  0.00  0.00    +0.000 A 
ATOM     18  C   UNL     1       7.026   4.809  14.079  0.00  0.00    +0.000 A 
ATOM     19  N   UNL     1       6.272   3.953  13.328  0.00  0.00    +0.000 N 
ATOM     20  N   UNL     1       5.110   3.661  13.931  0.00  0.00    +0.000 NA
ATOM     21  N   UNL     1       5.084   4.320  15.078  0.00  0.00    +0.000 NA
BRANCH  19  22
ATOM     22  C   UNL     1       6.606   3.331  12.067  0.00  0.00    +0.000 C 
BRANCH  22  23
ATOM     23  C   UNL     1       5.540   2.327  11.623  0.00  0.00    +0.000 C 
BRANCH  23  24
ATOM     24  N   UNL     1       4.297   2.997  11.234  0.00  0.00    +0.000 NA
ATOM     25  H   UNL     1       3.609   2.313  10.919  0.00  0.00    +0.000 HD
ATOM     26  H   UNL     1       4.480   3.601  10.431  0.00  0.00    +0.000 HD
ENDBRANCH  23  24
ENDBRANCH  22  23
ENDBRANCH  19  22
ENDBRANCH   4  17
TORSDOF 6
ENDMDL
MODEL 3
REMARK VINA RESULT:      -7.7      0.538      1.372
REMARK  Name = 
REMARK  7 active torsions:
REMARK  status: ('A' for Active; 'I' for Inactive)
REMARK    1  A    between atoms: C_1  and  C_2
REMARK    2  A    between atoms: C_4  and  C_5
REMARK    3  A    between atoms: N_7  and  C_8
REMARK    4  A    between atoms: C_8  and  C_9
REMARK    5  A    between atoms: C_9  and  N_10
REMARK    6  A    between atoms: N_13  and  C_14
REMARK    7  A    between atoms: C_17  and  C_18
REMARK                            x       y       z     vdW  Elec       q    Type
REMARK                         _______ _______ _______ _____ _____    ______ ____
ROOT
ATOM      1  C   UNL     1       8.255   8.607  17.969  0.00  0.00    +0.000 C 
ATOM      2  C   UNL     1       7.371   7.514  17.516  0.00  0.00    +0.000 A 
ATOM      3  N   UNL     1       7.677   6.712  16.447  0.00  0.00    +0.000 NA
ATOM      4  C   UNL     1       6.605   5.948  16.339  0.00  0.00    +0.000 A 
ATOM      5  N   UNL     1       5.786   6.149  17.439  0.00  0.00    +0.000 N 
ATOM      6  N   UNL     1       6.197   7.256  18.106  0.00  0.00    +0.000 NA
ENDROOT
BRANCH   5   7
ATOM      7  C   UNL     1       4.746   5.331  17.943  0.00  0.00    +0.000 A 
ATOM      8  C   UNL     1       5.041   4.092  18.532  0.00  0.00    +0.000 A 
ATOM      9  C   UNL     1       4.012   3.264  18.976  0.00  0.00    +0.000 A 
ATOM     10  C   UNL     1       2.676   3.662  18.844  0.00  0.00    +0.000 A 
ATOM     11  C   UNL     1       2.391   4.925  18.296  0.00  0.00    +0.000 A 
ATOM     12  C   UNL     1       3.421   5.768  17.867  0.00  0.00    +0.000 A 
BRANCH  10  13
ATOM     13  C   UNL     1       1.555   2.746  19.271  0.00  0.00    +0.000 C 
ATOM     14  F   UNL     1       0.403   3.401  19.586  0.00  0.00    +0.000 F 
ATOM     15  F   UNL     1       1.218   1.848  18.303  0.00  0.00    +0.000 F 
ATOM     16  F   UNL     1       1.876   2.008  20.370  0.00  0.00    +0.000 F 
ENDBRANCH  10  13
ENDBRANCH   5   7
BRANCH   4  17
ATOM     17  C   UNL     1       6.267   5.109  15.163  0.00  0.00    +0.000 A 
ATOM     18  C   UNL     1       7.082   4.793  14.103  0.00  0.00    +0.000 A 
ATOM     19  N   UNL     1       6.291   4.009  13.313  0.00  0.00    +0.000 N 
ATOM     20  N   UNL     1       5.067   3.855  13.840  0.00  0.00    +0.000 NA
ATOM     21  N   UNL     1       5.038   4.534  14.975  0.00  0.00    +0.000 NA
BRANCH  19  22
ATOM     22  C   UNL     1       6.638   3.330  12.085  0.00  0.00    +0.000 C 
BRANCH  22  23
ATOM     23  C   UNL     1       5.571   2.314  11.671  0.00  0.00    +0.000 C 
BRANCH  23  24
ATOM     24  N   UNL     1       6.160   1.005  11.378  0.00  0.00    +0.000 NA
ATOM     25  H   UNL     1       6.899   1.097  10.681  0.00  0.00    +0.000 HD
ATOM     26  H   UNL     1       5.449   0.406  10.955  0.00  0.00    +0.000 HD
ENDBRANCH  23  24
ENDBRANCH  22  23
ENDBRANCH  19  22
ENDBRANCH   4  17
TORSDOF 6
ENDMDL
MODEL 4
REMARK VINA RESULT:      -7.6      0.691      1.320
REMARK  Name = 
REMARK  7 active torsions:
REMARK  status: ('A' for Active; 'I' for Inactive)
REMARK    1  A    between atoms: C_1  and  C_2
REMARK    2  A    between atoms: C_4  and  C_5
REMARK    3  A    between atoms: N_7  and  C_8
REMARK    4  A    between atoms: C_8  and  C_9
REMARK    5  A    between atoms: C_9  and  N_10
REMARK    6  A    between atoms: N_13  and  C_14
REMARK    7  A    between atoms: C_17  and  C_18
REMARK                            x       y       z     vdW  Elec       q    Type
REMARK                         _______ _______ _______ _____ _____    ______ ____
ROOT
ATOM      1  C   UNL     1       8.172   8.837  17.923  0.00  0.00    +0.000 C 
ATOM      2  C   UNL     1       7.363   7.663  17.540  0.00  0.00    +0.000 A 
ATOM      3  N   UNL     1       7.759   6.778  16.570  0.00  0.00    +0.000 NA
ATOM      4  C   UNL     1       6.730   5.954  16.489  0.00  0.00    +0.000 A 
ATOM      5  N   UNL     1       5.849   6.218  17.525  0.00  0.00    +0.000 N 
ATOM      6  N   UNL     1       6.174   7.403  18.098  0.00  0.00    +0.000 NA
ENDROOT
BRANCH   5   7
ATOM      7  C   UNL     1       4.823   5.400  18.059  0.00  0.00    +0.000 A 
ATOM      8  C   UNL     1       5.132   4.384  18.976  0.00  0.00    +0.000 A 
ATOM      9  C   UNL     1       4.129   3.545  19.457  0.00  0.00    +0.000 A 
ATOM     10  C   UNL     1       2.805   3.711  19.034  0.00  0.00    +0.000 A 
ATOM     11  C   UNL     1       2.496   4.761  18.152  0.00  0.00    +0.000 A 
ATOM     12  C   UNL     1       3.496   5.619  17.682  0.00  0.00    +0.000 A 
BRANCH  10  13
ATOM     13  C   UNL     1       1.724   2.769  19.507  0.00  0.00    +0.000 C 
ATOM     14  F   UNL     1       1.554   1.684  18.702  0.00  0.00    +0.000 F 
ATOM     15  F   UNL     1       1.972   2.272  20.751  0.00  0.00    +0.000 F 
ATOM     16  F   UNL     1       0.504   3.372  19.582  0.00  0.00    +0.000 F 
ENDBRANCH  10  13
ENDBRANCH   5   7
BRANCH   4  17
ATOM     17  C   UNL     1       6.492   4.989  15.387  0.00  0.00    +0.000 A 
ATOM     18  C   UNL     1       6.942   5.076  14.092  0.00  0.00    +0.000 A 
ATOM     19  N   UNL     1       6.445   3.947  13.505  0.00  0.00    +0.000 N 
ATOM     20  N   UNL     1       5.730   3.215  14.371  0.00  0.00    +0.000 NA
ATOM     21  N   UNL     1       5.745   3.850  15.531  0.00  0.00    +0.000 NA
BRANCH  19  22
ATOM     22  C   UNL     1       6.650   3.471  12.156  0.00  0.00    +0.000 C 
BRANCH  22  23
ATOM     23  C   UNL     1       5.529   2.534  11.701  0.00  0.00    +0.000 C 
BRANCH  23  24
ATOM     24  N   UNL     1       4.273   3.258  11.491  0.00  0.00    +0.000 NA
ATOM     25  H   UNL     1       3.840   2.969  10.614  0.00  0.00    +0.000 HD
ATOM     26  H   UNL     1       4.475   4.254  11.390  0.00  0.00    +0.000 HD
ENDBRANCH  23  24
ENDBRANCH  22  23
ENDBRANCH  19  22
ENDBRANCH   4  17
TORSDOF 6
ENDMDL
MODEL 5
REMARK VINA RESULT:      -7.6      1.723      5.013
REMARK  Name = 
REMARK  7 active torsions:
REMARK  status: ('A' for Active; 'I' for Inactive)
REMARK    1  A    between atoms: C_1  and  C_2
REMARK    2  A    between atoms: C_4  and  C_5
REMARK    3  A    between atoms: N_7  and  C_8
REMARK    4  A    between atoms: C_8  and  C_9
REMARK    5  A    between atoms: C_9  and  N_10
REMARK    6  A    between atoms: N_13  and  C_14
REMARK    7  A    between atoms: C_17  and  C_18
REMARK                            x       y       z     vdW  Elec       q    Type
REMARK                         _______ _______ _______ _____ _____    ______ ____
ROOT
ATOM      1  C   UNL     1       6.181   3.806  12.963  0.00  0.00    +0.000 C 
ATOM      2  C   UNL     1       6.067   4.319  14.343  0.00  0.00    +0.000 A 
ATOM      3  N   UNL     1       6.815   5.371  14.804  0.00  0.00    +0.000 NA
ATOM      4  C   UNL     1       6.469   5.439  16.077  0.00  0.00    +0.000 A 
ATOM      5  N   UNL     1       5.396   4.594  16.306  0.00  0.00    +0.000 N 
ATOM      6  N   UNL     1       5.241   3.768  15.242  0.00  0.00    +0.000 NA
ENDROOT
BRANCH   5   7
ATOM      7  C   UNL     1       4.472   4.590  17.380  0.00  0.00    +0.000 A 
ATOM      8  C   UNL     1       3.924   3.383  17.839  0.00  0.00    +0.000 A 
ATOM      9  C   UNL     1       2.973   3.387  18.858  0.00  0.00    +0.000 A 
ATOM     10  C   UNL     1       2.560   4.594  19.435  0.00  0.00    +0.000 A 
ATOM     11  C   UNL     1       3.148   5.795  19.001  0.00  0.00    +0.000 A 
ATOM     12  C   UNL     1       4.117   5.794  17.993  0.00  0.00    +0.000 A 
BRANCH  10  13
ATOM     13  C   UNL     1       1.489   4.610  20.499  0.00  0.00    +0.000 C 
ATOM     14  F   UNL     1       1.871   4.025  21.668  0.00  0.00    +0.000 F 
ATOM     15  F   UNL     1       1.099   5.874  20.827  0.00  0.00    +0.000 F 
ATOM     16  F   UNL     1       0.358   3.959  20.109  0.00  0.00    +0.000 F 
ENDBRANCH  10  13
ENDBRANCH   5   7
BRANCH   4  17
ATOM     17  C   UNL     1       7.199   6.199  17.122  0.00  0.00    +0.000 A 
ATOM     18  C   UNL     1       7.526   7.533  17.107  0.00  0.00    +0.000 A 
ATOM     19  N   UNL     1       8.184   7.715  18.290  0.00  0.00    +0.000 N 
ATOM     20  N   UNL     1       8.269   6.572  18.987  0.00  0.00    +0.000 NA
ATOM     21  N   UNL     1       7.674   5.630  18.275  0.00  0.00    +0.000 NA
BRANCH  19  22
ATOM     22  C   UNL     1       8.707   8.940  18.849  0.00  0.00    +0.000 C 
BRANCH  22  23
ATOM     23  C   UNL     1       8.541  10.124  17.893  0.00  0.00    +0.000 C 
BRANCH  23  24
ATOM     24  N   UNL     1       9.489  11.199  18.196  0.00  0.00    +0.000 NA
ATOM     25  H   UNL     1       9.019  11.957  18.689  0.00  0.00    +0.000 HD
ATOM     26  H   UNL     1       9.829  11.601  17.321  0.00  0.00    +0.000 HD
ENDBRANCH  23  24
ENDBRANCH  22  23
ENDBRANCH  19  22
ENDBRANCH   4  17
TORSDOF 6
ENDMDL
MODEL 6
REMARK VINA RESULT:      -7.3      1.682      4.985
REMARK  Name = 
REMARK  7 active torsions:
REMARK  status: ('A' for Active; 'I' for Inactive)
REMARK    1  A    between atoms: C_1  and  C_2
REMARK    2  A    between atoms: C_4  and  C_5
REMARK    3  A    between atoms: N_7  and  C_8
REMARK    4  A    between atoms: C_8  and  C_9
REMARK    5  A    between atoms: C_9  and  N_10
REMARK    6  A    between atoms: N_13  and  C_14
REMARK    7  A    between atoms: C_17  and  C_18
REMARK                            x       y       z     vdW  Elec       q    Type
REMARK                         _______ _______ _______ _____ _____    ______ ____
ROOT
ATOM      1  C   UNL     1       6.335   3.826  12.937  0.00  0.00    +0.000 C 
ATOM      2  C   UNL     1       6.170   4.364  14.302  0.00  0.00    +0.000 A 
ATOM      3  N   UNL     1       6.913   5.414  14.777  0.00  0.00    +0.000 NA
ATOM      4  C   UNL     1       6.515   5.509  16.033  0.00  0.00    +0.000 A 
ATOM      5  N   UNL     1       5.421   4.682  16.230  0.00  0.00    +0.000 N 
ATOM      6  N   UNL     1       5.300   3.840  15.174  0.00  0.00    +0.000 NA
ENDROOT
BRANCH   5   7
ATOM      7  C   UNL     1       4.453   4.709  17.264  0.00  0.00    +0.000 A 
ATOM      8  C   UNL     1       3.848   5.919  17.637  0.00  0.00    +0.000 A 
ATOM      9  C   UNL     1       2.938   5.952  18.692  0.00  0.00    +0.000 A 
ATOM     10  C   UNL     1       2.615   4.778  19.385  0.00  0.00    +0.000 A 
ATOM     11  C   UNL     1       3.190   3.563  18.974  0.00  0.00    +0.000 A 
ATOM     12  C   UNL     1       4.088   3.522  17.903  0.00  0.00    +0.000 A 
BRANCH  10  13
ATOM     13  C   UNL     1       1.674   4.817  20.564  0.00  0.00    +0.000 C 
ATOM     14  F   UNL     1       1.159   6.053  20.812  0.00  0.00    +0.000 F 
ATOM     15  F   UNL     1       0.599   3.994  20.401  0.00  0.00    +0.000 F 
ATOM     16  F   UNL     1       2.273   4.424  21.722  0.00  0.00    +0.000 F 
ENDBRANCH  10  13
ENDBRANCH   5   7
BRANCH   4  17
ATOM     17  C   UNL     1       7.211   6.277  17.095  0.00  0.00    +0.000 A 
ATOM     18  C   UNL     1       7.539   7.611  17.080  0.00  0.00    +0.000 A 
ATOM     19  N   UNL     1       8.158   7.802  18.282  0.00  0.00    +0.000 N 
ATOM     20  N   UNL     1       8.219   6.665  18.991  0.00  0.00    +0.000 NA
ATOM     21  N   UNL     1       7.647   5.718  18.267  0.00  0.00    +0.000 NA
BRANCH  19  22
ATOM     22  C   UNL     1       8.664   9.032  18.847  0.00  0.00    +0.000 C 
BRANCH  22  23
ATOM     23  C   UNL     1       8.986  10.070  17.769  0.00  0.00    +0.000 C 
BRANCH  23  24
ATOM     24  N   UNL     1       7.998  11.152  17.751  0.00  0.00    +0.000 NA
ATOM     25  H   UNL     1       7.731  11.371  16.792  0.00  0.00    +0.000 HD
ATOM     26  H   UNL     1       8.426  12.001  18.124  0.00  0.00    +0.000 HD
ENDBRANCH  23  24
ENDBRANCH  22  23
ENDBRANCH  19  22
ENDBRANCH   4  17
TORSDOF 6
ENDMDL
MODEL 7
REMARK VINA RESULT:      -7.2      0.737      1.496
REMARK  Name = 
REMARK  7 active torsions:
REMARK  status: ('A' for Active; 'I' for Inactive)
REMARK    1  A    between atoms: C_1  and  C_2
REMARK    2  A    between atoms: C_4  and  C_5
REMARK    3  A    between atoms: N_7  and  C_8
REMARK    4  A    between atoms: C_8  and  C_9
REMARK    5  A    between atoms: C_9  and  N_10
REMARK    6  A    between atoms: N_13  and  C_14
REMARK    7  A    between atoms: C_17  and  C_18
REMARK                            x       y       z     vdW  Elec       q    Type
REMARK                         _______ _______ _______ _____ _____    ______ ____
ROOT
ATOM      1  C   UNL     1       8.267   8.736  18.020  0.00  0.00    +0.000 C 
ATOM      2  C   UNL     1       7.423   7.622  17.544  0.00  0.00    +0.000 A 
ATOM      3  N   UNL     1       7.790   6.810  16.502  0.00  0.00    +0.000 NA
ATOM      4  C   UNL     1       6.738   6.026  16.358  0.00  0.00    +0.000 A 
ATOM      5  N   UNL     1       5.868   6.228  17.417  0.00  0.00    +0.000 N 
ATOM      6  N   UNL     1       6.229   7.351  18.086  0.00  0.00    +0.000 NA
ENDROOT
BRANCH   5   7
ATOM      7  C   UNL     1       4.821   5.397  17.887  0.00  0.00    +0.000 A 
ATOM      8  C   UNL     1       5.111   4.175  18.512  0.00  0.00    +0.000 A 
ATOM      9  C   UNL     1       4.078   3.335  18.923  0.00  0.00    +0.000 A 
ATOM     10  C   UNL     1       2.743   3.703  18.720  0.00  0.00    +0.000 A 
ATOM     11  C   UNL     1       2.460   4.950  18.137  0.00  0.00    +0.000 A 
ATOM     12  C   UNL     1       3.493   5.806  17.741  0.00  0.00    +0.000 A 
BRANCH  10  13
ATOM     13  C   UNL     1       1.621   2.772  19.111  0.00  0.00    +0.000 C 
ATOM     14  F   UNL     1       1.186   1.982  18.090  0.00  0.00    +0.000 F 
ATOM     15  F   UNL     1       1.975   1.920  20.114  0.00  0.00    +0.000 F 
ATOM     16  F   UNL     1       0.521   3.440  19.559  0.00  0.00    +0.000 F 
ENDBRANCH  10  13
ENDBRANCH   5   7
BRANCH   4  17
ATOM     17  C   UNL     1       6.468   5.164  15.180  0.00  0.00    +0.000 A 
ATOM     18  C   UNL     1       5.247   4.709  14.742  0.00  0.00    +0.000 A 
ATOM     19  N   UNL     1       5.560   3.968  13.639  0.00  0.00    +0.000 N 
ATOM     20  N   UNL     1       6.882   3.955  13.412  0.00  0.00    +0.000 NA
ATOM     21  N   UNL     1       7.452   4.681  14.358  0.00  0.00    +0.000 NA
BRANCH  19  22
ATOM     22  C   UNL     1       4.665   3.294  12.726  0.00  0.00    +0.000 C 
BRANCH  22  23
ATOM     23  C   UNL     1       5.386   2.816  11.464  0.00  0.00    +0.000 C 
BRANCH  23  24
ATOM     24  N   UNL     1       6.064   1.536  11.684  0.00  0.00    +0.000 NA
ATOM     25  H   UNL     1       6.556   1.246  10.839  0.00  0.00    +0.000 HD
ATOM     26  H   UNL     1       5.365   0.814  11.863  0.00  0.00    +0.000 HD
ENDBRANCH  23  24
ENDBRANCH  22  23
ENDBRANCH  19  22
ENDBRANCH   4  17
TORSDOF 6
ENDMDL
MODEL 8
REMARK VINA RESULT:      -7.2      4.141      6.525
REMARK  Name = 
REMARK  7 active torsions:
REMARK  status: ('A' for Active; 'I' for Inactive)
REMARK    1  A    between atoms: C_1  and  C_2
REMARK    2  A    between atoms: C_4  and  C_5
REMARK    3  A    between atoms: N_7  and  C_8
REMARK    4  A    between atoms: C_8  and  C_9
REMARK    5  A    between atoms: C_9  and  N_10
REMARK    6  A    between atoms: N_13  and  C_14
REMARK    7  A    between atoms: C_17  and  C_18
REMARK                            x       y       z     vdW  Elec       q    Type
REMARK                         _______ _______ _______ _____ _____    ______ ____
ROOT
ATOM      1  C   UNL     1       8.548   5.573  20.423  0.00  0.00    +0.000 C 
ATOM      2  C   UNL     1       7.535   5.227  19.405  0.00  0.00    +0.000 A 
ATOM      3  N   UNL     1       6.191   5.397  19.614  0.00  0.00    +0.000 NA
ATOM      4  C   UNL     1       5.659   4.894  18.515  0.00  0.00    +0.000 A 
ATOM      5  N   UNL     1       6.664   4.631  17.598  0.00  0.00    +0.000 N 
ATOM      6  N   UNL     1       7.867   4.697  18.221  0.00  0.00    +0.000 NA
ENDROOT
BRANCH   5   7
ATOM      7  C   UNL     1       6.572   4.436  16.198  0.00  0.00    +0.000 A 
ATOM      8  C   UNL     1       5.618   3.556  15.666  0.00  0.00    +0.000 A 
ATOM      9  C   UNL     1       5.566   3.323  14.293  0.00  0.00    +0.000 A 
ATOM     10  C   UNL     1       6.462   3.969  13.432  0.00  0.00    +0.000 A 
ATOM     11  C   UNL     1       7.383   4.886  13.968  0.00  0.00    +0.000 A 
ATOM     12  C   UNL     1       7.426   5.138  15.343  0.00  0.00    +0.000 A 
BRANCH  10  13
ATOM     13  C   UNL     1       6.448   3.679  11.951  0.00  0.00    +0.000 C 
ATOM     14  F   UNL     1       7.080   4.626  11.203  0.00  0.00    +0.000 F 
ATOM     15  F   UNL     1       7.058   2.499  11.645  0.00  0.00    +0.000 F 
ATOM     16  F   UNL     1       5.185   3.589  11.449  0.00  0.00    +0.000 F 
ENDBRANCH  10  13
ENDBRANCH   5   7
BRANCH   4  17
ATOM     17  C   UNL     1       4.228   4.542  18.340  0.00  0.00    +0.000 A 
ATOM     18  C   UNL     1       3.615   3.356  18.668  0.00  0.00    +0.000 A 
ATOM     19  N   UNL     1       2.315   3.558  18.305  0.00  0.00    +0.000 N 
ATOM     20  N   UNL     1       2.132   4.779  17.780  0.00  0.00    +0.000 NA
ATOM     21  N   UNL     1       3.305   5.390  17.789  0.00  0.00    +0.000 NA
BRANCH  19  22
ATOM     22  C   UNL     1       1.186   2.670  18.474  0.00  0.00    +0.000 C 
BRANCH  22  23
ATOM     23  C   UNL     1       0.663   2.674  19.912  0.00  0.00    +0.000 C 
BRANCH  23  24
ATOM     24  N   UNL     1       0.599   4.032  20.459  0.00  0.00    +0.000 NA
ATOM     25  H   UNL     1       0.665   4.007  21.476  0.00  0.00    +0.000 HD
ATOM     26  H   UNL     1      -0.315   4.434  20.247  0.00  0.00    +0.000 HD
ENDBRANCH  23  24
ENDBRANCH  22  23
ENDBRANCH  19  22
ENDBRANCH   4  17
TORSDOF 6
ENDMDL
MODEL 9
REMARK VINA RESULT:      -7.2      1.829      5.235
REMARK  Name = 
REMARK  7 active torsions:
REMARK  status: ('A' for Active; 'I' for Inactive)
REMARK    1  A    between atoms: C_1  and  C_2
REMARK    2  A    between atoms: C_4  and  C_5
REMARK    3  A    between atoms: N_7  and  C_8
REMARK    4  A    between atoms: C_8  and  C_9
REMARK    5  A    between atoms: C_9  and  N_10
REMARK    6  A    between atoms: N_13  and  C_14
REMARK    7  A    between atoms: C_17  and  C_18
REMARK                            x       y       z     vdW  Elec       q    Type
REMARK                         _______ _______ _______ _____ _____    ______ ____
ROOT
ATOM      1  C   UNL     1       6.371   3.786  13.255  0.00  0.00    +0.000 C 
ATOM      2  C   UNL     1       6.230   4.411  14.585  0.00  0.00    +0.000 A 
ATOM      3  N   UNL     1       6.934   5.528  14.954  0.00  0.00    +0.000 NA
ATOM      4  C   UNL     1       6.580   5.693  16.216  0.00  0.00    +0.000 A 
ATOM      5  N   UNL     1       5.540   4.828  16.516  0.00  0.00    +0.000 N 
ATOM      6  N   UNL     1       5.423   3.908  15.527  0.00  0.00    +0.000 NA
ENDROOT
BRANCH   5   7
ATOM      7  C   UNL     1       4.612   4.881  17.586  0.00  0.00    +0.000 A 
ATOM      8  C   UNL     1       4.784   4.063  18.713  0.00  0.00    +0.000 A 
ATOM      9  C   UNL     1       3.840   4.075  19.738  0.00  0.00    +0.000 A 
ATOM     10  C   UNL     1       2.715   4.906  19.655  0.00  0.00    +0.000 A 
ATOM     11  C   UNL     1       2.576   5.757  18.544  0.00  0.00    +0.000 A 
ATOM     12  C   UNL     1       3.531   5.763  17.523  0.00  0.00    +0.000 A 
BRANCH  10  13
ATOM     13  C   UNL     1       1.661   4.882  20.734  0.00  0.00    +0.000 C 
ATOM     14  F   UNL     1       0.496   4.292  20.347  0.00  0.00    +0.000 F 
ATOM     15  F   UNL     1       2.067   4.205  21.845  0.00  0.00    +0.000 F 
ATOM     16  F   UNL     1       1.322   6.131  21.160  0.00  0.00    +0.000 F 
ENDBRANCH  10  13
ENDBRANCH   5   7
BRANCH   4  17
ATOM     17  C   UNL     1       7.275   6.569  17.191  0.00  0.00    +0.000 A 
ATOM     18  C   UNL     1       7.368   7.939  17.163  0.00  0.00    +0.000 A 
ATOM     19  N   UNL     1       8.104   8.233  18.274  0.00  0.00    +0.000 N 
ATOM     20  N   UNL     1       8.452   7.123  18.943  0.00  0.00    +0.000 NA
ATOM     21  N   UNL     1       7.955   6.092  18.282  0.00  0.00    +0.000 NA
BRANCH  19  22
ATOM     22  C   UNL     1       8.468   9.532  18.795  0.00  0.00    +0.000 C 
BRANCH  22  23
ATOM     23  C   UNL     1       9.344  10.317  17.816  0.00  0.00    +0.000 C 
BRANCH  23  24
ATOM     24  N   UNL     1      10.043  11.418  18.484  0.00  0.00    +0.000 NA
ATOM     25  H   UNL     1       9.381  11.994  19.004  0.00  0.00    +0.000 HD
ATOM     26  H   UNL     1      10.453  12.031  17.778  0.00  0.00    +0.000 HD
ENDBRANCH  23  24
ENDBRANCH  22  23
ENDBRANCH  19  22
ENDBRANCH   4  17
TORSDOF 6
ENDMDL
