MODEL 1
REMARK VINA RESULT:      -7.8      0.000      0.000
REMARK  Name = 
REMARK  5 active torsions:
REMARK  status: ('A' for Active; 'I' for Inactive)
REMARK    1  A    between atoms: C_1  and  O_2
REMARK    2  A    between atoms: O_2  and  C_3
REMARK    3  A    between atoms: C_5  and  C_6
REMARK    4  A    between atoms: N_7  and  N_8
REMARK    5  A    between atoms: C_27  and  O_28
REMARK                            x       y       z     vdW  Elec       q    Type
REMARK                         _______ _______ _______ _____ _____    ______ ____
ROOT
ATOM      1  N   UNL     1       1.204   9.122  21.329  0.00  0.00    +0.000 N 
ATOM      2  C   UNL     1       0.678  10.191  20.558  0.00  0.00    +0.000 A 
ATOM      3  N   UNL     1      -0.383   9.996  19.783  0.00  0.00    +0.000 NA
ATOM      4  C   UNL     1      -0.788  11.029  19.060  0.00  0.00    +0.000 A 
ATOM      5  N   UNL     1      -1.871  10.898  18.228  0.00  0.00    +0.000 N 
ATOM      6  C   UNL     1      -2.603   9.657  18.079  0.00  0.00    +0.000 C 
ATOM      7  C   UNL     1      -2.902   9.598  16.584  0.00  0.00    +0.000 C 
ATOM      8  C   UNL     1      -3.009  11.060  16.174  0.00  0.00    +0.000 C 
ATOM      9  C   UNL     1      -2.020  11.784  17.088  0.00  0.00    +0.000 C 
ATOM     10  N   UNL     1      -0.200  12.217  19.113  0.00  0.00    +0.000 NA
ATOM     11  C   UNL     1       0.823  12.358  19.942  0.00  0.00    +0.000 A 
ATOM     12  N   UNL     1       1.416  13.586  20.006  0.00  0.00    +0.000 N 
ATOM     13  C   UNL     1       0.948  14.736  19.261  0.00  0.00    +0.000 C 
ATOM     14  C   UNL     1       2.216  15.574  19.149  0.00  0.00    +0.000 C 
ATOM     15  C   UNL     1       2.915  15.333  20.484  0.00  0.00    +0.000 C 
ATOM     16  C   UNL     1       2.516  13.906  20.888  0.00  0.00    +0.000 C 
ATOM     17  N   UNL     1       1.305  11.362  20.681  0.00  0.00    +0.000 NA
ATOM     18  H   UNL     1       2.131   9.413  21.640  0.00  0.00    +0.000 HD
ENDROOT
BRANCH   1  20
ATOM     19  C   UNL     1       2.012   7.371  20.163  0.00  0.00    +0.000 C 
ATOM     20  N   UNL     1       1.029   7.845  20.869  0.00  0.00    +0.000 NA
BRANCH  19  23
ATOM     21  C   UNL     1       1.495   3.621  19.774  0.00  0.00    +0.000 A 
ATOM     22  C   UNL     1       1.540   4.910  20.332  0.00  0.00    +0.000 A 
ATOM     23  C   UNL     1       1.976   6.010  19.582  0.00  0.00    +0.000 A 
ATOM     24  C   UNL     1       2.377   5.828  18.257  0.00  0.00    +0.000 A 
ATOM     25  C   UNL     1       2.338   4.549  17.690  0.00  0.00    +0.000 A 
ATOM     26  C   UNL     1       1.898   3.450  18.443  0.00  0.00    +0.000 A 
BRANCH  21  28
ATOM     27  C   UNL     1       1.721   2.498  21.879  0.00  0.00    +0.000 C 
ATOM     28  O   UNL     1       1.036   2.670  20.645  0.00  0.00    +0.000 OA
ENDBRANCH  21  28
BRANCH  26  29
ATOM     29  O   UNL     1       1.885   2.225  17.840  0.00  0.00    +0.000 OA
ATOM     30  H   UNL     1       1.113   1.720  18.140  0.00  0.00    +0.000 HD
ENDBRANCH  26  29
ENDBRANCH  19  23
ENDBRANCH   1  20
TORSDOF 4
ENDMDL
MODEL 2
REMARK VINA RESULT:      -7.8      0.713      1.677
REMARK  Name = 
REMARK  5 active torsions:
REMARK  status: ('A' for Active; 'I' for Inactive)
REMARK    1  A    between atoms: C_1  and  O_2
REMARK    2  A    between atoms: O_2  and  C_3
REMARK    3  A    between atoms: C_5  and  C_6
REMARK    4  A    between atoms: N_7  and  N_8
REMARK    5  A    between atoms: C_27  and  O_28
REMARK                            x       y       z     vdW  Elec       q    Type
REMARK                         _______ _______ _______ _____ _____    ______ ____
ROOT
ATOM      1  N   UNL     1       1.099   9.004  21.270  0.00  0.00    +0.000 N 
ATOM      2  C   UNL     1       0.612  10.089  20.494  0.00  0.00    +0.000 A 
ATOM      3  N   UNL     1      -0.446   9.923  19.707  0.00  0.00    +0.000 NA
ATOM      4  C   UNL     1      -0.813  10.967  18.980  0.00  0.00    +0.000 A 
ATOM      5  N   UNL     1      -1.890  10.867  18.136  0.00  0.00    +0.000 N 
ATOM      6  C   UNL     1      -2.654   9.647  17.977  0.00  0.00    +0.000 C 
ATOM      7  C   UNL     1      -2.937   9.597  16.479  0.00  0.00    +0.000 C 
ATOM      8  C   UNL     1      -2.998  11.062  16.069  0.00  0.00    +0.000 C 
ATOM      9  C   UNL     1      -2.000  11.758  16.995  0.00  0.00    +0.000 C 
ATOM     10  N   UNL     1      -0.193  12.139  19.041  0.00  0.00    +0.000 NA
ATOM     11  C   UNL     1       0.825  12.251  19.883  0.00  0.00    +0.000 A 
ATOM     12  N   UNL     1       1.450  13.462  19.954  0.00  0.00    +0.000 N 
ATOM     13  C   UNL     1       1.023  14.625  19.205  0.00  0.00    +0.000 C 
ATOM     14  C   UNL     1       2.315  15.427  19.108  0.00  0.00    +0.000 C 
ATOM     15  C   UNL     1       2.992  15.167  20.451  0.00  0.00    +0.000 C 
ATOM     16  C   UNL     1       2.549  13.751  20.849  0.00  0.00    +0.000 C 
ATOM     17  N   UNL     1       1.270  11.242  20.625  0.00  0.00    +0.000 NA
ATOM     18  H   UNL     1       2.030   9.269  21.592  0.00  0.00    +0.000 HD
ENDROOT
BRANCH   1  20
ATOM     19  C   UNL     1       1.968   7.093  20.454  0.00  0.00    +0.000 C 
ATOM     20  N   UNL     1       0.894   7.733  20.807  0.00  0.00    +0.000 NA
BRANCH  19  23
ATOM     21  C   UNL     1       2.479   4.071  18.197  0.00  0.00    +0.000 A 
ATOM     22  C   UNL     1       2.516   5.385  18.696  0.00  0.00    +0.000 A 
ATOM     23  C   UNL     1       1.919   5.713  19.920  0.00  0.00    +0.000 A 
ATOM     24  C   UNL     1       1.272   4.722  20.661  0.00  0.00    +0.000 A 
ATOM     25  C   UNL     1       1.227   3.410  20.176  0.00  0.00    +0.000 A 
ATOM     26  C   UNL     1       1.828   3.085  18.950  0.00  0.00    +0.000 A 
BRANCH  21  28
ATOM     27  C   UNL     1       4.528   3.746  16.998  0.00  0.00    +0.000 C 
ATOM     28  O   UNL     1       3.118   3.930  16.995  0.00  0.00    +0.000 OA
ENDBRANCH  21  28
BRANCH  26  29
ATOM     29  O   UNL     1       1.749   1.790  18.523  0.00  0.00    +0.000 OA
ATOM     30  H   UNL     1       2.637   1.398  18.499  0.00  0.00    +0.000 HD
ENDBRANCH  26  29
ENDBRANCH  19  23
ENDBRANCH   1  20
TORSDOF 4
ENDMDL
MODEL 3
REMARK VINA RESULT:      -7.7      2.817      4.992
REMARK  Name = 
REMARK  5 active torsions:
REMARK  status: ('A' for Active; 'I' for Inactive)
REMARK    1  A    between atoms: C_1  and  O_2
REMARK    2  A    between atoms: O_2  and  C_3
REMARK    3  A    between atoms: C_5  and  C_6
REMARK    4  A    between atoms: N_7  and  N_8
REMARK    5  A    between atoms: C_27  and  O_28
REMARK                            x       y       z     vdW  Elec       q    Type
REMARK                         _______ _______ _______ _____ _____    ______ ____
ROOT
ATOM      1  N   UNL     1       1.937   8.661  17.325  0.00  0.00    +0.000 N 
ATOM      2  C   UNL     1       0.926   9.311  18.082  0.00  0.00    +0.000 A 
ATOM      3  N   UNL     1       1.077   9.477  19.392  0.00  0.00    +0.000 NA
ATOM      4  C   UNL     1       0.072  10.051  20.036  0.00  0.00    +0.000 A 
ATOM      5  N   UNL     1       0.153  10.245  21.392  0.00  0.00    +0.000 N 
ATOM      6  C   UNL     1       1.295   9.830  22.180  0.00  0.00    +0.000 C 
ATOM      7  C   UNL     1       0.666   9.282  23.457  0.00  0.00    +0.000 C 
ATOM      8  C   UNL     1      -0.613  10.093  23.613  0.00  0.00    +0.000 C 
ATOM      9  C   UNL     1      -1.061  10.374  22.178  0.00  0.00    +0.000 C 
ATOM     10  N   UNL     1      -1.025  10.475  19.424  0.00  0.00    +0.000 NA
ATOM     11  C   UNL     1      -1.092  10.323  18.109  0.00  0.00    +0.000 A 
ATOM     12  N   UNL     1      -2.215  10.775  17.480  0.00  0.00    +0.000 N 
ATOM     13  C   UNL     1      -3.295  11.452  18.167  0.00  0.00    +0.000 C 
ATOM     14  C   UNL     1      -4.480  11.159  17.254  0.00  0.00    +0.000 C 
ATOM     15  C   UNL     1      -3.864  11.196  15.858  0.00  0.00    +0.000 C 
ATOM     16  C   UNL     1      -2.418  10.714  16.050  0.00  0.00    +0.000 C 
ATOM     17  N   UNL     1      -0.137   9.733  17.396  0.00  0.00    +0.000 NA
ATOM     18  H   UNL     1       1.521   8.424  16.425  0.00  0.00    +0.000 HD
ENDROOT
BRANCH   1  20
ATOM     19  C   UNL     1       2.428   6.497  17.713  0.00  0.00    +0.000 C 
ATOM     20  N   UNL     1       2.725   7.739  17.956  0.00  0.00    +0.000 NA
BRANCH  19  23
ATOM     21  C   UNL     1       5.282   4.338  19.008  0.00  0.00    +0.000 A 
ATOM     22  C   UNL     1       4.575   5.398  18.415  0.00  0.00    +0.000 A 
ATOM     23  C   UNL     1       3.176   5.377  18.326  0.00  0.00    +0.000 A 
ATOM     24  C   UNL     1       2.468   4.285  18.832  0.00  0.00    +0.000 A 
ATOM     25  C   UNL     1       3.160   3.223  19.425  0.00  0.00    +0.000 A 
ATOM     26  C   UNL     1       4.560   3.249  19.513  0.00  0.00    +0.000 A 
BRANCH  21  28
ATOM     27  C   UNL     1       7.299   4.720  17.772  0.00  0.00    +0.000 C 
ATOM     28  O   UNL     1       6.637   4.529  19.016  0.00  0.00    +0.000 OA
ENDBRANCH  21  28
BRANCH  26  29
ATOM     29  O   UNL     1       5.184   2.183  20.097  0.00  0.00    +0.000 OA
ATOM     30  H   UNL     1       4.673   1.375  19.936  0.00  0.00    +0.000 HD
ENDBRANCH  26  29
ENDBRANCH  19  23
ENDBRANCH   1  20
TORSDOF 4
ENDMDL
MODEL 4
REMARK VINA RESULT:      -7.7      2.590      4.583
REMARK  Name = 
REMARK  5 active torsions:
REMARK  status: ('A' for Active; 'I' for Inactive)
REMARK    1  A    between atoms: C_1  and  O_2
REMARK    2  A    between atoms: O_2  and  C_3
REMARK    3  A    between atoms: C_5  and  C_6
REMARK    4  A    between atoms: N_7  and  N_8
REMARK    5  A    between atoms: C_27  and  O_28
REMARK                            x       y       z     vdW  Elec       q    Type
REMARK                         _______ _______ _______ _____ _____    ______ ____
ROOT
ATOM      1  N   UNL     1       1.844   8.496  17.389  0.00  0.00    +0.000 N 
ATOM      2  C   UNL     1       0.839   9.214  18.089  0.00  0.00    +0.000 A 
ATOM      3  N   UNL     1       0.961   9.433  19.394  0.00  0.00    +0.000 NA
ATOM      4  C   UNL     1      -0.039  10.070  19.984  0.00  0.00    +0.000 A 
ATOM      5  N   UNL     1       0.013  10.321  21.332  0.00  0.00    +0.000 N 
ATOM      6  C   UNL     1       1.117   9.902  22.169  0.00  0.00    +0.000 C 
ATOM      7  C   UNL     1       0.435   9.434  23.450  0.00  0.00    +0.000 C 
ATOM      8  C   UNL     1      -0.817  10.296  23.534  0.00  0.00    +0.000 C 
ATOM      9  C   UNL     1      -1.216  10.529  22.077  0.00  0.00    +0.000 C 
ATOM     10  N   UNL     1      -1.103  10.506  19.323  0.00  0.00    +0.000 NA
ATOM     11  C   UNL     1      -1.140  10.298  18.014  0.00  0.00    +0.000 A 
ATOM     12  N   UNL     1      -2.229  10.761  17.335  0.00  0.00    +0.000 N 
ATOM     13  C   UNL     1      -3.301  11.506  17.961  0.00  0.00    +0.000 C 
ATOM     14  C   UNL     1      -4.471  11.214  17.028  0.00  0.00    +0.000 C 
ATOM     15  C   UNL     1      -3.818  11.168  15.650  0.00  0.00    +0.000 C 
ATOM     16  C   UNL     1      -2.396  10.644  15.903  0.00  0.00    +0.000 C 
ATOM     17  N   UNL     1      -0.189   9.643  17.355  0.00  0.00    +0.000 NA
ATOM     18  H   UNL     1       1.445   8.234  16.489  0.00  0.00    +0.000 HD
ENDROOT
BRANCH   1  20
ATOM     19  C   UNL     1       2.379   6.337  17.744  0.00  0.00    +0.000 C 
ATOM     20  N   UNL     1       2.582   7.575  18.082  0.00  0.00    +0.000 NA
BRANCH  19  23
ATOM     21  C   UNL     1       3.064   3.168  19.737  0.00  0.00    +0.000 A 
ATOM     22  C   UNL     1       2.390   4.237  19.121  0.00  0.00    +0.000 A 
ATOM     23  C   UNL     1       3.088   5.217  18.404  0.00  0.00    +0.000 A 
ATOM     24  C   UNL     1       4.478   5.137  18.297  0.00  0.00    +0.000 A 
ATOM     25  C   UNL     1       5.161   4.078  18.905  0.00  0.00    +0.000 A 
ATOM     26  C   UNL     1       4.459   3.098  19.622  0.00  0.00    +0.000 A 
BRANCH  21  28
ATOM     27  C   UNL     1       1.571   2.752  21.565  0.00  0.00    +0.000 C 
ATOM     28  O   UNL     1       2.227   2.302  20.386  0.00  0.00    +0.000 OA
ENDBRANCH  21  28
BRANCH  26  29
ATOM     29  O   UNL     1       5.177   2.090  20.199  0.00  0.00    +0.000 OA
ATOM     30  H   UNL     1       4.680   1.718  20.944  0.00  0.00    +0.000 HD
ENDBRANCH  26  29
ENDBRANCH  19  23
ENDBRANCH   1  20
TORSDOF 4
ENDMDL
MODEL 5
REMARK VINA RESULT:      -7.6      4.218      8.769
REMARK  Name = 
REMARK  5 active torsions:
REMARK  status: ('A' for Active; 'I' for Inactive)
REMARK    1  A    between atoms: C_1  and  O_2
REMARK    2  A    between atoms: O_2  and  C_3
REMARK    3  A    between atoms: C_5  and  C_6
REMARK    4  A    between atoms: N_7  and  N_8
REMARK    5  A    between atoms: C_27  and  O_28
REMARK                            x       y       z     vdW  Elec       q    Type
REMARK                         _______ _______ _______ _____ _____    ______ ____
ROOT
ATOM      1  N   UNL     1       2.310   8.379  18.034  0.00  0.00    +0.000 N 
ATOM      2  C   UNL     1       2.775   7.038  18.020  0.00  0.00    +0.000 A 
ATOM      3  N   UNL     1       2.245   6.140  18.844  0.00  0.00    +0.000 NA
ATOM      4  C   UNL     1       2.762   4.921  18.805  0.00  0.00    +0.000 A 
ATOM      5  N   UNL     1       2.273   3.945  19.635  0.00  0.00    +0.000 N 
ATOM      6  C   UNL     1       1.210   4.183  20.589  0.00  0.00    +0.000 C 
ATOM      7  C   UNL     1       1.651   3.394  21.818  0.00  0.00    +0.000 C 
ATOM      8  C   UNL     1       2.448   2.233  21.241  0.00  0.00    +0.000 C 
ATOM      9  C   UNL     1       3.107   2.810  19.987  0.00  0.00    +0.000 C 
ATOM     10  N   UNL     1       3.737   4.581  17.972  0.00  0.00    +0.000 NA
ATOM     11  C   UNL     1       4.187   5.511  17.142  0.00  0.00    +0.000 A 
ATOM     12  N   UNL     1       5.180   5.154  16.276  0.00  0.00    +0.000 N 
ATOM     13  C   UNL     1       5.714   3.811  16.187  0.00  0.00    +0.000 C 
ATOM     14  C   UNL     1       7.112   4.066  15.636  0.00  0.00    +0.000 C 
ATOM     15  C   UNL     1       6.905   5.237  14.680  0.00  0.00    +0.000 C 
ATOM     16  C   UNL     1       5.747   6.044  15.288  0.00  0.00    +0.000 C 
ATOM     17  N   UNL     1       3.739   6.763  17.140  0.00  0.00    +0.000 NA
ATOM     18  H   UNL     1       2.998   8.933  17.524  0.00  0.00    +0.000 HD
ENDROOT
BRANCH   1  20
ATOM     19  C   UNL     1       0.744   9.629  19.064  0.00  0.00    +0.000 C 
ATOM     20  N   UNL     1       1.792   8.873  19.200  0.00  0.00    +0.000 NA
BRANCH  19  23
ATOM     21  C   UNL     1      -1.403  11.957  21.174  0.00  0.00    +0.000 A 
ATOM     22  C   UNL     1      -0.755  11.374  20.072  0.00  0.00    +0.000 A 
ATOM     23  C   UNL     1       0.070  10.252  20.225  0.00  0.00    +0.000 A 
ATOM     24  C   UNL     1       0.256   9.699  21.494  0.00  0.00    +0.000 A 
ATOM     25  C   UNL     1      -0.384  10.270  22.600  0.00  0.00    +0.000 A 
ATOM     26  C   UNL     1      -1.210  11.393  22.442  0.00  0.00    +0.000 A 
BRANCH  21  28
ATOM     27  C   UNL     1      -3.546  12.820  20.538  0.00  0.00    +0.000 C 
ATOM     28  O   UNL     1      -2.174  13.037  20.840  0.00  0.00    +0.000 OA
ENDBRANCH  21  28
BRANCH  26  29
ATOM     29  O   UNL     1      -1.806  11.911  23.556  0.00  0.00    +0.000 OA
ATOM     30  H   UNL     1      -1.320  11.630  24.348  0.00  0.00    +0.000 HD
ENDBRANCH  26  29
ENDBRANCH  19  23
ENDBRANCH   1  20
TORSDOF 4
ENDMDL
MODEL 6
REMARK VINA RESULT:      -7.4      7.433      8.649
REMARK  Name = 
REMARK  5 active torsions:
REMARK  status: ('A' for Active; 'I' for Inactive)
REMARK    1  A    between atoms: C_1  and  O_2
REMARK    2  A    between atoms: O_2  and  C_3
REMARK    3  A    between atoms: C_5  and  C_6
REMARK    4  A    between atoms: N_7  and  N_8
REMARK    5  A    between atoms: C_27  and  O_28
REMARK                            x       y       z     vdW  Elec       q    Type
REMARK                         _______ _______ _______ _____ _____    ______ ____
ROOT
ATOM      1  N   UNL     1       9.556  10.823  18.613  0.00  0.00    +0.000 N 
ATOM      2  C   UNL     1       9.304  11.938  19.456  0.00  0.00    +0.000 A 
ATOM      3  N   UNL     1       8.985  11.751  20.732  0.00  0.00    +0.000 NA
ATOM      4  C   UNL     1       8.721  12.837  21.442  0.00  0.00    +0.000 A 
ATOM      5  N   UNL     1       8.373  12.720  22.764  0.00  0.00    +0.000 N 
ATOM      6  C   UNL     1       8.256  11.444  23.437  0.00  0.00    +0.000 C 
ATOM      7  C   UNL     1       7.023  11.618  24.319  0.00  0.00    +0.000 C 
ATOM      8  C   UNL     1       7.016  13.104  24.649  0.00  0.00    +0.000 C 
ATOM      9  C   UNL     1       7.604  13.771  23.405  0.00  0.00    +0.000 C 
ATOM     10  N   UNL     1       8.796  14.061  20.937  0.00  0.00    +0.000 NA
ATOM     11  C   UNL     1       9.168  14.181  19.671  0.00  0.00    +0.000 A 
ATOM     12  N   UNL     1       9.259  15.443  19.159  0.00  0.00    +0.000 N 
ATOM     13  C   UNL     1       9.026  16.638  19.941  0.00  0.00    +0.000 C 
ATOM     14  C   UNL     1       8.611  17.638  18.868  0.00  0.00    +0.000 C 
ATOM     15  C   UNL     1       9.479  17.253  17.674  0.00  0.00    +0.000 C 
ATOM     16  C   UNL     1       9.687  15.736  17.809  0.00  0.00    +0.000 C 
ATOM     17  N   UNL     1       9.423  13.138  18.886  0.00  0.00    +0.000 NA
ATOM     18  H   UNL     1       9.534  11.170  17.655  0.00  0.00    +0.000 HD
ENDROOT
BRANCH   1  20
ATOM     19  C   UNL     1       8.524   8.961  17.876  0.00  0.00    +0.000 C 
ATOM     20  N   UNL     1       8.936   9.639  18.905  0.00  0.00    +0.000 NA
BRANCH  19  23
ATOM     21  C   UNL     1       6.123   6.068  17.288  0.00  0.00    +0.000 A 
ATOM     22  C   UNL     1       6.778   7.304  17.158  0.00  0.00    +0.000 A 
ATOM     23  C   UNL     1       7.824   7.665  18.019  0.00  0.00    +0.000 A 
ATOM     24  C   UNL     1       8.224   6.785  19.026  0.00  0.00    +0.000 A 
ATOM     25  C   UNL     1       7.579   5.551  19.167  0.00  0.00    +0.000 A 
ATOM     26  C   UNL     1       6.534   5.193  18.302  0.00  0.00    +0.000 A 
BRANCH  21  28
ATOM     27  C   UNL     1       5.460   5.193  15.158  0.00  0.00    +0.000 C 
ATOM     28  O   UNL     1       5.135   5.878  16.361  0.00  0.00    +0.000 OA
ENDBRANCH  21  28
BRANCH  26  29
ATOM     29  O   UNL     1       5.938   3.978  18.488  0.00  0.00    +0.000 OA
ATOM     30  H   UNL     1       6.587   3.270  18.353  0.00  0.00    +0.000 HD
ENDBRANCH  26  29
ENDBRANCH  19  23
ENDBRANCH   1  20
TORSDOF 4
ENDMDL
MODEL 7
REMARK VINA RESULT:      -7.4      4.043      8.468
REMARK  Name = 
REMARK  5 active torsions:
REMARK  status: ('A' for Active; 'I' for Inactive)
REMARK    1  A    between atoms: C_1  and  O_2
REMARK    2  A    between atoms: O_2  and  C_3
REMARK    3  A    between atoms: C_5  and  C_6
REMARK    4  A    between atoms: N_7  and  N_8
REMARK    5  A    between atoms: C_27  and  O_28
REMARK                            x       y       z     vdW  Elec       q    Type
REMARK                         _______ _______ _______ _____ _____    ______ ____
ROOT
ATOM      1  N   UNL     1       2.120   8.390  17.766  0.00  0.00    +0.000 N 
ATOM      2  C   UNL     1       2.661   7.081  17.860  0.00  0.00    +0.000 A 
ATOM      3  N   UNL     1       2.136   6.201  18.705  0.00  0.00    +0.000 NA
ATOM      4  C   UNL     1       2.724   5.016  18.769  0.00  0.00    +0.000 A 
ATOM      5  N   UNL     1       2.242   4.060  19.627  0.00  0.00    +0.000 N 
ATOM      6  C   UNL     1       1.112   4.286  20.503  0.00  0.00    +0.000 C 
ATOM      7  C   UNL     1       1.522   3.597  21.800  0.00  0.00    +0.000 C 
ATOM      8  C   UNL     1       2.419   2.456  21.340  0.00  0.00    +0.000 C 
ATOM      9  C   UNL     1       3.117   3.000  20.094  0.00  0.00    +0.000 C 
ATOM     10  N   UNL     1       3.765   4.690  18.015  0.00  0.00    +0.000 NA
ATOM     11  C   UNL     1       4.211   5.597  17.158  0.00  0.00    +0.000 A 
ATOM     12  N   UNL     1       5.273   5.253  16.373  0.00  0.00    +0.000 N 
ATOM     13  C   UNL     1       5.888   3.942  16.396  0.00  0.00    +0.000 C 
ATOM     14  C   UNL     1       7.300   4.251  15.912  0.00  0.00    +0.000 C 
ATOM     15  C   UNL     1       7.083   5.351  14.876  0.00  0.00    +0.000 C 
ATOM     16  C   UNL     1       5.846   6.118  15.367  0.00  0.00    +0.000 C 
ATOM     17  N   UNL     1       3.691   6.817  17.055  0.00  0.00    +0.000 NA
ATOM     18  H   UNL     1       2.804   8.955  17.265  0.00  0.00    +0.000 HD
ENDROOT
BRANCH   1  20
ATOM     19  C   UNL     1       0.660   9.874  18.628  0.00  0.00    +0.000 C 
ATOM     20  N   UNL     1       1.504   8.916  18.869  0.00  0.00    +0.000 NA
BRANCH  19  23
ATOM     21  C   UNL     1      -0.531  10.925  22.086  0.00  0.00    +0.000 A 
ATOM     22  C   UNL     1       0.165  10.265  21.059  0.00  0.00    +0.000 A 
ATOM     23  C   UNL     1      -0.081  10.558  19.711  0.00  0.00    +0.000 A 
ATOM     24  C   UNL     1      -1.036  11.520  19.377  0.00  0.00    +0.000 A 
ATOM     25  C   UNL     1      -1.737  12.184  20.390  0.00  0.00    +0.000 A 
ATOM     26  C   UNL     1      -1.486  11.889  21.739  0.00  0.00    +0.000 A 
BRANCH  21  28
ATOM     27  C   UNL     1       0.384   9.215  23.495  0.00  0.00    +0.000 C 
ATOM     28  O   UNL     1      -0.158  10.521  23.339  0.00  0.00    +0.000 OA
ENDBRANCH  21  28
BRANCH  26  29
ATOM     29  O   UNL     1      -2.202  12.564  22.685  0.00  0.00    +0.000 OA
ATOM     30  H   UNL     1      -2.453  13.438  22.346  0.00  0.00    +0.000 HD
ENDBRANCH  26  29
ENDBRANCH  19  23
ENDBRANCH   1  20
TORSDOF 4
ENDMDL
MODEL 8
REMARK VINA RESULT:      -7.4      7.480     11.053
REMARK  Name = 
REMARK  5 active torsions:
REMARK  status: ('A' for Active; 'I' for Inactive)
REMARK    1  A    between atoms: C_1  and  O_2
REMARK    2  A    between atoms: O_2  and  C_3
REMARK    3  A    between atoms: C_5  and  C_6
REMARK    4  A    between atoms: N_7  and  N_8
REMARK    5  A    between atoms: C_27  and  O_28
REMARK                            x       y       z     vdW  Elec       q    Type
REMARK                         _______ _______ _______ _____ _____    ______ ____
ROOT
ATOM      1  N   UNL     1       7.688   7.157  18.547  0.00  0.00    +0.000 N 
ATOM      2  C   UNL     1       7.124   6.135  17.740  0.00  0.00    +0.000 A 
ATOM      3  N   UNL     1       7.553   5.955  16.495  0.00  0.00    +0.000 NA
ATOM      4  C   UNL     1       6.947   5.012  15.790  0.00  0.00    +0.000 A 
ATOM      5  N   UNL     1       7.330   4.777  14.493  0.00  0.00    +0.000 N 
ATOM      6  C   UNL     1       8.370   5.535  13.830  0.00  0.00    +0.000 C 
ATOM      7  C   UNL     1       7.825   5.731  12.419  0.00  0.00    +0.000 C 
ATOM      8  C   UNL     1       6.965   4.497  12.185  0.00  0.00    +0.000 C 
ATOM      9  C   UNL     1       6.400   4.160  13.565  0.00  0.00    +0.000 C 
ATOM     10  N   UNL     1       5.982   4.251  16.288  0.00  0.00    +0.000 NA
ATOM     11  C   UNL     1       5.635   4.449  17.551  0.00  0.00    +0.000 A 
ATOM     12  N   UNL     1       4.652   3.653  18.065  0.00  0.00    +0.000 N 
ATOM     13  C   UNL     1       4.022   2.584  17.320  0.00  0.00    +0.000 C 
ATOM     14  C   UNL     1       2.669   2.474  18.013  0.00  0.00    +0.000 C 
ATOM     15  C   UNL     1       3.000   2.754  19.476  0.00  0.00    +0.000 C 
ATOM     16  C   UNL     1       4.191   3.723  19.434  0.00  0.00    +0.000 C 
ATOM     17  N   UNL     1       6.176   5.393  18.315  0.00  0.00    +0.000 NA
ATOM     18  H   UNL     1       7.063   7.279  19.344  0.00  0.00    +0.000 HD
ENDROOT
BRANCH   1  20
ATOM     19  C   UNL     1       8.509   9.249  18.716  0.00  0.00    +0.000 C 
ATOM     20  N   UNL     1       8.197   8.265  17.926  0.00  0.00    +0.000 NA
BRANCH  19  23
ATOM     21  C   UNL     1       8.751  12.812  17.404  0.00  0.00    +0.000 A 
ATOM     22  C   UNL     1       8.224  11.599  17.879  0.00  0.00    +0.000 A 
ATOM     23  C   UNL     1       9.060  10.523  18.204  0.00  0.00    +0.000 A 
ATOM     24  C   UNL     1      10.442  10.651  18.052  0.00  0.00    +0.000 A 
ATOM     25  C   UNL     1      10.980  11.854  17.579  0.00  0.00    +0.000 A 
ATOM     26  C   UNL     1      10.139  12.930  17.257  0.00  0.00    +0.000 A 
BRANCH  21  28
ATOM     27  C   UNL     1       7.328  14.558  18.224  0.00  0.00    +0.000 C 
ATOM     28  O   UNL     1       7.793  13.755  17.146  0.00  0.00    +0.000 OA
ENDBRANCH  21  28
BRANCH  26  29
ATOM     29  O   UNL     1      10.718  14.078  16.796  0.00  0.00    +0.000 OA
ATOM     30  H   UNL     1      10.160  14.840  17.021  0.00  0.00    +0.000 HD
ENDBRANCH  26  29
ENDBRANCH  19  23
ENDBRANCH   1  20
TORSDOF 4
ENDMDL
MODEL 9
REMARK VINA RESULT:      -7.3      2.339      2.655
REMARK  Name = 
REMARK  5 active torsions:
REMARK  status: ('A' for Active; 'I' for Inactive)
REMARK    1  A    between atoms: C_1  and  O_2
REMARK    2  A    between atoms: O_2  and  C_3
REMARK    3  A    between atoms: C_5  and  C_6
REMARK    4  A    between atoms: N_7  and  N_8
REMARK    5  A    between atoms: C_27  and  O_28
REMARK                            x       y       z     vdW  Elec       q    Type
REMARK                         _______ _______ _______ _____ _____    ______ ____
ROOT
ATOM      1  N   UNL     1       1.091   9.211  20.388  0.00  0.00    +0.000 N 
ATOM      2  C   UNL     1      -0.002  10.062  20.077  0.00  0.00    +0.000 A 
ATOM      3  N   UNL     1      -0.767   9.807  19.021  0.00  0.00    +0.000 NA
ATOM      4  C   UNL     1      -1.738  10.671  18.771  0.00  0.00    +0.000 A 
ATOM      5  N   UNL     1      -2.562  10.478  17.690  0.00  0.00    +0.000 N 
ATOM      6  C   UNL     1      -2.412   9.366  16.775  0.00  0.00    +0.000 C 
ATOM      7  C   UNL     1      -2.678   9.990  15.409  0.00  0.00    +0.000 C 
ATOM      8  C   UNL     1      -3.655  11.120  15.707  0.00  0.00    +0.000 C 
ATOM      9  C   UNL     1      -3.258  11.607  17.100  0.00  0.00    +0.000 C 
ATOM     10  N   UNL     1      -1.976  11.727  19.537  0.00  0.00    +0.000 NA
ATOM     11  C   UNL     1      -1.207  11.897  20.603  0.00  0.00    +0.000 A 
ATOM     12  N   UNL     1      -1.464  12.976  21.398  0.00  0.00    +0.000 N 
ATOM     13  C   UNL     1      -2.557  13.896  21.164  0.00  0.00    +0.000 C 
ATOM     14  C   UNL     1      -2.047  15.166  21.836  0.00  0.00    +0.000 C 
ATOM     15  C   UNL     1      -1.289  14.640  23.051  0.00  0.00    +0.000 C 
ATOM     16  C   UNL     1      -0.738  13.274  22.612  0.00  0.00    +0.000 C 
ATOM     17  N   UNL     1      -0.195  11.089  20.906  0.00  0.00    +0.000 NA
ATOM     18  H   UNL     1       1.672   9.712  21.059  0.00  0.00    +0.000 HD
ENDROOT
BRANCH   1  20
ATOM     19  C   UNL     1       2.173   7.367  19.677  0.00  0.00    +0.000 C 
ATOM     20  N   UNL     1       1.695   8.534  19.364  0.00  0.00    +0.000 NA
BRANCH  19  23
ATOM     21  C   UNL     1       3.178   4.354  17.581  0.00  0.00    +0.000 A 
ATOM     22  C   UNL     1       2.526   5.161  18.528  0.00  0.00    +0.000 A 
ATOM     23  C   UNL     1       2.867   6.511  18.689  0.00  0.00    +0.000 A 
ATOM     24  C   UNL     1       3.873   7.068  17.898  0.00  0.00    +0.000 A 
ATOM     25  C   UNL     1       4.531   6.275  16.951  0.00  0.00    +0.000 A 
ATOM     26  C   UNL     1       4.185   4.925  16.792  0.00  0.00    +0.000 A 
BRANCH  21  28
ATOM     27  C   UNL     1       3.415   2.080  18.298  0.00  0.00    +0.000 C 
ATOM     28  O   UNL     1       2.713   3.067  17.554  0.00  0.00    +0.000 OA
ENDBRANCH  21  28
BRANCH  26  29
ATOM     29  O   UNL     1       4.863   4.196  15.856  0.00  0.00    +0.000 OA
ATOM     30  H   UNL     1       4.495   3.300  15.809  0.00  0.00    +0.000 HD
ENDBRANCH  26  29
ENDBRANCH  19  23
ENDBRANCH   1  20
TORSDOF 4
ENDMDL
