MODEL 1
REMARK VINA RESULT:      -7.9      0.000      0.000
REMARK  Name = 
REMARK  5 active torsions:
REMARK  status: ('A' for Active; 'I' for Inactive)
REMARK    1  A    between atoms: C_1  and  C_2
REMARK    2  A    between atoms: C_4  and  O_5
REMARK    3  A    between atoms: C_7  and  C_8
REMARK    4  A    between atoms: C_8  and  N_9
REMARK    5  A    between atoms: C_12  and  C_13
REMARK                            x       y       z     vdW  Elec       q    Type
REMARK                         _______ _______ _______ _____ _____    ______ ____
ROOT
ATOM      1  N   UNL     1       4.419   4.924  16.473  0.00  0.00    +0.000 NA
ATOM      2  C   UNL     1       3.877   3.565  16.569  0.00  0.00    +0.000 C 
ATOM      3  C   UNL     1       2.357   3.557  16.735  0.00  0.00    +0.000 C 
ATOM      4  C   UNL     1       1.896   4.382  17.949  0.00  0.00    +0.000 C 
ATOM      5  C   UNL     1       2.484   5.797  17.804  0.00  0.00    +0.000 C 
ATOM      6  C   UNL     1       3.998   5.805  17.557  0.00  0.00    +0.000 C 
ENDROOT
BRANCH   4   7
ATOM      7  C   UNL     1       2.115   3.679  19.291  0.00  0.00    +0.000 A 
ATOM      8  C   UNL     1       3.350   3.152  19.694  0.00  0.00    +0.000 A 
ATOM      9  C   UNL     1       3.520   2.570  20.954  0.00  0.00    +0.000 A 
ATOM     10  C   UNL     1       2.458   2.514  21.846  0.00  0.00    +0.000 A 
ATOM     11  C   UNL     1       1.222   3.035  21.475  0.00  0.00    +0.000 A 
ATOM     12  C   UNL     1       1.054   3.614  20.214  0.00  0.00    +0.000 A 
ENDBRANCH   4   7
BRANCH   1  13
ATOM     13  C   UNL     1       5.887   4.924  16.267  0.00  0.00    +0.000 C 
BRANCH  13  19
ATOM     14  C   UNL     1       8.179   9.038  17.652  0.00  0.00    +0.000 C 
ATOM     15  C   UNL     1       7.813   7.614  17.942  0.00  0.00    +0.000 A 
ATOM     16  N   UNL     1       8.269   7.081  19.083  0.00  0.00    +0.000 NA
ATOM     17  C   UNL     1       7.939   5.804  19.277  0.00  0.00    +0.000 A 
ATOM     18  C   UNL     1       7.196   5.031  18.428  0.00  0.00    +0.000 A 
ATOM     19  C   UNL     1       6.763   5.661  17.278  0.00  0.00    +0.000 A 
ATOM     20  N   UNL     1       7.069   6.958  17.021  0.00  0.00    +0.000 NA
BRANCH  17  21
ATOM     21  O   UNL     1       8.405   5.289  20.442  0.00  0.00    +0.000 OA
ATOM     22  H   UNL     1       7.702   5.585  21.054  0.00  0.00    +0.000 HD
ENDBRANCH  17  21
ENDBRANCH  13  19
ENDBRANCH   1  13
TORSDOF 4
ENDMDL
MODEL 2
REMARK VINA RESULT:      -7.8      0.115      1.051
REMARK  Name = 
REMARK  5 active torsions:
REMARK  status: ('A' for Active; 'I' for Inactive)
REMARK    1  A    between atoms: C_1  and  C_2
REMARK    2  A    between atoms: C_4  and  O_5
REMARK    3  A    between atoms: C_7  and  C_8
REMARK    4  A    between atoms: C_8  and  N_9
REMARK    5  A    between atoms: C_12  and  C_13
REMARK                            x       y       z     vdW  Elec       q    Type
REMARK                         _______ _______ _______ _____ _____    ______ ____
ROOT
ATOM      1  N   UNL     1       4.381   4.989  16.533  0.00  0.00    +0.000 NA
ATOM      2  C   UNL     1       3.829   3.636  16.661  0.00  0.00    +0.000 C 
ATOM      3  C   UNL     1       2.311   3.644  16.839  0.00  0.00    +0.000 C 
ATOM      4  C   UNL     1       1.866   4.496  18.040  0.00  0.00    +0.000 C 
ATOM      5  C   UNL     1       2.464   5.903  17.861  0.00  0.00    +0.000 C 
ATOM      6  C   UNL     1       3.976   5.895  17.602  0.00  0.00    +0.000 C 
ENDROOT
BRANCH   4   7
ATOM      7  C   UNL     1       2.092   3.819  19.393  0.00  0.00    +0.000 A 
ATOM      8  C   UNL     1       1.108   3.738  20.390  0.00  0.00    +0.000 A 
ATOM      9  C   UNL     1       1.337   3.059  21.590  0.00  0.00    +0.000 A 
ATOM     10  C   UNL     1       2.556   2.431  21.815  0.00  0.00    +0.000 A 
ATOM     11  C   UNL     1       3.548   2.489  20.842  0.00  0.00    +0.000 A 
ATOM     12  C   UNL     1       3.317   3.172  19.643  0.00  0.00    +0.000 A 
ENDBRANCH   4   7
BRANCH   1  13
ATOM     13  C   UNL     1       5.847   4.974  16.314  0.00  0.00    +0.000 C 
BRANCH  13  19
ATOM     14  C   UNL     1       8.249   9.033  17.674  0.00  0.00    +0.000 C 
ATOM     15  C   UNL     1       7.842   7.623  17.974  0.00  0.00    +0.000 A 
ATOM     16  N   UNL     1       8.279   7.086  19.122  0.00  0.00    +0.000 NA
ATOM     17  C   UNL     1       7.912   5.821  19.325  0.00  0.00    +0.000 A 
ATOM     18  C   UNL     1       7.150   5.062  18.480  0.00  0.00    +0.000 A 
ATOM     19  C   UNL     1       6.740   5.694  17.323  0.00  0.00    +0.000 A 
ATOM     20  N   UNL     1       7.083   6.980  17.056  0.00  0.00    +0.000 NA
BRANCH  17  21
ATOM     21  O   UNL     1       8.359   5.302  20.496  0.00  0.00    +0.000 OA
ATOM     22  H   UNL     1       8.828   6.081  20.860  0.00  0.00    +0.000 HD
ENDBRANCH  17  21
ENDBRANCH  13  19
ENDBRANCH   1  13
TORSDOF 4
ENDMDL
MODEL 3
REMARK VINA RESULT:      -7.7      3.165      6.935
REMARK  Name = 
REMARK  5 active torsions:
REMARK  status: ('A' for Active; 'I' for Inactive)
REMARK    1  A    between atoms: C_1  and  C_2
REMARK    2  A    between atoms: C_4  and  O_5
REMARK    3  A    between atoms: C_7  and  C_8
REMARK    4  A    between atoms: C_8  and  N_9
REMARK    5  A    between atoms: C_12  and  C_13
REMARK                            x       y       z     vdW  Elec       q    Type
REMARK                         _______ _______ _______ _____ _____    ______ ____
ROOT
ATOM      1  N   UNL     1       4.536   5.725  17.725  0.00  0.00    +0.000 NA
ATOM      2  C   UNL     1       5.069   4.383  17.472  0.00  0.00    +0.000 C 
ATOM      3  C   UNL     1       6.595   4.376  17.370  0.00  0.00    +0.000 C 
ATOM      4  C   UNL     1       7.114   5.346  16.296  0.00  0.00    +0.000 C 
ATOM      5  C   UNL     1       6.533   6.738  16.603  0.00  0.00    +0.000 C 
ATOM      6  C   UNL     1       5.010   6.736  16.786  0.00  0.00    +0.000 C 
ENDROOT
BRANCH   4   7
ATOM      7  C   UNL     1       6.946   4.830  14.865  0.00  0.00    +0.000 A 
ATOM      8  C   UNL     1       5.965   3.901  14.488  0.00  0.00    +0.000 A 
ATOM      9  C   UNL     1       5.809   3.501  13.158  0.00  0.00    +0.000 A 
ATOM     10  C   UNL     1       6.625   4.033  12.169  0.00  0.00    +0.000 A 
ATOM     11  C   UNL     1       7.603   4.963  12.512  0.00  0.00    +0.000 A 
ATOM     12  C   UNL     1       7.758   5.359  13.844  0.00  0.00    +0.000 A 
ENDBRANCH   4   7
BRANCH   1  13
ATOM     13  C   UNL     1       3.060   5.720  17.869  0.00  0.00    +0.000 C 
BRANCH  13  19
ATOM     14  C   UNL     1       2.254   3.286  22.055  0.00  0.00    +0.000 C 
ATOM     15  C   UNL     1       2.001   3.427  20.584  0.00  0.00    +0.000 A 
ATOM     16  N   UNL     1       1.201   2.521  20.007  0.00  0.00    +0.000 NA
ATOM     17  C   UNL     1       1.034   2.677  18.693  0.00  0.00    +0.000 A 
ATOM     18  C   UNL     1       1.597   3.658  17.925  0.00  0.00    +0.000 A 
ATOM     19  C   UNL     1       2.404   4.551  18.601  0.00  0.00    +0.000 A 
ATOM     20  N   UNL     1       2.617   4.444  19.937  0.00  0.00    +0.000 NA
BRANCH  17  21
ATOM     21  O   UNL     1       0.214   1.753  18.132  0.00  0.00    +0.000 OA
ATOM     22  H   UNL     1       0.739   0.942  18.289  0.00  0.00    +0.000 HD
ENDBRANCH  17  21
ENDBRANCH  13  19
ENDBRANCH   1  13
TORSDOF 4
ENDMDL
MODEL 4
REMARK VINA RESULT:      -7.6      3.183      6.897
REMARK  Name = 
REMARK  5 active torsions:
REMARK  status: ('A' for Active; 'I' for Inactive)
REMARK    1  A    between atoms: C_1  and  C_2
REMARK    2  A    between atoms: C_4  and  O_5
REMARK    3  A    between atoms: C_7  and  C_8
REMARK    4  A    between atoms: C_8  and  N_9
REMARK    5  A    between atoms: C_12  and  C_13
REMARK                            x       y       z     vdW  Elec       q    Type
REMARK                         _______ _______ _______ _____ _____    ______ ____
ROOT
ATOM      1  N   UNL     1       4.551   5.671  17.689  0.00  0.00    +0.000 NA
ATOM      2  C   UNL     1       5.060   4.337  17.357  0.00  0.00    +0.000 C 
ATOM      3  C   UNL     1       6.585   4.309  17.248  0.00  0.00    +0.000 C 
ATOM      4  C   UNL     1       7.118   5.330  16.229  0.00  0.00    +0.000 C 
ATOM      5  C   UNL     1       6.562   6.712  16.618  0.00  0.00    +0.000 C 
ATOM      6  C   UNL     1       5.040   6.725  16.806  0.00  0.00    +0.000 C 
ENDROOT
BRANCH   4   7
ATOM      7  C   UNL     1       6.936   4.900  14.772  0.00  0.00    +0.000 A 
ATOM      8  C   UNL     1       7.743   5.364  13.723  0.00  0.00    +0.000 A 
ATOM      9  C   UNL     1       7.580   4.899  12.414  0.00  0.00    +0.000 A 
ATOM     10  C   UNL     1       6.611   3.947  12.128  0.00  0.00    +0.000 A 
ATOM     11  C   UNL     1       5.800   3.464  13.150  0.00  0.00    +0.000 A 
ATOM     12  C   UNL     1       5.963   3.932  14.457  0.00  0.00    +0.000 A 
ENDBRANCH   4   7
BRANCH   1  13
ATOM     13  C   UNL     1       3.076   5.683  17.839  0.00  0.00    +0.000 C 
BRANCH  13  19
ATOM     14  C   UNL     1       2.250   3.295  22.046  0.00  0.00    +0.000 C 
ATOM     15  C   UNL     1       1.998   3.425  20.575  0.00  0.00    +0.000 A 
ATOM     16  N   UNL     1       1.190   2.521  20.006  0.00  0.00    +0.000 NA
ATOM     17  C   UNL     1       1.024   2.666  18.691  0.00  0.00    +0.000 A 
ATOM     18  C   UNL     1       1.596   3.634  17.913  0.00  0.00    +0.000 A 
ATOM     19  C   UNL     1       2.411   4.526  18.581  0.00  0.00    +0.000 A 
ATOM     20  N   UNL     1       2.623   4.430  19.918  0.00  0.00    +0.000 NA
BRANCH  17  21
ATOM     21  O   UNL     1       0.196   1.743  18.139  0.00  0.00    +0.000 OA
ATOM     22  H   UNL     1      -0.630   2.266  18.084  0.00  0.00    +0.000 HD
ENDBRANCH  17  21
ENDBRANCH  13  19
ENDBRANCH   1  13
TORSDOF 4
ENDMDL
MODEL 5
REMARK VINA RESULT:      -7.4      3.138      4.196
REMARK  Name = 
REMARK  5 active torsions:
REMARK  status: ('A' for Active; 'I' for Inactive)
REMARK    1  A    between atoms: C_1  and  C_2
REMARK    2  A    between atoms: C_4  and  O_5
REMARK    3  A    between atoms: C_7  and  C_8
REMARK    4  A    between atoms: C_8  and  N_9
REMARK    5  A    between atoms: C_12  and  C_13
REMARK                            x       y       z     vdW  Elec       q    Type
REMARK                         _______ _______ _______ _____ _____    ______ ____
ROOT
ATOM      1  N   UNL     1       6.119   5.288  17.210  0.00  0.00    +0.000 NA
ATOM      2  C   UNL     1       4.841   5.494  16.521  0.00  0.00    +0.000 C 
ATOM      3  C   UNL     1       3.926   6.459  17.274  0.00  0.00    +0.000 C 
ATOM      4  C   UNL     1       3.662   6.008  18.721  0.00  0.00    +0.000 C 
ATOM      5  C   UNL     1       5.027   5.808  19.404  0.00  0.00    +0.000 C 
ATOM      6  C   UNL     1       5.979   4.903  18.611  0.00  0.00    +0.000 C 
ENDROOT
BRANCH   4   7
ATOM      7  C   UNL     1       2.660   4.858  18.835  0.00  0.00    +0.000 A 
ATOM      8  C   UNL     1       2.567   3.817  17.900  0.00  0.00    +0.000 A 
ATOM      9  C   UNL     1       1.676   2.754  18.075  0.00  0.00    +0.000 A 
ATOM     10  C   UNL     1       0.864   2.702  19.200  0.00  0.00    +0.000 A 
ATOM     11  C   UNL     1       0.939   3.717  20.148  0.00  0.00    +0.000 A 
ATOM     12  C   UNL     1       1.829   4.781  19.970  0.00  0.00    +0.000 A 
ENDBRANCH   4   7
BRANCH   1  13
ATOM     13  C   UNL     1       7.022   4.387  16.454  0.00  0.00    +0.000 C 
BRANCH  13  19
ATOM     14  C   UNL     1       8.625   6.282  12.219  0.00  0.00    +0.000 C 
ATOM     15  C   UNL     1       7.755   5.293  12.934  0.00  0.00    +0.000 A 
ATOM     16  N   UNL     1       6.992   4.487  12.182  0.00  0.00    +0.000 NA
ATOM     17  C   UNL     1       6.217   3.648  12.869  0.00  0.00    +0.000 A 
ATOM     18  C   UNL     1       6.148   3.554  14.231  0.00  0.00    +0.000 A 
ATOM     19  C   UNL     1       6.969   4.419  14.928  0.00  0.00    +0.000 A 
ATOM     20  N   UNL     1       7.779   5.299  14.287  0.00  0.00    +0.000 NA
BRANCH  17  21
ATOM     21  O   UNL     1       5.460   2.838  12.087  0.00  0.00    +0.000 OA
ATOM     22  H   UNL     1       5.771   1.963  12.397  0.00  0.00    +0.000 HD
ENDBRANCH  17  21
ENDBRANCH  13  19
ENDBRANCH   1  13
TORSDOF 4
ENDMDL
MODEL 6
REMARK VINA RESULT:      -7.4      2.823      3.904
REMARK  Name = 
REMARK  5 active torsions:
REMARK  status: ('A' for Active; 'I' for Inactive)
REMARK    1  A    between atoms: C_1  and  C_2
REMARK    2  A    between atoms: C_4  and  O_5
REMARK    3  A    between atoms: C_7  and  C_8
REMARK    4  A    between atoms: C_8  and  N_9
REMARK    5  A    between atoms: C_12  and  C_13
REMARK                            x       y       z     vdW  Elec       q    Type
REMARK                         _______ _______ _______ _____ _____    ______ ____
ROOT
ATOM      1  N   UNL     1       4.468   4.805  16.712  0.00  0.00    +0.000 NA
ATOM      2  C   UNL     1       3.530   3.680  16.772  0.00  0.00    +0.000 C 
ATOM      3  C   UNL     1       2.084   4.140  16.962  0.00  0.00    +0.000 C 
ATOM      4  C   UNL     1       1.910   5.022  18.211  0.00  0.00    +0.000 C 
ATOM      5  C   UNL     1       2.910   6.188  18.103  0.00  0.00    +0.000 C 
ATOM      6  C   UNL     1       4.349   5.733  17.832  0.00  0.00    +0.000 C 
ENDROOT
BRANCH   4   7
ATOM      7  C   UNL     1       1.906   4.237  19.524  0.00  0.00    +0.000 A 
ATOM      8  C   UNL     1       2.509   4.701  20.703  0.00  0.00    +0.000 A 
ATOM      9  C   UNL     1       2.431   3.978  21.897  0.00  0.00    +0.000 A 
ATOM     10  C   UNL     1       1.735   2.778  21.942  0.00  0.00    +0.000 A 
ATOM     11  C   UNL     1       1.122   2.296  20.790  0.00  0.00    +0.000 A 
ATOM     12  C   UNL     1       1.203   3.020  19.596  0.00  0.00    +0.000 A 
ENDBRANCH   4   7
BRANCH   1  13
ATOM     13  C   UNL     1       5.862   4.355  16.481  0.00  0.00    +0.000 C 
BRANCH  13  19
ATOM     14  C   UNL     1       5.663   2.796  11.832  0.00  0.00    +0.000 C 
ATOM     15  C   UNL     1       6.293   3.686  12.860  0.00  0.00    +0.000 A 
ATOM     16  N   UNL     1       7.297   4.476  12.459  0.00  0.00    +0.000 NA
ATOM     17  C   UNL     1       7.840   5.224  13.420  0.00  0.00    +0.000 A 
ATOM     18  C   UNL     1       7.459   5.242  14.733  0.00  0.00    +0.000 A 
ATOM     19  C   UNL     1       6.415   4.400  15.059  0.00  0.00    +0.000 A 
ATOM     20  N   UNL     1       5.822   3.610  14.127  0.00  0.00    +0.000 NA
BRANCH  17  21
ATOM     21  O   UNL     1       8.849   6.021  12.988  0.00  0.00    +0.000 OA
ATOM     22  H   UNL     1       9.608   5.593  13.433  0.00  0.00    +0.000 HD
ENDBRANCH  17  21
ENDBRANCH  13  19
ENDBRANCH   1  13
TORSDOF 4
ENDMDL
MODEL 7
REMARK VINA RESULT:      -7.2      2.977      4.384
REMARK  Name = 
REMARK  5 active torsions:
REMARK  status: ('A' for Active; 'I' for Inactive)
REMARK    1  A    between atoms: C_1  and  C_2
REMARK    2  A    between atoms: C_4  and  O_5
REMARK    3  A    between atoms: C_7  and  C_8
REMARK    4  A    between atoms: C_8  and  N_9
REMARK    5  A    between atoms: C_12  and  C_13
REMARK                            x       y       z     vdW  Elec       q    Type
REMARK                         _______ _______ _______ _____ _____    ______ ____
ROOT
ATOM      1  N   UNL     1       5.840   4.957  17.145  0.00  0.00    +0.000 NA
ATOM      2  C   UNL     1       4.481   5.138  16.625  0.00  0.00    +0.000 C 
ATOM      3  C   UNL     1       3.706   6.213  17.389  0.00  0.00    +0.000 C 
ATOM      4  C   UNL     1       3.645   5.928  18.899  0.00  0.00    +0.000 C 
ATOM      5  C   UNL     1       5.089   5.749  19.400  0.00  0.00    +0.000 C 
ATOM      6  C   UNL     1       5.895   4.729  18.585  0.00  0.00    +0.000 C 
ENDROOT
BRANCH   4   7
ATOM      7  C   UNL     1       2.643   4.836  19.280  0.00  0.00    +0.000 A 
ATOM      8  C   UNL     1       2.325   4.508  20.607  0.00  0.00    +0.000 A 
ATOM      9  C   UNL     1       1.360   3.543  20.910  0.00  0.00    +0.000 A 
ATOM     10  C   UNL     1       0.680   2.891  19.890  0.00  0.00    +0.000 A 
ATOM     11  C   UNL     1       0.971   3.200  18.564  0.00  0.00    +0.000 A 
ATOM     12  C   UNL     1       1.938   4.164  18.264  0.00  0.00    +0.000 A 
ENDBRANCH   4   7
BRANCH   1  13
ATOM     13  C   UNL     1       6.603   3.947  16.372  0.00  0.00    +0.000 C 
BRANCH  13  19
ATOM     14  C   UNL     1       5.438   2.743  11.759  0.00  0.00    +0.000 C 
ATOM     15  C   UNL     1       6.209   3.618  12.700  0.00  0.00    +0.000 A 
ATOM     16  N   UNL     1       7.006   4.551  12.162  0.00  0.00    +0.000 NA
ATOM     17  C   UNL     1       7.691   5.280  13.043  0.00  0.00    +0.000 A 
ATOM     18  C   UNL     1       7.638   5.150  14.404  0.00  0.00    +0.000 A 
ATOM     19  C   UNL     1       6.789   4.167  14.873  0.00  0.00    +0.000 A 
ATOM     20  N   UNL     1       6.067   3.389  14.026  0.00  0.00    +0.000 NA
BRANCH  17  21
ATOM     21  O   UNL     1       8.485   6.222  12.475  0.00  0.00    +0.000 OA
ATOM     22  H   UNL     1       8.205   7.010  12.983  0.00  0.00    +0.000 HD
ENDBRANCH  17  21
ENDBRANCH  13  19
ENDBRANCH   1  13
TORSDOF 4
ENDMDL
MODEL 8
REMARK VINA RESULT:      -7.2      3.233      6.702
REMARK  Name = 
REMARK  5 active torsions:
REMARK  status: ('A' for Active; 'I' for Inactive)
REMARK    1  A    between atoms: C_1  and  C_2
REMARK    2  A    between atoms: C_4  and  O_5
REMARK    3  A    between atoms: C_7  and  C_8
REMARK    4  A    between atoms: C_8  and  N_9
REMARK    5  A    between atoms: C_12  and  C_13
REMARK                            x       y       z     vdW  Elec       q    Type
REMARK                         _______ _______ _______ _____ _____    ______ ____
ROOT
ATOM      1  N   UNL     1       5.381   4.797  18.158  0.00  0.00    +0.000 NA
ATOM      2  C   UNL     1       6.687   4.379  17.639  0.00  0.00    +0.000 C 
ATOM      3  C   UNL     1       7.377   5.488  16.844  0.00  0.00    +0.000 C 
ATOM      4  C   UNL     1       6.506   6.009  15.688  0.00  0.00    +0.000 C 
ATOM      5  C   UNL     1       5.151   6.438  16.279  0.00  0.00    +0.000 C 
ATOM      6  C   UNL     1       4.493   5.355  17.143  0.00  0.00    +0.000 C 
ENDROOT
BRANCH   4   7
ATOM      7  C   UNL     1       6.465   5.074  14.478  0.00  0.00    +0.000 A 
ATOM      8  C   UNL     1       5.400   4.200  14.212  0.00  0.00    +0.000 A 
ATOM      9  C   UNL     1       5.376   3.405  13.063  0.00  0.00    +0.000 A 
ATOM     10  C   UNL     1       6.414   3.475  12.144  0.00  0.00    +0.000 A 
ATOM     11  C   UNL     1       7.481   4.337  12.377  0.00  0.00    +0.000 A 
ATOM     12  C   UNL     1       7.504   5.130  13.529  0.00  0.00    +0.000 A 
ENDBRANCH   4   7
BRANCH   1  13
ATOM     13  C   UNL     1       4.736   3.733  18.965  0.00  0.00    +0.000 C 
BRANCH  13  19
ATOM     14  C   UNL     1       1.442   6.705  21.065  0.00  0.00    +0.000 C 
ATOM     15  C   UNL     1       1.757   5.385  20.431  0.00  0.00    +0.000 A 
ATOM     16  N   UNL     1       0.761   4.493  20.336  0.00  0.00    +0.000 NA
ATOM     17  C   UNL     1       1.103   3.326  19.790  0.00  0.00    +0.000 A 
ATOM     18  C   UNL     1       2.349   2.987  19.338  0.00  0.00    +0.000 A 
ATOM     19  C   UNL     1       3.314   3.966  19.471  0.00  0.00    +0.000 A 
ATOM     20  N   UNL     1       3.029   5.173  20.021  0.00  0.00    +0.000 NA
BRANCH  17  21
ATOM     21  O   UNL     1       0.077   2.443  19.698  0.00  0.00    +0.000 OA
ATOM     22  H   UNL     1      -0.626   2.951  20.151  0.00  0.00    +0.000 HD
ENDBRANCH  17  21
ENDBRANCH  13  19
ENDBRANCH   1  13
TORSDOF 4
ENDMDL
MODEL 9
REMARK VINA RESULT:      -7.1      2.955      3.752
REMARK  Name = 
REMARK  5 active torsions:
REMARK  status: ('A' for Active; 'I' for Inactive)
REMARK    1  A    between atoms: C_1  and  C_2
REMARK    2  A    between atoms: C_4  and  O_5
REMARK    3  A    between atoms: C_7  and  C_8
REMARK    4  A    between atoms: C_8  and  N_9
REMARK    5  A    between atoms: C_12  and  C_13
REMARK                            x       y       z     vdW  Elec       q    Type
REMARK                         _______ _______ _______ _____ _____    ______ ____
ROOT
ATOM      1  N   UNL     1       4.569   4.956  16.649  0.00  0.00    +0.000 NA
ATOM      2  C   UNL     1       3.776   3.723  16.651  0.00  0.00    +0.000 C 
ATOM      3  C   UNL     1       2.294   3.988  16.918  0.00  0.00    +0.000 C 
ATOM      4  C   UNL     1       2.063   4.749  18.235  0.00  0.00    +0.000 C 
ATOM      5  C   UNL     1       2.911   6.034  18.186  0.00  0.00    +0.000 C 
ATOM      6  C   UNL     1       4.383   5.779  17.839  0.00  0.00    +0.000 C 
ENDROOT
BRANCH   4   7
ATOM      7  C   UNL     1       2.204   3.878  19.484  0.00  0.00    +0.000 A 
ATOM      8  C   UNL     1       3.388   3.211  19.832  0.00  0.00    +0.000 A 
ATOM      9  C   UNL     1       3.491   2.472  21.014  0.00  0.00    +0.000 A 
ATOM     10  C   UNL     1       2.412   2.395  21.885  0.00  0.00    +0.000 A 
ATOM     11  C   UNL     1       1.227   3.052  21.570  0.00  0.00    +0.000 A 
ATOM     12  C   UNL     1       1.126   3.788  20.385  0.00  0.00    +0.000 A 
ENDBRANCH   4   7
BRANCH   1  13
ATOM     13  C   UNL     1       5.998   4.699  16.345  0.00  0.00    +0.000 C 
BRANCH  13  19
ATOM     14  C   UNL     1       8.840   6.105  12.599  0.00  0.00    +0.000 C 
ATOM     15  C   UNL     1       7.781   5.189  13.131  0.00  0.00    +0.000 A 
ATOM     16  N   UNL     1       7.273   4.279  12.288  0.00  0.00    +0.000 NA
ATOM     17  C   UNL     1       6.314   3.511  12.805  0.00  0.00    +0.000 A 
ATOM     18  C   UNL     1       5.831   3.581  14.082  0.00  0.00    +0.000 A 
ATOM     19  C   UNL     1       6.413   4.544  14.883  0.00  0.00    +0.000 A 
ATOM     20  N   UNL     1       7.392   5.360  14.416  0.00  0.00    +0.000 NA
BRANCH  17  21
ATOM     21  O   UNL     1       5.820   2.593  11.936  0.00  0.00    +0.000 OA
ATOM     22  H   UNL     1       5.115   2.197  12.488  0.00  0.00    +0.000 HD
ENDBRANCH  17  21
ENDBRANCH  13  19
ENDBRANCH   1  13
TORSDOF 4
ENDMDL
