MODEL 1
REMARK VINA RESULT:      -6.8      0.000      0.000
REMARK  Name = 
REMARK  13 active torsions:
REMARK  status: ('A' for Active; 'I' for Inactive)
REMARK    1  A    between atoms: O_1  and  C_2
REMARK    2  A    between atoms: C_2  and  C_3
REMARK    3  A    between atoms: C_4  and  O_5
REMARK    4  A    between atoms: C_6  and  O_7
REMARK    5  A    between atoms: C_8  and  O_9
REMARK    6  A    between atoms: N_11  and  C_12
REMARK    7  A    between atoms: C_12  and  C_13
REMARK    8  A    between atoms: C_13  and  C_14
REMARK    9  A    between atoms: C_14  and  C_15
REMARK   10  A    between atoms: C_15  and  C_16
REMARK   11  A    between atoms: C_16  and  C_17
REMARK   12  A    between atoms: C_17  and  O_18
REMARK   13  A    between atoms: O_18  and  C_19
REMARK                            x       y       z     vdW  Elec       q    Type
REMARK                         _______ _______ _______ _____ _____    ______ ____
ROOT
ATOM      1  C   UNL     1       6.067   4.633  17.758  0.00  0.00    +0.000 C 
ATOM      2  C   UNL     1       6.821   5.541  16.737  0.00  0.00    +0.000 C 
ATOM      3  C   UNL     1       7.172   4.774  15.457  0.00  0.00    +0.000 C 
ATOM      4  C   UNL     1       5.912   4.152  14.849  0.00  0.00    +0.000 C 
ATOM      5  C   UNL     1       5.187   3.315  15.905  0.00  0.00    +0.000 C 
ATOM      6  N   UNL     1       4.824   4.084  17.113  0.00  0.00    +0.000 NA
ENDROOT
BRANCH   2   7
ATOM      7  O   UNL     1       8.014   6.094  17.313  0.00  0.00    +0.000 OA
ATOM      8  H   UNL     1       8.426   5.413  17.874  0.00  0.00    +0.000 HD
ENDBRANCH   2   7
BRANCH   3   9
ATOM      9  O   UNL     1       7.808   5.636  14.504  0.00  0.00    +0.000 OA
ATOM     10  H   UNL     1       8.666   5.242  14.261  0.00  0.00    +0.000 HD
ENDBRANCH   3   9
BRANCH   4  11
ATOM     11  O   UNL     1       6.228   3.321  13.724  0.00  0.00    +0.000 OA
ATOM     12  H   UNL     1       5.434   2.816  13.480  0.00  0.00    +0.000 HD
ENDBRANCH   4  11
BRANCH   1  13
ATOM     13  C   UNL     1       5.861   5.476  19.051  0.00  0.00    +0.000 C 
BRANCH  13  14
ATOM     14  O   UNL     1       6.984   5.423  19.927  0.00  0.00    +0.000 OA
ATOM     15  H   UNL     1       6.680   4.966  20.731  0.00  0.00    +0.000 HD
ENDBRANCH  13  14
ENDBRANCH   1  13
BRANCH   6  16
ATOM     16  C   UNL     1       4.008   3.253  18.033  0.00  0.00    +0.000 C 
BRANCH  16  17
ATOM     17  C   UNL     1       2.538   3.102  17.583  0.00  0.00    +0.000 C 
BRANCH  17  18
ATOM     18  C   UNL     1       1.746   2.103  18.432  0.00  0.00    +0.000 C 
BRANCH  18  19
ATOM     19  C   UNL     1       0.797   2.849  19.382  0.00  0.00    +0.000 C 
BRANCH  19  20
ATOM     20  C   UNL     1       1.514   3.383  20.618  0.00  0.00    +0.000 C 
BRANCH  20  21
ATOM     21  C   UNL     1       1.309   4.890  20.787  0.00  0.00    +0.000 C 
BRANCH  21  22
ATOM     22  O   UNL     1       2.477   5.549  20.298  0.00  0.00    +0.000 OA
BRANCH  22  23
ATOM     23  C   UNL     1       2.292   6.686  19.568  0.00  0.00    +0.000 A 
ATOM     24  C   UNL     1       2.583   6.873  18.222  0.00  0.00    +0.000 A 
ATOM     25  C   UNL     1       2.328   8.107  17.622  0.00  0.00    +0.000 A 
ATOM     26  C   UNL     1       1.788   9.121  18.397  0.00  0.00    +0.000 A 
ATOM     27  N   UNL     1       1.492   8.982  19.706  0.00  0.00    +0.000 NA
ATOM     28  C   UNL     1       1.751   7.772  20.255  0.00  0.00    +0.000 A 
ENDBRANCH  22  23
ENDBRANCH  21  22
ENDBRANCH  20  21
ENDBRANCH  19  20
ENDBRANCH  18  19
ENDBRANCH  17  18
ENDBRANCH  16  17
ENDBRANCH   6  16
TORSDOF 13
ENDMDL
MODEL 2
REMARK VINA RESULT:      -6.2      3.591      5.668
REMARK  Name = 
REMARK  13 active torsions:
REMARK  status: ('A' for Active; 'I' for Inactive)
REMARK    1  A    between atoms: O_1  and  C_2
REMARK    2  A    between atoms: C_2  and  C_3
REMARK    3  A    between atoms: C_4  and  O_5
REMARK    4  A    between atoms: C_6  and  O_7
REMARK    5  A    between atoms: C_8  and  O_9
REMARK    6  A    between atoms: N_11  and  C_12
REMARK    7  A    between atoms: C_12  and  C_13
REMARK    8  A    between atoms: C_13  and  C_14
REMARK    9  A    between atoms: C_14  and  C_15
REMARK   10  A    between atoms: C_15  and  C_16
REMARK   11  A    between atoms: C_16  and  C_17
REMARK   12  A    between atoms: C_17  and  O_18
REMARK   13  A    between atoms: O_18  and  C_19
REMARK                            x       y       z     vdW  Elec       q    Type
REMARK                         _______ _______ _______ _____ _____    ______ ____
ROOT
ATOM      1  C   UNL     1       1.976   4.127  19.202  0.00  0.00    +0.000 C 
ATOM      2  C   UNL     1       2.633   2.712  19.162  0.00  0.00    +0.000 C 
ATOM      3  C   UNL     1       3.553   2.555  17.946  0.00  0.00    +0.000 C 
ATOM      4  C   UNL     1       4.600   3.673  17.925  0.00  0.00    +0.000 C 
ATOM      5  C   UNL     1       3.905   5.033  18.017  0.00  0.00    +0.000 C 
ATOM      6  N   UNL     1       3.054   5.176  19.216  0.00  0.00    +0.000 NA
ENDROOT
BRANCH   2   7
ATOM      7  O   UNL     1       1.638   1.676  19.154  0.00  0.00    +0.000 OA
ATOM      8  H   UNL     1       0.820   2.040  18.772  0.00  0.00    +0.000 HD
ENDBRANCH   2   7
BRANCH   3   9
ATOM      9  O   UNL     1       4.197   1.273  17.956  0.00  0.00    +0.000 OA
ATOM     10  H   UNL     1       4.486   1.084  18.868  0.00  0.00    +0.000 HD
ENDBRANCH   3   9
BRANCH   4  11
ATOM     11  O   UNL     1       5.392   3.626  16.731  0.00  0.00    +0.000 OA
ATOM     12  H   UNL     1       5.701   4.525  16.529  0.00  0.00    +0.000 HD
ENDBRANCH   4  11
BRANCH   1  13
ATOM     13  C   UNL     1       0.987   4.136  20.404  0.00  0.00    +0.000 C 
BRANCH  13  14
ATOM     14  O   UNL     1       1.493   3.436  21.539  0.00  0.00    +0.000 OA
ATOM     15  H   UNL     1       1.944   4.101  22.088  0.00  0.00    +0.000 HD
ENDBRANCH  13  14
ENDBRANCH   1  13
BRANCH   6  16
ATOM     16  C   UNL     1       2.522   6.558  19.314  0.00  0.00    +0.000 C 
BRANCH  16  17
ATOM     17  C   UNL     1       2.894   7.447  18.106  0.00  0.00    +0.000 C 
BRANCH  17  18
ATOM     18  C   UNL     1       1.818   8.482  17.764  0.00  0.00    +0.000 C 
BRANCH  18  19
ATOM     19  C   UNL     1       1.546   9.383  18.978  0.00  0.00    +0.000 C 
BRANCH  19  20
ATOM     20  C   UNL     1       0.961  10.735  18.579  0.00  0.00    +0.000 C 
BRANCH  20  21
ATOM     21  C   UNL     1      -0.338  11.035  19.328  0.00  0.00    +0.000 C 
BRANCH  21  22
ATOM     22  O   UNL     1      -1.290  10.030  18.976  0.00  0.00    +0.000 OA
BRANCH  22  23
ATOM     23  C   UNL     1      -2.120  10.298  17.928  0.00  0.00    +0.000 A 
ATOM     24  C   UNL     1      -2.084   9.724  16.663  0.00  0.00    +0.000 A 
ATOM     25  C   UNL     1      -3.015  10.110  15.698  0.00  0.00    +0.000 A 
ATOM     26  C   UNL     1      -3.957  11.069  16.034  0.00  0.00    +0.000 A 
ATOM     27  N   UNL     1      -4.026  11.654  17.248  0.00  0.00    +0.000 NA
ATOM     28  C   UNL     1      -3.108  11.254  18.160  0.00  0.00    +0.000 A 
ENDBRANCH  22  23
ENDBRANCH  21  22
ENDBRANCH  20  21
ENDBRANCH  19  20
ENDBRANCH  18  19
ENDBRANCH  17  18
ENDBRANCH  16  17
ENDBRANCH   6  16
TORSDOF 13
ENDMDL
MODEL 3
REMARK VINA RESULT:      -6.2      1.557      2.209
REMARK  Name = 
REMARK  13 active torsions:
REMARK  status: ('A' for Active; 'I' for Inactive)
REMARK    1  A    between atoms: O_1  and  C_2
REMARK    2  A    between atoms: C_2  and  C_3
REMARK    3  A    between atoms: C_4  and  O_5
REMARK    4  A    between atoms: C_6  and  O_7
REMARK    5  A    between atoms: C_8  and  O_9
REMARK    6  A    between atoms: N_11  and  C_12
REMARK    7  A    between atoms: C_12  and  C_13
REMARK    8  A    between atoms: C_13  and  C_14
REMARK    9  A    between atoms: C_14  and  C_15
REMARK   10  A    between atoms: C_15  and  C_16
REMARK   11  A    between atoms: C_16  and  C_17
REMARK   12  A    between atoms: C_17  and  O_18
REMARK   13  A    between atoms: O_18  and  C_19
REMARK                            x       y       z     vdW  Elec       q    Type
REMARK                         _______ _______ _______ _____ _____    ______ ____
ROOT
ATOM      1  C   UNL     1       5.120   3.753  18.609  0.00  0.00    +0.000 C 
ATOM      2  C   UNL     1       5.727   5.176  18.817  0.00  0.00    +0.000 C 
ATOM      3  C   UNL     1       6.228   5.770  17.496  0.00  0.00    +0.000 C 
ATOM      4  C   UNL     1       5.105   5.772  16.455  0.00  0.00    +0.000 C 
ATOM      5  C   UNL     1       4.515   4.367  16.328  0.00  0.00    +0.000 C 
ATOM      6  N   UNL     1       4.003   3.830  17.606  0.00  0.00    +0.000 NA
ENDROOT
BRANCH   2   7
ATOM      7  O   UNL     1       6.796   5.152  19.775  0.00  0.00    +0.000 OA
ATOM      8  H   UNL     1       6.418   4.960  20.651  0.00  0.00    +0.000 HD
ENDBRANCH   2   7
BRANCH   3   9
ATOM      9  O   UNL     1       6.726   7.101  17.691  0.00  0.00    +0.000 OA
ATOM     10  H   UNL     1       6.015   7.729  17.465  0.00  0.00    +0.000 HD
ENDBRANCH   3   9
BRANCH   4  11
ATOM     11  O   UNL     1       5.580   6.202  15.172  0.00  0.00    +0.000 OA
ATOM     12  H   UNL     1       6.374   5.688  14.948  0.00  0.00    +0.000 HD
ENDBRANCH   4  11
BRANCH   1  13
ATOM     13  C   UNL     1       4.748   3.207  20.019  0.00  0.00    +0.000 C 
BRANCH  13  14
ATOM     14  O   UNL     1       5.204   1.872  20.230  0.00  0.00    +0.000 OA
ATOM     15  H   UNL     1       4.639   1.501  20.930  0.00  0.00    +0.000 HD
ENDBRANCH  13  14
ENDBRANCH   1  13
BRANCH   6  16
ATOM     16  C   UNL     1       3.324   2.528  17.388  0.00  0.00    +0.000 C 
BRANCH  16  17
ATOM     17  C   UNL     1       1.942   2.434  18.071  0.00  0.00    +0.000 C 
BRANCH  17  18
ATOM     18  C   UNL     1       1.366   3.799  18.461  0.00  0.00    +0.000 C 
BRANCH  18  19
ATOM     19  C   UNL     1       1.013   3.818  19.955  0.00  0.00    +0.000 C 
BRANCH  19  20
ATOM     20  C   UNL     1       1.547   5.060  20.663  0.00  0.00    +0.000 C 
BRANCH  20  21
ATOM     21  C   UNL     1       2.279   5.994  19.696  0.00  0.00    +0.000 C 
BRANCH  21  22
ATOM     22  O   UNL     1       2.375   7.277  20.315  0.00  0.00    +0.000 OA
BRANCH  22  23
ATOM     23  C   UNL     1       1.683   8.300  19.738  0.00  0.00    +0.000 A 
ATOM     24  C   UNL     1       1.773   8.733  18.420  0.00  0.00    +0.000 A 
ATOM     25  C   UNL     1       0.988   9.802  17.985  0.00  0.00    +0.000 A 
ATOM     26  C   UNL     1       0.133  10.407  18.892  0.00  0.00    +0.000 A 
ATOM     27  N   UNL     1       0.016  10.020  20.179  0.00  0.00    +0.000 NA
ATOM     28  C   UNL     1       0.791   8.980  20.567  0.00  0.00    +0.000 A 
ENDBRANCH  22  23
ENDBRANCH  21  22
ENDBRANCH  20  21
ENDBRANCH  19  20
ENDBRANCH  18  19
ENDBRANCH  17  18
ENDBRANCH  16  17
ENDBRANCH   6  16
TORSDOF 13
ENDMDL
MODEL 4
REMARK VINA RESULT:      -6.0      4.953      7.295
REMARK  Name = 
REMARK  13 active torsions:
REMARK  status: ('A' for Active; 'I' for Inactive)
REMARK    1  A    between atoms: O_1  and  C_2
REMARK    2  A    between atoms: C_2  and  C_3
REMARK    3  A    between atoms: C_4  and  O_5
REMARK    4  A    between atoms: C_6  and  O_7
REMARK    5  A    between atoms: C_8  and  O_9
REMARK    6  A    between atoms: N_11  and  C_12
REMARK    7  A    between atoms: C_12  and  C_13
REMARK    8  A    between atoms: C_13  and  C_14
REMARK    9  A    between atoms: C_14  and  C_15
REMARK   10  A    between atoms: C_15  and  C_16
REMARK   11  A    between atoms: C_16  and  C_17
REMARK   12  A    between atoms: C_17  and  O_18
REMARK   13  A    between atoms: O_18  and  C_19
REMARK                            x       y       z     vdW  Elec       q    Type
REMARK                         _______ _______ _______ _____ _____    ______ ____
ROOT
ATOM      1  C   UNL     1       3.303   4.891  18.346  0.00  0.00    +0.000 C 
ATOM      2  C   UNL     1       2.066   3.941  18.397  0.00  0.00    +0.000 C 
ATOM      3  C   UNL     1       2.439   2.513  17.980  0.00  0.00    +0.000 C 
ATOM      4  C   UNL     1       3.596   1.994  18.838  0.00  0.00    +0.000 C 
ATOM      5  C   UNL     1       4.760   2.987  18.792  0.00  0.00    +0.000 C 
ATOM      6  N   UNL     1       4.387   4.346  19.235  0.00  0.00    +0.000 NA
ENDROOT
BRANCH   2   7
ATOM      7  O   UNL     1       1.001   4.426  17.567  0.00  0.00    +0.000 OA
ATOM      8  H   UNL     1       1.393   4.912  16.819  0.00  0.00    +0.000 HD
ENDBRANCH   2   7
BRANCH   3   9
ATOM      9  O   UNL     1       1.308   1.638  18.092  0.00  0.00    +0.000 OA
ATOM     10  H   UNL     1       0.703   1.825  17.351  0.00  0.00    +0.000 HD
ENDBRANCH   3   9
BRANCH   4  11
ATOM     11  O   UNL     1       4.051   0.713  18.385  0.00  0.00    +0.000 OA
ATOM     12  H   UNL     1       4.808   0.845  17.791  0.00  0.00    +0.000 HD
ENDBRANCH   4  11
BRANCH   1  13
ATOM     13  C   UNL     1       2.790   6.323  18.679  0.00  0.00    +0.000 C 
BRANCH  13  14
ATOM     14  O   UNL     1       2.394   7.050  17.518  0.00  0.00    +0.000 OA
ATOM     15  H   UNL     1       1.424   7.113  17.556  0.00  0.00    +0.000 HD
ENDBRANCH  13  14
ENDBRANCH   1  13
BRANCH   6  16
ATOM     16  C   UNL     1       5.585   5.220  19.296  0.00  0.00    +0.000 C 
BRANCH  16  17
ATOM     17  C   UNL     1       6.245   5.455  17.919  0.00  0.00    +0.000 C 
BRANCH  17  18
ATOM     18  C   UNL     1       6.261   6.929  17.501  0.00  0.00    +0.000 C 
BRANCH  18  19
ATOM     19  C   UNL     1       7.704   7.396  17.259  0.00  0.00    +0.000 C 
BRANCH  19  20
ATOM     20  C   UNL     1       8.302   8.091  18.478  0.00  0.00    +0.000 C 
BRANCH  20  21
ATOM     21  C   UNL     1       8.499   9.589  18.237  0.00  0.00    +0.000 C 
BRANCH  21  22
ATOM     22  O   UNL     1       9.290  10.105  19.308  0.00  0.00    +0.000 OA
BRANCH  22  23
ATOM     23  C   UNL     1      10.181  11.092  19.006  0.00  0.00    +0.000 A 
ATOM     24  C   UNL     1      10.610  11.474  17.741  0.00  0.00    +0.000 A 
ATOM     25  C   UNL     1      11.531  12.514  17.604  0.00  0.00    +0.000 A 
ATOM     26  C   UNL     1      11.996  13.140  18.749  0.00  0.00    +0.000 A 
ATOM     27  N   UNL     1      11.608  12.800  19.995  0.00  0.00    +0.000 NA
ATOM     28  C   UNL     1      10.712  11.788  20.091  0.00  0.00    +0.000 A 
ENDBRANCH  22  23
ENDBRANCH  21  22
ENDBRANCH  20  21
ENDBRANCH  19  20
ENDBRANCH  18  19
ENDBRANCH  17  18
ENDBRANCH  16  17
ENDBRANCH   6  16
TORSDOF 13
ENDMDL
MODEL 5
REMARK VINA RESULT:      -6.0      0.834      1.201
REMARK  Name = 
REMARK  13 active torsions:
REMARK  status: ('A' for Active; 'I' for Inactive)
REMARK    1  A    between atoms: O_1  and  C_2
REMARK    2  A    between atoms: C_2  and  C_3
REMARK    3  A    between atoms: C_4  and  O_5
REMARK    4  A    between atoms: C_6  and  O_7
REMARK    5  A    between atoms: C_8  and  O_9
REMARK    6  A    between atoms: N_11  and  C_12
REMARK    7  A    between atoms: C_12  and  C_13
REMARK    8  A    between atoms: C_13  and  C_14
REMARK    9  A    between atoms: C_14  and  C_15
REMARK   10  A    between atoms: C_15  and  C_16
REMARK   11  A    between atoms: C_16  and  C_17
REMARK   12  A    between atoms: C_17  and  O_18
REMARK   13  A    between atoms: O_18  and  C_19
REMARK                            x       y       z     vdW  Elec       q    Type
REMARK                         _______ _______ _______ _____ _____    ______ ____
ROOT
ATOM      1  C   UNL     1       5.905   4.462  17.485  0.00  0.00    +0.000 C 
ATOM      2  C   UNL     1       6.687   5.447  16.561  0.00  0.00    +0.000 C 
ATOM      3  C   UNL     1       7.200   4.744  15.299  0.00  0.00    +0.000 C 
ATOM      4  C   UNL     1       6.042   4.064  14.562  0.00  0.00    +0.000 C 
ATOM      5  C   UNL     1       5.282   3.151  15.526  0.00  0.00    +0.000 C 
ATOM      6  N   UNL     1       4.763   3.857  16.715  0.00  0.00    +0.000 NA
ENDROOT
BRANCH   2   7
ATOM      7  O   UNL     1       7.785   6.055  17.258  0.00  0.00    +0.000 OA
ATOM      8  H   UNL     1       7.488   6.280  18.158  0.00  0.00    +0.000 HD
ENDBRANCH   2   7
BRANCH   3   9
ATOM      9  O   UNL     1       7.862   5.674  14.431  0.00  0.00    +0.000 OA
ATOM     10  H   UNL     1       7.479   5.584  13.539  0.00  0.00    +0.000 HD
ENDBRANCH   3   9
BRANCH   4  11
ATOM     11  O   UNL     1       6.511   3.291  13.450  0.00  0.00    +0.000 OA
ATOM     12  H   UNL     1       6.807   2.425  13.777  0.00  0.00    +0.000 HD
ENDBRANCH   4  11
BRANCH   1  13
ATOM     13  C   UNL     1       5.529   5.248  18.775  0.00  0.00    +0.000 C 
BRANCH  13  14
ATOM     14  O   UNL     1       6.561   5.217  19.759  0.00  0.00    +0.000 OA
ATOM     15  H   UNL     1       6.962   6.104  19.760  0.00  0.00    +0.000 HD
ENDBRANCH  13  14
ENDBRANCH   1  13
BRANCH   6  16
ATOM     16  C   UNL     1       3.924   2.947  17.535  0.00  0.00    +0.000 C 
BRANCH  16  17
ATOM     17  C   UNL     1       2.586   3.580  17.978  0.00  0.00    +0.000 C 
BRANCH  17  18
ATOM     18  C   UNL     1       1.706   2.624  18.791  0.00  0.00    +0.000 C 
BRANCH  18  19
ATOM     19  C   UNL     1       0.944   3.399  19.875  0.00  0.00    +0.000 C 
BRANCH  19  20
ATOM     20  C   UNL     1       1.843   4.366  20.640  0.00  0.00    +0.000 C 
BRANCH  20  21
ATOM     21  C   UNL     1       1.216   5.757  20.753  0.00  0.00    +0.000 C 
BRANCH  21  22
ATOM     22  O   UNL     1       2.251   6.721  20.557  0.00  0.00    +0.000 OA
BRANCH  22  23
ATOM     23  C   UNL     1       1.966   7.786  19.755  0.00  0.00    +0.000 A 
ATOM     24  C   UNL     1       1.219   8.909  20.089  0.00  0.00    +0.000 A 
ATOM     25  C   UNL     1       1.022   9.918  19.145  0.00  0.00    +0.000 A 
ATOM     26  C   UNL     1       1.583   9.766  17.887  0.00  0.00    +0.000 A 
ATOM     27  N   UNL     1       2.313   8.692  17.521  0.00  0.00    +0.000 NA
ATOM     28  C   UNL     1       2.485   7.733  18.462  0.00  0.00    +0.000 A 
ENDBRANCH  22  23
ENDBRANCH  21  22
ENDBRANCH  20  21
ENDBRANCH  19  20
ENDBRANCH  18  19
ENDBRANCH  17  18
ENDBRANCH  16  17
ENDBRANCH   6  16
TORSDOF 13
ENDMDL
MODEL 6
REMARK VINA RESULT:      -6.0      3.928      6.210
REMARK  Name = 
REMARK  13 active torsions:
REMARK  status: ('A' for Active; 'I' for Inactive)
REMARK    1  A    between atoms: O_1  and  C_2
REMARK    2  A    between atoms: C_2  and  C_3
REMARK    3  A    between atoms: C_4  and  O_5
REMARK    4  A    between atoms: C_6  and  O_7
REMARK    5  A    between atoms: C_8  and  O_9
REMARK    6  A    between atoms: N_11  and  C_12
REMARK    7  A    between atoms: C_12  and  C_13
REMARK    8  A    between atoms: C_13  and  C_14
REMARK    9  A    between atoms: C_14  and  C_15
REMARK   10  A    between atoms: C_15  and  C_16
REMARK   11  A    between atoms: C_16  and  C_17
REMARK   12  A    between atoms: C_17  and  O_18
REMARK   13  A    between atoms: O_18  and  C_19
REMARK                            x       y       z     vdW  Elec       q    Type
REMARK                         _______ _______ _______ _____ _____    ______ ____
ROOT
ATOM      1  C   UNL     1       3.855   4.262  18.062  0.00  0.00    +0.000 C 
ATOM      2  C   UNL     1       3.181   2.865  17.894  0.00  0.00    +0.000 C 
ATOM      3  C   UNL     1       2.263   2.539  19.077  0.00  0.00    +0.000 C 
ATOM      4  C   UNL     1       1.231   3.654  19.270  0.00  0.00    +0.000 C 
ATOM      5  C   UNL     1       1.942   5.004  19.379  0.00  0.00    +0.000 C 
ATOM      6  N   UNL     1       2.791   5.314  18.210  0.00  0.00    +0.000 NA
ENDROOT
BRANCH   2   7
ATOM      7  O   UNL     1       4.162   1.828  17.742  0.00  0.00    +0.000 OA
ATOM      8  H   UNL     1       3.834   1.028  18.191  0.00  0.00    +0.000 HD
ENDBRANCH   2   7
BRANCH   3   9
ATOM      9  O   UNL     1       1.602   1.282  18.880  0.00  0.00    +0.000 OA
ATOM     10  H   UNL     1       1.409   1.184  17.930  0.00  0.00    +0.000 HD
ENDBRANCH   3   9
BRANCH   4  11
ATOM     11  O   UNL     1       0.442   3.440  20.448  0.00  0.00    +0.000 OA
ATOM     12  H   UNL     1       1.039   3.233  21.187  0.00  0.00    +0.000 HD
ENDBRANCH   4  11
BRANCH   1  13
ATOM     13  C   UNL     1       4.841   4.438  16.869  0.00  0.00    +0.000 C 
BRANCH  13  14
ATOM     14  O   UNL     1       6.119   3.859  17.121  0.00  0.00    +0.000 OA
ATOM     15  H   UNL     1       6.374   3.398  16.303  0.00  0.00    +0.000 HD
ENDBRANCH  13  14
ENDBRANCH   1  13
BRANCH   6  16
ATOM     16  C   UNL     1       3.340   6.689  18.316  0.00  0.00    +0.000 C 
BRANCH  16  17
ATOM     17  C   UNL     1       2.290   7.739  18.741  0.00  0.00    +0.000 C 
BRANCH  17  18
ATOM     18  C   UNL     1       2.173   8.909  17.759  0.00  0.00    +0.000 C 
BRANCH  18  19
ATOM     19  C   UNL     1       0.813   9.603  17.921  0.00  0.00    +0.000 C 
BRANCH  19  20
ATOM     20  C   UNL     1       0.468   9.873  19.383  0.00  0.00    +0.000 C 
BRANCH  20  21
ATOM     21  C   UNL     1      -0.529  11.024  19.528  0.00  0.00    +0.000 C 
BRANCH  21  22
ATOM     22  O   UNL     1      -0.909  11.442  18.217  0.00  0.00    +0.000 OA
BRANCH  22  23
ATOM     23  C   UNL     1      -2.243  11.477  17.936  0.00  0.00    +0.000 A 
ATOM     24  C   UNL     1      -3.277  11.761  18.820  0.00  0.00    +0.000 A 
ATOM     25  C   UNL     1      -4.598  11.758  18.368  0.00  0.00    +0.000 A 
ATOM     26  C   UNL     1      -4.840  11.467  17.035  0.00  0.00    +0.000 A 
ATOM     27  N   UNL     1      -3.867  11.184  16.144  0.00  0.00    +0.000 NA
ATOM     28  C   UNL     1      -2.598  11.197  16.617  0.00  0.00    +0.000 A 
ENDBRANCH  22  23
ENDBRANCH  21  22
ENDBRANCH  20  21
ENDBRANCH  19  20
ENDBRANCH  18  19
ENDBRANCH  17  18
ENDBRANCH  16  17
ENDBRANCH   6  16
TORSDOF 13
ENDMDL
MODEL 7
REMARK VINA RESULT:      -5.9      3.758      5.506
REMARK  Name = 
REMARK  13 active torsions:
REMARK  status: ('A' for Active; 'I' for Inactive)
REMARK    1  A    between atoms: O_1  and  C_2
REMARK    2  A    between atoms: C_2  and  C_3
REMARK    3  A    between atoms: C_4  and  O_5
REMARK    4  A    between atoms: C_6  and  O_7
REMARK    5  A    between atoms: C_8  and  O_9
REMARK    6  A    between atoms: N_11  and  C_12
REMARK    7  A    between atoms: C_12  and  C_13
REMARK    8  A    between atoms: C_13  and  C_14
REMARK    9  A    between atoms: C_14  and  C_15
REMARK   10  A    between atoms: C_15  and  C_16
REMARK   11  A    between atoms: C_16  and  C_17
REMARK   12  A    between atoms: C_17  and  O_18
REMARK   13  A    between atoms: O_18  and  C_19
REMARK                            x       y       z     vdW  Elec       q    Type
REMARK                         _______ _______ _______ _____ _____    ______ ____
ROOT
ATOM      1  C   UNL     1       4.397   4.669  19.125  0.00  0.00    +0.000 C 
ATOM      2  C   UNL     1       4.403   3.132  18.855  0.00  0.00    +0.000 C 
ATOM      3  C   UNL     1       2.985   2.552  18.886  0.00  0.00    +0.000 C 
ATOM      4  C   UNL     1       2.082   3.303  17.903  0.00  0.00    +0.000 C 
ATOM      5  C   UNL     1       2.153   4.806  18.180  0.00  0.00    +0.000 C 
ATOM      6  N   UNL     1       3.525   5.350  18.107  0.00  0.00    +0.000 NA
ENDROOT
BRANCH   2   7
ATOM      7  O   UNL     1       5.231   2.440  19.801  0.00  0.00    +0.000 OA
ATOM      8  H   UNL     1       4.662   1.863  20.341  0.00  0.00    +0.000 HD
ENDBRANCH   2   7
BRANCH   3   9
ATOM      9  O   UNL     1       2.999   1.152  18.575  0.00  0.00    +0.000 OA
ATOM     10  H   UNL     1       3.675   0.999  17.889  0.00  0.00    +0.000 HD
ENDBRANCH   3   9
BRANCH   4  11
ATOM     11  O   UNL     1       0.720   2.867  18.004  0.00  0.00    +0.000 OA
ATOM     12  H   UNL     1       0.170   3.628  18.258  0.00  0.00    +0.000 HD
ENDBRANCH   4  11
BRANCH   1  13
ATOM     13  C   UNL     1       5.884   5.128  19.179  0.00  0.00    +0.000 C 
BRANCH  13  14
ATOM     14  O   UNL     1       6.747   4.288  18.415  0.00  0.00    +0.000 OA
ATOM     15  H   UNL     1       6.751   3.424  18.863  0.00  0.00    +0.000 HD
ENDBRANCH  13  14
ENDBRANCH   1  13
BRANCH   6  16
ATOM     16  C   UNL     1       3.505   6.827  18.249  0.00  0.00    +0.000 C 
BRANCH  16  17
ATOM     17  C   UNL     1       2.119   7.390  18.633  0.00  0.00    +0.000 C 
BRANCH  17  18
ATOM     18  C   UNL     1       1.984   7.698  20.128  0.00  0.00    +0.000 C 
BRANCH  18  19
ATOM     19  C   UNL     1       1.072   8.915  20.337  0.00  0.00    +0.000 C 
BRANCH  19  20
ATOM     20  C   UNL     1       0.026   8.678  21.423  0.00  0.00    +0.000 C 
BRANCH  20  21
ATOM     21  C   UNL     1       0.352   9.448  22.704  0.00  0.00    +0.000 C 
BRANCH  21  22
ATOM     22  O   UNL     1       0.347  10.841  22.391  0.00  0.00    +0.000 OA
BRANCH  22  23
ATOM     23  C   UNL     1      -0.868  11.455  22.302  0.00  0.00    +0.000 A 
ATOM     24  C   UNL     1      -1.832  11.552  23.297  0.00  0.00    +0.000 A 
ATOM     25  C   UNL     1      -3.029  12.222  23.042  0.00  0.00    +0.000 A 
ATOM     26  C   UNL     1      -3.223  12.774  21.786  0.00  0.00    +0.000 A 
ATOM     27  N   UNL     1      -2.315  12.701  20.790  0.00  0.00    +0.000 NA
ATOM     28  C   UNL     1      -1.165  12.045  21.074  0.00  0.00    +0.000 A 
ENDBRANCH  22  23
ENDBRANCH  21  22
ENDBRANCH  20  21
ENDBRANCH  19  20
ENDBRANCH  18  19
ENDBRANCH  17  18
ENDBRANCH  16  17
ENDBRANCH   6  16
TORSDOF 13
ENDMDL
MODEL 8
REMARK VINA RESULT:      -5.9      2.939      7.231
REMARK  Name = 
REMARK  13 active torsions:
REMARK  status: ('A' for Active; 'I' for Inactive)
REMARK    1  A    between atoms: O_1  and  C_2
REMARK    2  A    between atoms: C_2  and  C_3
REMARK    3  A    between atoms: C_4  and  O_5
REMARK    4  A    between atoms: C_6  and  O_7
REMARK    5  A    between atoms: C_8  and  O_9
REMARK    6  A    between atoms: N_11  and  C_12
REMARK    7  A    between atoms: C_12  and  C_13
REMARK    8  A    between atoms: C_13  and  C_14
REMARK    9  A    between atoms: C_14  and  C_15
REMARK   10  A    between atoms: C_15  and  C_16
REMARK   11  A    between atoms: C_16  and  C_17
REMARK   12  A    between atoms: C_17  and  O_18
REMARK   13  A    between atoms: O_18  and  C_19
REMARK                            x       y       z     vdW  Elec       q    Type
REMARK                         _______ _______ _______ _____ _____    ______ ____
ROOT
ATOM      1  C   UNL     1       0.997   9.131  19.299  0.00  0.00    +0.000 C 
ATOM      2  C   UNL     1       0.832  10.578  19.859  0.00  0.00    +0.000 C 
ATOM      3  C   UNL     1       0.274  10.567  21.287  0.00  0.00    +0.000 C 
ATOM      4  C   UNL     1       1.151   9.698  22.193  0.00  0.00    +0.000 C 
ATOM      5  C   UNL     1       1.319   8.310  21.573  0.00  0.00    +0.000 C 
ATOM      6  N   UNL     1       1.895   8.343  20.212  0.00  0.00    +0.000 NA
ENDROOT
BRANCH   2   7
ATOM      7  O   UNL     1      -0.015  11.371  19.014  0.00  0.00    +0.000 OA
ATOM      8  H   UNL     1       0.552  11.912  18.435  0.00  0.00    +0.000 HD
ENDBRANCH   2   7
BRANCH   3   9
ATOM      9  O   UNL     1       0.186  11.899  21.812  0.00  0.00    +0.000 OA
ATOM     10  H   UNL     1      -0.650  11.978  22.306  0.00  0.00    +0.000 HD
ENDBRANCH   3   9
BRANCH   4  11
ATOM     11  O   UNL     1       0.581   9.564  23.502  0.00  0.00    +0.000 OA
ATOM     12  H   UNL     1       1.281   9.290  24.118  0.00  0.00    +0.000 HD
ENDBRANCH   4  11
BRANCH   1  13
ATOM     13  C   UNL     1       1.462   9.266  17.820  0.00  0.00    +0.000 C 
BRANCH  13  14
ATOM     14  O   UNL     1       2.176  10.476  17.575  0.00  0.00    +0.000 OA
ATOM     15  H   UNL     1       3.111  10.224  17.482  0.00  0.00    +0.000 HD
ENDBRANCH  13  14
ENDBRANCH   1  13
BRANCH   6  16
ATOM     16  C   UNL     1       2.159   6.966  19.726  0.00  0.00    +0.000 C 
BRANCH  16  17
ATOM     17  C   UNL     1       1.834   5.873  20.768  0.00  0.00    +0.000 C 
BRANCH  17  18
ATOM     18  C   UNL     1       1.101   4.667  20.172  0.00  0.00    +0.000 C 
BRANCH  18  19
ATOM     19  C   UNL     1       2.064   3.833  19.315  0.00  0.00    +0.000 C 
BRANCH  19  20
ATOM     20  C   UNL     1       3.351   3.486  20.057  0.00  0.00    +0.000 C 
BRANCH  20  21
ATOM     21  C   UNL     1       4.522   3.273  19.095  0.00  0.00    +0.000 C 
BRANCH  21  22
ATOM     22  O   UNL     1       4.966   4.556  18.654  0.00  0.00    +0.000 OA
BRANCH  22  23
ATOM     23  C   UNL     1       5.545   4.625  17.421  0.00  0.00    +0.000 A 
ATOM     24  C   UNL     1       5.201   3.891  16.292  0.00  0.00    +0.000 A 
ATOM     25  C   UNL     1       5.898   4.085  15.099  0.00  0.00    +0.000 A 
ATOM     26  C   UNL     1       6.926   5.014  15.077  0.00  0.00    +0.000 A 
ATOM     27  N   UNL     1       7.294   5.745  16.149  0.00  0.00    +0.000 NA
ATOM     28  C   UNL     1       6.596   5.532  17.289  0.00  0.00    +0.000 A 
ENDBRANCH  22  23
ENDBRANCH  21  22
ENDBRANCH  20  21
ENDBRANCH  19  20
ENDBRANCH  18  19
ENDBRANCH  17  18
ENDBRANCH  16  17
ENDBRANCH   6  16
TORSDOF 13
ENDMDL
MODEL 9
REMARK VINA RESULT:      -5.8      5.252      7.707
REMARK  Name = 
REMARK  13 active torsions:
REMARK  status: ('A' for Active; 'I' for Inactive)
REMARK    1  A    between atoms: O_1  and  C_2
REMARK    2  A    between atoms: C_2  and  C_3
REMARK    3  A    between atoms: C_4  and  O_5
REMARK    4  A    between atoms: C_6  and  O_7
REMARK    5  A    between atoms: C_8  and  O_9
REMARK    6  A    between atoms: N_11  and  C_12
REMARK    7  A    between atoms: C_12  and  C_13
REMARK    8  A    between atoms: C_13  and  C_14
REMARK    9  A    between atoms: C_14  and  C_15
REMARK   10  A    between atoms: C_15  and  C_16
REMARK   11  A    between atoms: C_16  and  C_17
REMARK   12  A    between atoms: C_17  and  O_18
REMARK   13  A    between atoms: O_18  and  C_19
REMARK                            x       y       z     vdW  Elec       q    Type
REMARK                         _______ _______ _______ _____ _____    ______ ____
ROOT
ATOM      1  C   UNL     1       4.757   4.326  17.456  0.00  0.00    +0.000 C 
ATOM      2  C   UNL     1       3.696   3.310  17.982  0.00  0.00    +0.000 C 
ATOM      3  C   UNL     1       3.342   3.578  19.449  0.00  0.00    +0.000 C 
ATOM      4  C   UNL     1       2.885   5.029  19.628  0.00  0.00    +0.000 C 
ATOM      5  C   UNL     1       3.937   5.978  19.052  0.00  0.00    +0.000 C 
ATOM      6  N   UNL     1       4.234   5.726  17.626  0.00  0.00    +0.000 NA
ENDROOT
BRANCH   2   7
ATOM      7  O   UNL     1       4.152   1.957  17.833  0.00  0.00    +0.000 OA
ATOM      8  H   UNL     1       5.104   1.931  18.033  0.00  0.00    +0.000 HD
ENDBRANCH   2   7
BRANCH   3   9
ATOM      9  O   UNL     1       2.322   2.677  19.901  0.00  0.00    +0.000 OA
ATOM     10  H   UNL     1       2.070   2.931  20.808  0.00  0.00    +0.000 HD
ENDBRANCH   3   9
BRANCH   4  11
ATOM     11  O   UNL     1       2.671   5.344  21.010  0.00  0.00    +0.000 OA
ATOM     12  H   UNL     1       1.989   6.033  21.069  0.00  0.00    +0.000 HD
ENDBRANCH   4  11
BRANCH   1  13
ATOM     13  C   UNL     1       5.119   3.895  16.004  0.00  0.00    +0.000 C 
BRANCH  13  14
ATOM     14  O   UNL     1       6.510   3.625  15.841  0.00  0.00    +0.000 OA
ATOM     15  H   UNL     1       6.748   2.997  16.545  0.00  0.00    +0.000 HD
ENDBRANCH  13  14
ENDBRANCH   1  13
BRANCH   6  16
ATOM     16  C   UNL     1       5.155   6.762  17.096  0.00  0.00    +0.000 C 
BRANCH  16  17
ATOM     17  C   UNL     1       6.554   6.734  17.751  0.00  0.00    +0.000 C 
BRANCH  17  18
ATOM     18  C   UNL     1       7.453   7.892  17.306  0.00  0.00    +0.000 C 
BRANCH  18  19
ATOM     19  C   UNL     1       8.331   8.361  18.475  0.00  0.00    +0.000 C 
BRANCH  19  20
ATOM     20  C   UNL     1       8.875   9.771  18.264  0.00  0.00    +0.000 C 
BRANCH  20  21
ATOM     21  C   UNL     1       9.299  10.419  19.584  0.00  0.00    +0.000 C 
BRANCH  21  22
ATOM     22  O   UNL     1      10.586  11.007  19.389  0.00  0.00    +0.000 OA
BRANCH  22  23
ATOM     23  C   UNL     1      10.638  12.172  18.683  0.00  0.00    +0.000 A 
ATOM     24  C   UNL     1      11.324  12.402  17.496  0.00  0.00    +0.000 A 
ATOM     25  C   UNL     1      11.271  13.661  16.896  0.00  0.00    +0.000 A 
ATOM     26  C   UNL     1      10.528  14.656  17.511  0.00  0.00    +0.000 A 
ATOM     27  N   UNL     1       9.849  14.476  18.662  0.00  0.00    +0.000 NA
ATOM     28  C   UNL     1       9.921  13.242  19.216  0.00  0.00    +0.000 A 
ENDBRANCH  22  23
ENDBRANCH  21  22
ENDBRANCH  20  21
ENDBRANCH  19  20
ENDBRANCH  18  19
ENDBRANCH  17  18
ENDBRANCH  16  17
ENDBRANCH   6  16
TORSDOF 13
ENDMDL
