MODEL 1
REMARK VINA RESULT:      -8.0      0.000      0.000
REMARK  Name = 
REMARK  10 active torsions:
REMARK  status: ('A' for Active; 'I' for Inactive)
REMARK    1  A    between atoms: C_1  and  C_2
REMARK    2  A    between atoms: C_2  and  C_3
REMARK    3  A    between atoms: C_2  and  C_4
REMARK    4  A    between atoms: C_2  and  N_5
REMARK    5  A    between atoms: C_6  and  C_8
REMARK    6  A    between atoms: N_11  and  C_12
REMARK    7  A    between atoms: C_12  and  C_13
REMARK    8  A    between atoms: C_17  and  N_18
REMARK    9  A    between atoms: C_19  and  C_21
REMARK   10  A    between atoms: C_21  and  C_22
REMARK                            x       y       z     vdW  Elec       q    Type
REMARK                         _______ _______ _______ _____ _____    ______ ____
ROOT
ATOM      1  C   UNL     1       1.901   6.386  20.372  0.00  0.00    +0.000 A 
ATOM      2  C   UNL     1       1.313   5.115  20.364  0.00  0.00    +0.000 A 
ATOM      3  C   UNL     1       1.943   4.057  19.711  0.00  0.00    +0.000 A 
ATOM      4  C   UNL     1       3.156   4.259  19.049  0.00  0.00    +0.000 A 
ATOM      5  C   UNL     1       3.760   5.518  19.042  0.00  0.00    +0.000 A 
ATOM      6  C   UNL     1       3.139   6.569  19.728  0.00  0.00    +0.000 A 
ENDROOT
BRANCH   5   7
ATOM      7  N   UNL     1       4.936   5.816  18.325  0.00  0.00    +0.000 N 
ATOM      8  C   UNL     1       6.208   5.333  18.579  0.00  0.00    +0.000 C 
ATOM      9  O   UNL     1       6.554   4.666  19.552  0.00  0.00    +0.000 OA
ATOM     10  H   UNL     1       4.822   6.420  17.520  0.00  0.00    +0.000 HD
BRANCH   8  11
ATOM     11  C   UNL     1       7.227   5.677  17.512  0.00  0.00    +0.000 C 
BRANCH  11  12
ATOM     12  C   UNL     1       6.875   5.096  16.172  0.00  0.00    +0.000 A 
ATOM     13  C   UNL     1       5.943   4.067  16.039  0.00  0.00    +0.000 A 
ATOM     14  N   UNL     1       5.663   3.477  14.852  0.00  0.00    +0.000 NA
ATOM     15  C   UNL     1       6.354   3.949  13.793  0.00  0.00    +0.000 A 
ATOM     16  C   UNL     1       7.277   4.972  13.911  0.00  0.00    +0.000 A 
ATOM     17  N   UNL     1       7.558   5.567  15.094  0.00  0.00    +0.000 NA
ENDBRANCH  11  12
ENDBRANCH   8  11
ENDBRANCH   5   7
BRANCH   1  18
ATOM     18  C   UNL     1       1.190   7.559  21.022  0.00  0.00    +0.000 C 
BRANCH  18  22
ATOM     19  C   UNL     1       0.506  11.206  18.813  0.00  0.00    +0.000 C 
ATOM     20  C   UNL     1       1.337  10.088  18.172  0.00  0.00    +0.000 C 
ATOM     21  C   UNL     1       1.182   8.748  18.903  0.00  0.00    +0.000 C 
ATOM     22  N   UNL     1       1.457   8.854  20.349  0.00  0.00    +0.000 NA
ATOM     23  C   UNL     1       0.637   9.904  20.975  0.00  0.00    +0.000 C 
ATOM     24  C   UNL     1       0.848  11.266  20.304  0.00  0.00    +0.000 C 
BRANCH  19  26
ATOM     25  N   UNL     1      -1.323  10.414  17.378  0.00  0.00    +0.000 N 
ATOM     26  C   UNL     1      -0.995  10.991  18.589  0.00  0.00    +0.000 C 
ATOM     27  O   UNL     1      -1.834  11.326  19.421  0.00  0.00    +0.000 OA
ATOM     28  H   UNL     1      -0.582  10.007  16.824  0.00  0.00    +0.000 HD
BRANCH  25  30
ATOM     29  C   UNL     1      -3.490   9.291  17.767  0.00  0.00    +0.000 C 
ATOM     30  C   UNL     1      -2.708  10.283  16.887  0.00  0.00    +0.000 C 
ATOM     31  C   UNL     1      -2.747   9.834  15.418  0.00  0.00    +0.000 C 
ATOM     32  C   UNL     1      -3.411  11.652  16.985  0.00  0.00    +0.000 C 
ENDBRANCH  25  30
ENDBRANCH  19  26
ENDBRANCH  18  22
ENDBRANCH   1  18
TORSDOF 7
ENDMDL
MODEL 2
REMARK VINA RESULT:      -8.0      0.597      1.254
REMARK  Name = 
REMARK  10 active torsions:
REMARK  status: ('A' for Active; 'I' for Inactive)
REMARK    1  A    between atoms: C_1  and  C_2
REMARK    2  A    between atoms: C_2  and  C_3
REMARK    3  A    between atoms: C_2  and  C_4
REMARK    4  A    between atoms: C_2  and  N_5
REMARK    5  A    between atoms: C_6  and  C_8
REMARK    6  A    between atoms: N_11  and  C_12
REMARK    7  A    between atoms: C_12  and  C_13
REMARK    8  A    between atoms: C_17  and  N_18
REMARK    9  A    between atoms: C_19  and  C_21
REMARK   10  A    between atoms: C_21  and  C_22
REMARK                            x       y       z     vdW  Elec       q    Type
REMARK                         _______ _______ _______ _____ _____    ______ ____
ROOT
ATOM      1  C   UNL     1       1.904   6.339  20.453  0.00  0.00    +0.000 A 
ATOM      2  C   UNL     1       1.354   5.051  20.487  0.00  0.00    +0.000 A 
ATOM      3  C   UNL     1       2.012   3.994  19.863  0.00  0.00    +0.000 A 
ATOM      4  C   UNL     1       3.217   4.211  19.190  0.00  0.00    +0.000 A 
ATOM      5  C   UNL     1       3.783   5.486  19.142  0.00  0.00    +0.000 A 
ATOM      6  C   UNL     1       3.133   6.538  19.799  0.00  0.00    +0.000 A 
ENDROOT
BRANCH   5   7
ATOM      7  N   UNL     1       4.947   5.796  18.412  0.00  0.00    +0.000 N 
ATOM      8  C   UNL     1       6.255   5.539  18.784  0.00  0.00    +0.000 C 
ATOM      9  O   UNL     1       6.632   5.115  19.875  0.00  0.00    +0.000 OA
ATOM     10  H   UNL     1       4.799   6.221  17.504  0.00  0.00    +0.000 HD
BRANCH   8  11
ATOM     11  C   UNL     1       7.274   5.809  17.696  0.00  0.00    +0.000 C 
BRANCH  11  12
ATOM     12  C   UNL     1       6.944   5.106  16.411  0.00  0.00    +0.000 A 
ATOM     13  C   UNL     1       7.383   5.586  15.177  0.00  0.00    +0.000 A 
ATOM     14  N   UNL     1       7.038   5.013  13.999  0.00  0.00    +0.000 NA
ATOM     15  C   UNL     1       6.228   3.938  14.094  0.00  0.00    +0.000 A 
ATOM     16  C   UNL     1       5.788   3.450  15.311  0.00  0.00    +0.000 A 
ATOM     17  N   UNL     1       6.133   4.018  16.491  0.00  0.00    +0.000 NA
ENDBRANCH  11  12
ENDBRANCH   8  11
ENDBRANCH   5   7
BRANCH   1  18
ATOM     18  C   UNL     1       1.161   7.509  21.071  0.00  0.00    +0.000 C 
BRANCH  18  22
ATOM     19  C   UNL     1       0.614  11.257  18.995  0.00  0.00    +0.000 C 
ATOM     20  C   UNL     1       1.369  10.118  18.298  0.00  0.00    +0.000 C 
ATOM     21  C   UNL     1       1.162   8.766  18.992  0.00  0.00    +0.000 C 
ATOM     22  N   UNL     1       1.479   8.810  20.431  0.00  0.00    +0.000 NA
ATOM     23  C   UNL     1       0.731   9.881  21.112  0.00  0.00    +0.000 C 
ATOM     24  C   UNL     1       0.996  11.251  20.478  0.00  0.00    +0.000 C 
BRANCH  19  26
ATOM     25  N   UNL     1      -1.293  10.692  17.553  0.00  0.00    +0.000 N 
ATOM     26  C   UNL     1      -0.900  11.127  18.805  0.00  0.00    +0.000 C 
ATOM     27  O   UNL     1      -1.698  11.407  19.696  0.00  0.00    +0.000 OA
ATOM     28  H   UNL     1      -0.587  10.316  16.935  0.00  0.00    +0.000 HD
BRANCH  25  30
ATOM     29  C   UNL     1      -2.758  10.715  15.564  0.00  0.00    +0.000 C 
ATOM     30  C   UNL     1      -2.697  10.669  17.102  0.00  0.00    +0.000 C 
ATOM     31  C   UNL     1      -3.503  11.831  17.702  0.00  0.00    +0.000 C 
ATOM     32  C   UNL     1      -3.352   9.349  17.557  0.00  0.00    +0.000 C 
ENDBRANCH  25  30
ENDBRANCH  19  26
ENDBRANCH  18  22
ENDBRANCH   1  18
TORSDOF 7
ENDMDL
MODEL 3
REMARK VINA RESULT:      -7.9      2.167      9.077
REMARK  Name = 
REMARK  10 active torsions:
REMARK  status: ('A' for Active; 'I' for Inactive)
REMARK    1  A    between atoms: C_1  and  C_2
REMARK    2  A    between atoms: C_2  and  C_3
REMARK    3  A    between atoms: C_2  and  C_4
REMARK    4  A    between atoms: C_2  and  N_5
REMARK    5  A    between atoms: C_6  and  C_8
REMARK    6  A    between atoms: N_11  and  C_12
REMARK    7  A    between atoms: C_12  and  C_13
REMARK    8  A    between atoms: C_17  and  N_18
REMARK    9  A    between atoms: C_19  and  C_21
REMARK   10  A    between atoms: C_21  and  C_22
REMARK                            x       y       z     vdW  Elec       q    Type
REMARK                         _______ _______ _______ _____ _____    ______ ____
ROOT
ATOM      1  C   UNL     1       2.923   6.833  18.635  0.00  0.00    +0.000 A 
ATOM      2  C   UNL     1       2.838   5.662  19.399  0.00  0.00    +0.000 A 
ATOM      3  C   UNL     1       2.026   5.623  20.530  0.00  0.00    +0.000 A 
ATOM      4  C   UNL     1       1.301   6.753  20.917  0.00  0.00    +0.000 A 
ATOM      5  C   UNL     1       1.371   7.931  20.171  0.00  0.00    +0.000 A 
ATOM      6  C   UNL     1       2.164   7.953  19.018  0.00  0.00    +0.000 A 
ENDROOT
BRANCH   5   7
ATOM      7  N   UNL     1       0.738   9.132  20.548  0.00  0.00    +0.000 N 
ATOM      8  C   UNL     1       0.962   9.863  21.702  0.00  0.00    +0.000 C 
ATOM      9  O   UNL     1       1.656   9.522  22.657  0.00  0.00    +0.000 OA
ATOM     10  H   UNL     1       0.075   9.509  19.881  0.00  0.00    +0.000 HD
BRANCH   8  11
ATOM     11  C   UNL     1       0.272  11.212  21.725  0.00  0.00    +0.000 C 
BRANCH  11  12
ATOM     12  C   UNL     1      -0.147  11.667  20.356  0.00  0.00    +0.000 A 
ATOM     13  C   UNL     1       0.553  12.654  19.664  0.00  0.00    +0.000 A 
ATOM     14  N   UNL     1       0.154  13.134  18.461  0.00  0.00    +0.000 NA
ATOM     15  C   UNL     1      -0.982  12.595  17.971  0.00  0.00    +0.000 A 
ATOM     16  C   UNL     1      -1.684  11.613  18.646  0.00  0.00    +0.000 A 
ATOM     17  N   UNL     1      -1.287  11.128  19.846  0.00  0.00    +0.000 NA
ENDBRANCH  11  12
ENDBRANCH   8  11
ENDBRANCH   5   7
BRANCH   1  18
ATOM     18  C   UNL     1       3.857   6.906  17.441  0.00  0.00    +0.000 C 
BRANCH  18  22
ATOM     19  C   UNL     1       6.865   4.140  16.044  0.00  0.00    +0.000 C 
ATOM     20  C   UNL     1       5.573   3.590  16.661  0.00  0.00    +0.000 C 
ATOM     21  C   UNL     1       4.473   4.655  16.763  0.00  0.00    +0.000 C 
ATOM     22  N   UNL     1       4.922   5.872  17.464  0.00  0.00    +0.000 NA
ATOM     23  C   UNL     1       6.145   6.422  16.854  0.00  0.00    +0.000 C 
ATOM     24  C   UNL     1       7.278   5.391  16.824  0.00  0.00    +0.000 C 
BRANCH  19  26
ATOM     25  N   UNL     1       6.238   3.377  13.795  0.00  0.00    +0.000 N 
ATOM     26  C   UNL     1       6.693   4.439  14.551  0.00  0.00    +0.000 C 
ATOM     27  O   UNL     1       6.959   5.538  14.071  0.00  0.00    +0.000 OA
ATOM     28  H   UNL     1       5.876   2.566  14.278  0.00  0.00    +0.000 HD
BRANCH  25  30
ATOM     29  C   UNL     1       4.760   3.793  11.859  0.00  0.00    +0.000 C 
ATOM     30  C   UNL     1       6.173   3.394  12.321  0.00  0.00    +0.000 C 
ATOM     31  C   UNL     1       6.565   2.034  11.722  0.00  0.00    +0.000 C 
ATOM     32  C   UNL     1       7.158   4.452  11.785  0.00  0.00    +0.000 C 
ENDBRANCH  25  30
ENDBRANCH  19  26
ENDBRANCH  18  22
ENDBRANCH   1  18
TORSDOF 7
ENDMDL
MODEL 4
REMARK VINA RESULT:      -7.9      1.920      8.931
REMARK  Name = 
REMARK  10 active torsions:
REMARK  status: ('A' for Active; 'I' for Inactive)
REMARK    1  A    between atoms: C_1  and  C_2
REMARK    2  A    between atoms: C_2  and  C_3
REMARK    3  A    between atoms: C_2  and  C_4
REMARK    4  A    between atoms: C_2  and  N_5
REMARK    5  A    between atoms: C_6  and  C_8
REMARK    6  A    between atoms: N_11  and  C_12
REMARK    7  A    between atoms: C_12  and  C_13
REMARK    8  A    between atoms: C_17  and  N_18
REMARK    9  A    between atoms: C_19  and  C_21
REMARK   10  A    between atoms: C_21  and  C_22
REMARK                            x       y       z     vdW  Elec       q    Type
REMARK                         _______ _______ _______ _____ _____    ______ ____
ROOT
ATOM      1  C   UNL     1       2.168   6.914  19.851  0.00  0.00    +0.000 A 
ATOM      2  C   UNL     1       2.866   6.963  18.638  0.00  0.00    +0.000 A 
ATOM      3  C   UNL     1       2.745   8.074  17.806  0.00  0.00    +0.000 A 
ATOM      4  C   UNL     1       1.920   9.141  18.170  0.00  0.00    +0.000 A 
ATOM      5  C   UNL     1       1.214   9.114  19.374  0.00  0.00    +0.000 A 
ATOM      6  C   UNL     1       1.365   8.009  20.220  0.00  0.00    +0.000 A 
ENDROOT
BRANCH   5   7
ATOM      7  N   UNL     1       0.299  10.112  19.765  0.00  0.00    +0.000 N 
ATOM      8  C   UNL     1       0.543  11.471  19.860  0.00  0.00    +0.000 C 
ATOM      9  O   UNL     1       1.634  12.026  19.747  0.00  0.00    +0.000 OA
ATOM     10  H   UNL     1      -0.643   9.794  19.962  0.00  0.00    +0.000 HD
BRANCH   8  11
ATOM     11  C   UNL     1      -0.696  12.307  20.113  0.00  0.00    +0.000 C 
BRANCH  11  12
ATOM     12  C   UNL     1      -1.793  12.023  19.127  0.00  0.00    +0.000 A 
ATOM     13  C   UNL     1      -3.139  12.150  19.468  0.00  0.00    +0.000 A 
ATOM     14  N   UNL     1      -4.147  11.830  18.621  0.00  0.00    +0.000 NA
ATOM     15  C   UNL     1      -3.762  11.368  17.412  0.00  0.00    +0.000 A 
ATOM     16  C   UNL     1      -2.431  11.241  17.060  0.00  0.00    +0.000 A 
ATOM     17  N   UNL     1      -1.420  11.563  17.902  0.00  0.00    +0.000 NA
ENDBRANCH  11  12
ENDBRANCH   8  11
ENDBRANCH   5   7
BRANCH   1  18
ATOM     18  C   UNL     1       2.240   5.680  20.731  0.00  0.00    +0.000 C 
BRANCH  18  22
ATOM     19  C   UNL     1       3.389   2.808  17.716  0.00  0.00    +0.000 C 
ATOM     20  C   UNL     1       1.964   3.375  17.705  0.00  0.00    +0.000 C 
ATOM     21  C   UNL     1       1.823   4.627  18.581  0.00  0.00    +0.000 C 
ATOM     22  N   UNL     1       2.300   4.413  19.960  0.00  0.00    +0.000 NA
ATOM     23  C   UNL     1       3.680   3.900  19.977  0.00  0.00    +0.000 C 
ATOM     24  C   UNL     1       3.814   2.602  19.172  0.00  0.00    +0.000 C 
BRANCH  19  26
ATOM     25  N   UNL     1       5.612   3.840  17.553  0.00  0.00    +0.000 N 
ATOM     26  C   UNL     1       4.365   3.725  16.971  0.00  0.00    +0.000 C 
ATOM     27  O   UNL     1       4.047   4.321  15.945  0.00  0.00    +0.000 OA
ATOM     28  H   UNL     1       5.859   3.192  18.288  0.00  0.00    +0.000 HD
BRANCH  25  30
ATOM     29  C   UNL     1       7.893   4.687  17.984  0.00  0.00    +0.000 C 
ATOM     30  C   UNL     1       6.636   4.802  17.103  0.00  0.00    +0.000 C 
ATOM     31  C   UNL     1       6.104   6.243  17.120  0.00  0.00    +0.000 C 
ATOM     32  C   UNL     1       7.045   4.464  15.655  0.00  0.00    +0.000 C 
ENDBRANCH  25  30
ENDBRANCH  19  26
ENDBRANCH  18  22
ENDBRANCH   1  18
TORSDOF 7
ENDMDL
MODEL 5
REMARK VINA RESULT:      -7.9      2.780      8.811
REMARK  Name = 
REMARK  10 active torsions:
REMARK  status: ('A' for Active; 'I' for Inactive)
REMARK    1  A    between atoms: C_1  and  C_2
REMARK    2  A    between atoms: C_2  and  C_3
REMARK    3  A    between atoms: C_2  and  C_4
REMARK    4  A    between atoms: C_2  and  N_5
REMARK    5  A    between atoms: C_6  and  C_8
REMARK    6  A    between atoms: N_11  and  C_12
REMARK    7  A    between atoms: C_12  and  C_13
REMARK    8  A    between atoms: C_17  and  N_18
REMARK    9  A    between atoms: C_19  and  C_21
REMARK   10  A    between atoms: C_21  and  C_22
REMARK                            x       y       z     vdW  Elec       q    Type
REMARK                         _______ _______ _______ _____ _____    ______ ____
ROOT
ATOM      1  C   UNL     1       1.953   6.079  20.340  0.00  0.00    +0.000 A 
ATOM      2  C   UNL     1       2.650   6.195  19.131  0.00  0.00    +0.000 A 
ATOM      3  C   UNL     1       2.663   7.407  18.445  0.00  0.00    +0.000 A 
ATOM      4  C   UNL     1       1.972   8.512  18.950  0.00  0.00    +0.000 A 
ATOM      5  C   UNL     1       1.269   8.419  20.153  0.00  0.00    +0.000 A 
ATOM      6  C   UNL     1       1.287   7.207  20.854  0.00  0.00    +0.000 A 
ENDROOT
BRANCH   5   7
ATOM      7  N   UNL     1       0.482   9.462  20.678  0.00  0.00    +0.000 N 
ATOM      8  C   UNL     1       0.479   9.925  21.983  0.00  0.00    +0.000 C 
ATOM      9  O   UNL     1       1.067   9.420  22.937  0.00  0.00    +0.000 OA
ATOM     10  H   UNL     1      -0.118   9.940  20.015  0.00  0.00    +0.000 HD
BRANCH   8  11
ATOM     11  C   UNL     1      -0.330  11.189  22.190  0.00  0.00    +0.000 C 
BRANCH  11  12
ATOM     12  C   UNL     1       0.022  12.266  21.205  0.00  0.00    +0.000 A 
ATOM     13  C   UNL     1      -0.952  12.910  20.441  0.00  0.00    +0.000 A 
ATOM     14  N   UNL     1      -0.654  13.832  19.494  0.00  0.00    +0.000 NA
ATOM     15  C   UNL     1       0.661  14.088  19.328  0.00  0.00    +0.000 A 
ATOM     16  C   UNL     1       1.636  13.459  20.081  0.00  0.00    +0.000 A 
ATOM     17  N   UNL     1       1.343  12.540  21.031  0.00  0.00    +0.000 NA
ENDBRANCH  11  12
ENDBRANCH   8  11
ENDBRANCH   5   7
BRANCH   1  18
ATOM     18  C   UNL     1       1.877   4.745  21.060  0.00  0.00    +0.000 C 
BRANCH  18  22
ATOM     19  C   UNL     1       3.486   2.416  17.798  0.00  0.00    +0.000 C 
ATOM     20  C   UNL     1       1.982   2.711  17.835  0.00  0.00    +0.000 C 
ATOM     21  C   UNL     1       1.628   3.832  18.822  0.00  0.00    +0.000 C 
ATOM     22  N   UNL     1       2.155   3.585  20.177  0.00  0.00    +0.000 NA
ATOM     23  C   UNL     1       3.606   3.334  20.150  0.00  0.00    +0.000 C 
ATOM     24  C   UNL     1       3.962   2.160  19.230  0.00  0.00    +0.000 C 
BRANCH  19  26
ATOM     25  N   UNL     1       5.607   3.613  17.477  0.00  0.00    +0.000 N 
ATOM     26  C   UNL     1       4.268   3.559  17.142  0.00  0.00    +0.000 C 
ATOM     27  O   UNL     1       3.732   4.370  16.391  0.00  0.00    +0.000 OA
ATOM     28  H   UNL     1       6.014   2.819  17.953  0.00  0.00    +0.000 HD
BRANCH  25  30
ATOM     29  C   UNL     1       5.853   6.071  17.493  0.00  0.00    +0.000 C 
ATOM     30  C   UNL     1       6.497   4.729  17.102  0.00  0.00    +0.000 C 
ATOM     31  C   UNL     1       6.824   4.712  15.601  0.00  0.00    +0.000 C 
ATOM     32  C   UNL     1       7.822   4.601  17.880  0.00  0.00    +0.000 C 
ENDBRANCH  25  30
ENDBRANCH  19  26
ENDBRANCH  18  22
ENDBRANCH   1  18
TORSDOF 7
ENDMDL
MODEL 6
REMARK VINA RESULT:      -7.8      2.372      8.744
REMARK  Name = 
REMARK  10 active torsions:
REMARK  status: ('A' for Active; 'I' for Inactive)
REMARK    1  A    between atoms: C_1  and  C_2
REMARK    2  A    between atoms: C_2  and  C_3
REMARK    3  A    between atoms: C_2  and  C_4
REMARK    4  A    between atoms: C_2  and  N_5
REMARK    5  A    between atoms: C_6  and  C_8
REMARK    6  A    between atoms: N_11  and  C_12
REMARK    7  A    between atoms: C_12  and  C_13
REMARK    8  A    between atoms: C_17  and  N_18
REMARK    9  A    between atoms: C_19  and  C_21
REMARK   10  A    between atoms: C_21  and  C_22
REMARK                            x       y       z     vdW  Elec       q    Type
REMARK                         _______ _______ _______ _____ _____    ______ ____
ROOT
ATOM      1  C   UNL     1       2.128   5.980  20.391  0.00  0.00    +0.000 A 
ATOM      2  C   UNL     1       2.812   6.031  19.169  0.00  0.00    +0.000 A 
ATOM      3  C   UNL     1       2.786   7.193  18.401  0.00  0.00    +0.000 A 
ATOM      4  C   UNL     1       2.069   8.311  18.837  0.00  0.00    +0.000 A 
ATOM      5  C   UNL     1       1.378   8.282  20.050  0.00  0.00    +0.000 A 
ATOM      6  C   UNL     1       1.436   7.123  20.832  0.00  0.00    +0.000 A 
ENDROOT
BRANCH   5   7
ATOM      7  N   UNL     1       0.566   9.338  20.510  0.00  0.00    +0.000 N 
ATOM      8  C   UNL     1       0.654   9.981  21.733  0.00  0.00    +0.000 C 
ATOM      9  O   UNL     1       1.369   9.656  22.678  0.00  0.00    +0.000 OA
ATOM     10  H   UNL     1      -0.130   9.677  19.857  0.00  0.00    +0.000 HD
BRANCH   8  11
ATOM     11  C   UNL     1      -0.227  11.208  21.852  0.00  0.00    +0.000 C 
BRANCH  11  12
ATOM     12  C   UNL     1      -0.190  12.066  20.620  0.00  0.00    +0.000 A 
ATOM     13  C   UNL     1       0.598  13.214  20.547  0.00  0.00    +0.000 A 
ATOM     14  N   UNL     1       0.592  14.044  19.476  0.00  0.00    +0.000 NA
ATOM     15  C   UNL     1      -0.237  13.688  18.473  0.00  0.00    +0.000 A 
ATOM     16  C   UNL     1      -1.021  12.550  18.531  0.00  0.00    +0.000 A 
ATOM     17  N   UNL     1      -1.016  11.716  19.598  0.00  0.00    +0.000 NA
ENDBRANCH  11  12
ENDBRANCH   8  11
ENDBRANCH   5   7
BRANCH   1  18
ATOM     18  C   UNL     1       2.094   4.698  21.201  0.00  0.00    +0.000 C 
BRANCH  18  22
ATOM     19  C   UNL     1       3.307   2.165  17.920  0.00  0.00    +0.000 C 
ATOM     20  C   UNL     1       1.812   2.401  18.169  0.00  0.00    +0.000 C 
ATOM     21  C   UNL     1       1.555   3.587  19.108  0.00  0.00    +0.000 C 
ATOM     22  N   UNL     1       2.296   3.478  20.379  0.00  0.00    +0.000 NA
ATOM     23  C   UNL     1       3.737   3.285  20.144  0.00  0.00    +0.000 C 
ATOM     24  C   UNL     1       4.010   2.052  19.275  0.00  0.00    +0.000 C 
BRANCH  19  26
ATOM     25  N   UNL     1       5.298   3.326  17.069  0.00  0.00    +0.000 N 
ATOM     26  C   UNL     1       3.917   3.278  17.061  0.00  0.00    +0.000 C 
ATOM     27  O   UNL     1       3.224   4.073  16.433  0.00  0.00    +0.000 OA
ATOM     28  H   UNL     1       5.802   2.542  17.462  0.00  0.00    +0.000 HD
BRANCH  25  30
ATOM     29  C   UNL     1       7.428   4.573  17.186  0.00  0.00    +0.000 C 
ATOM     30  C   UNL     1       6.079   4.419  16.461  0.00  0.00    +0.000 C 
ATOM     31  C   UNL     1       5.307   5.747  16.485  0.00  0.00    +0.000 C 
ATOM     32  C   UNL     1       6.376   4.068  14.989  0.00  0.00    +0.000 C 
ENDBRANCH  25  30
ENDBRANCH  19  26
ENDBRANCH  18  22
ENDBRANCH   1  18
TORSDOF 7
ENDMDL
MODEL 7
REMARK VINA RESULT:      -7.8      2.619      9.805
REMARK  Name = 
REMARK  10 active torsions:
REMARK  status: ('A' for Active; 'I' for Inactive)
REMARK    1  A    between atoms: C_1  and  C_2
REMARK    2  A    between atoms: C_2  and  C_3
REMARK    3  A    between atoms: C_2  and  C_4
REMARK    4  A    between atoms: C_2  and  N_5
REMARK    5  A    between atoms: C_6  and  C_8
REMARK    6  A    between atoms: N_11  and  C_12
REMARK    7  A    between atoms: C_12  and  C_13
REMARK    8  A    between atoms: C_17  and  N_18
REMARK    9  A    between atoms: C_19  and  C_21
REMARK   10  A    between atoms: C_21  and  C_22
REMARK                            x       y       z     vdW  Elec       q    Type
REMARK                         _______ _______ _______ _____ _____    ______ ____
ROOT
ATOM      1  C   UNL     1       2.841   7.230  18.395  0.00  0.00    +0.000 A 
ATOM      2  C   UNL     1       2.736   6.182  19.318  0.00  0.00    +0.000 A 
ATOM      3  C   UNL     1       1.976   6.343  20.475  0.00  0.00    +0.000 A 
ATOM      4  C   UNL     1       1.325   7.553  20.729  0.00  0.00    +0.000 A 
ATOM      5  C   UNL     1       1.418   8.612  19.824  0.00  0.00    +0.000 A 
ATOM      6  C   UNL     1       2.156   8.432  18.648  0.00  0.00    +0.000 A 
ENDROOT
BRANCH   5   7
ATOM      7  N   UNL     1       0.861   9.886  20.054  0.00  0.00    +0.000 N 
ATOM      8  C   UNL     1       0.832  10.576  21.254  0.00  0.00    +0.000 C 
ATOM      9  O   UNL     1       1.169  10.141  22.353  0.00  0.00    +0.000 OA
ATOM     10  H   UNL     1       0.475  10.352  19.241  0.00  0.00    +0.000 HD
BRANCH   8  11
ATOM     11  C   UNL     1       0.344  12.005  21.135  0.00  0.00    +0.000 C 
BRANCH  11  12
ATOM     12  C   UNL     1      -1.087  12.162  21.561  0.00  0.00    +0.000 A 
ATOM     13  C   UNL     1      -2.095  12.477  20.649  0.00  0.00    +0.000 A 
ATOM     14  N   UNL     1      -3.379  12.697  21.019  0.00  0.00    +0.000 NA
ATOM     15  C   UNL     1      -3.627  12.595  22.342  0.00  0.00    +0.000 A 
ATOM     16  C   UNL     1      -2.638  12.280  23.256  0.00  0.00    +0.000 A 
ATOM     17  N   UNL     1      -1.353  12.057  22.891  0.00  0.00    +0.000 NA
ENDBRANCH  11  12
ENDBRANCH   8  11
ENDBRANCH   5   7
BRANCH   1  18
ATOM     18  C   UNL     1       3.720   7.088  17.166  0.00  0.00    +0.000 C 
BRANCH  18  22
ATOM     19  C   UNL     1       6.749   4.206  16.083  0.00  0.00    +0.000 C 
ATOM     20  C   UNL     1       5.394   3.708  16.600  0.00  0.00    +0.000 C 
ATOM     21  C   UNL     1       4.322   4.806  16.587  0.00  0.00    +0.000 C 
ATOM     22  N   UNL     1       4.748   6.025  17.300  0.00  0.00    +0.000 NA
ATOM     23  C   UNL     1       6.033   6.526  16.784  0.00  0.00    +0.000 C 
ATOM     24  C   UNL     1       7.133   5.462  16.870  0.00  0.00    +0.000 C 
BRANCH  19  26
ATOM     25  N   UNL     1       6.184   3.453  13.815  0.00  0.00    +0.000 N 
ATOM     26  C   UNL     1       6.712   4.477  14.576  0.00  0.00    +0.000 C 
ATOM     27  O   UNL     1       7.137   5.522  14.089  0.00  0.00    +0.000 OA
ATOM     28  H   UNL     1       5.697   2.705  14.290  0.00  0.00    +0.000 HD
BRANCH  25  30
ATOM     29  C   UNL     1       6.562   2.018  11.839  0.00  0.00    +0.000 C 
ATOM     30  C   UNL     1       6.218   3.432  12.340  0.00  0.00    +0.000 C 
ATOM     31  C   UNL     1       7.222   4.453  11.783  0.00  0.00    +0.000 C 
ATOM     32  C   UNL     1       4.821   3.793  11.798  0.00  0.00    +0.000 C 
ENDBRANCH  25  30
ENDBRANCH  19  26
ENDBRANCH  18  22
ENDBRANCH   1  18
TORSDOF 7
ENDMDL
MODEL 8
REMARK VINA RESULT:      -7.7      2.482      9.851
REMARK  Name = 
REMARK  10 active torsions:
REMARK  status: ('A' for Active; 'I' for Inactive)
REMARK    1  A    between atoms: C_1  and  C_2
REMARK    2  A    between atoms: C_2  and  C_3
REMARK    3  A    between atoms: C_2  and  C_4
REMARK    4  A    between atoms: C_2  and  N_5
REMARK    5  A    between atoms: C_6  and  C_8
REMARK    6  A    between atoms: N_11  and  C_12
REMARK    7  A    between atoms: C_12  and  C_13
REMARK    8  A    between atoms: C_17  and  N_18
REMARK    9  A    between atoms: C_19  and  C_21
REMARK   10  A    between atoms: C_21  and  C_22
REMARK                            x       y       z     vdW  Elec       q    Type
REMARK                         _______ _______ _______ _____ _____    ______ ____
ROOT
ATOM      1  C   UNL     1       2.870   7.343  18.160  0.00  0.00    +0.000 A 
ATOM      2  C   UNL     1       2.769   6.404  19.195  0.00  0.00    +0.000 A 
ATOM      3  C   UNL     1       2.052   6.710  20.350  0.00  0.00    +0.000 A 
ATOM      4  C   UNL     1       1.440   7.959  20.490  0.00  0.00    +0.000 A 
ATOM      5  C   UNL     1       1.529   8.910  19.472  0.00  0.00    +0.000 A 
ATOM      6  C   UNL     1       2.223   8.584  18.301  0.00  0.00    +0.000 A 
ENDROOT
BRANCH   5   7
ATOM      7  N   UNL     1       1.012  10.217  19.578  0.00  0.00    +0.000 N 
ATOM      8  C   UNL     1      -0.294  10.614  19.351  0.00  0.00    +0.000 C 
ATOM      9  O   UNL     1      -1.198   9.920  18.890  0.00  0.00    +0.000 OA
ATOM     10  H   UNL     1       1.665  10.926  19.887  0.00  0.00    +0.000 HD
BRANCH   8  11
ATOM     11  C   UNL     1      -0.583  12.049  19.743  0.00  0.00    +0.000 C 
BRANCH  11  12
ATOM     12  C   UNL     1      -1.322  12.152  21.046  0.00  0.00    +0.000 A 
ATOM     13  C   UNL     1      -0.742  11.762  22.253  0.00  0.00    +0.000 A 
ATOM     14  N   UNL     1      -1.411  11.776  23.430  0.00  0.00    +0.000 NA
ATOM     15  C   UNL     1      -2.694  12.192  23.362  0.00  0.00    +0.000 A 
ATOM     16  C   UNL     1      -3.280  12.585  22.173  0.00  0.00    +0.000 A 
ATOM     17  N   UNL     1      -2.613  12.576  20.994  0.00  0.00    +0.000 NA
ENDBRANCH  11  12
ENDBRANCH   8  11
ENDBRANCH   5   7
BRANCH   1  18
ATOM     18  C   UNL     1       3.705   7.043  16.929  0.00  0.00    +0.000 C 
BRANCH  18  22
ATOM     19  C   UNL     1       6.871   4.215  16.136  0.00  0.00    +0.000 C 
ATOM     20  C   UNL     1       5.495   3.695  16.568  0.00  0.00    +0.000 C 
ATOM     21  C   UNL     1       4.401   4.764  16.452  0.00  0.00    +0.000 C 
ATOM     22  N   UNL     1       4.746   6.010  17.162  0.00  0.00    +0.000 NA
ATOM     23  C   UNL     1       6.052   6.532  16.726  0.00  0.00    +0.000 C 
ATOM     24  C   UNL     1       7.168   5.498  16.916  0.00  0.00    +0.000 C 
BRANCH  19  26
ATOM     25  N   UNL     1       6.173   3.578  13.869  0.00  0.00    +0.000 N 
ATOM     26  C   UNL     1       6.935   4.449  14.623  0.00  0.00    +0.000 C 
ATOM     27  O   UNL     1       7.627   5.335  14.128  0.00  0.00    +0.000 OA
ATOM     28  H   UNL     1       5.500   2.995  14.346  0.00  0.00    +0.000 HD
BRANCH  25  30
ATOM     29  C   UNL     1       4.818   3.683  11.806  0.00  0.00    +0.000 C 
ATOM     30  C   UNL     1       6.229   3.512  12.396  0.00  0.00    +0.000 C 
ATOM     31  C   UNL     1       6.852   2.194  11.912  0.00  0.00    +0.000 C 
ATOM     32  C   UNL     1       7.100   4.671  11.872  0.00  0.00    +0.000 C 
ENDBRANCH  25  30
ENDBRANCH  19  26
ENDBRANCH  18  22
ENDBRANCH   1  18
TORSDOF 7
ENDMDL
MODEL 9
REMARK VINA RESULT:      -7.7      2.700      9.312
REMARK  Name = 
REMARK  10 active torsions:
REMARK  status: ('A' for Active; 'I' for Inactive)
REMARK    1  A    between atoms: C_1  and  C_2
REMARK    2  A    between atoms: C_2  and  C_3
REMARK    3  A    between atoms: C_2  and  C_4
REMARK    4  A    between atoms: C_2  and  N_5
REMARK    5  A    between atoms: C_6  and  C_8
REMARK    6  A    between atoms: N_11  and  C_12
REMARK    7  A    between atoms: C_12  and  C_13
REMARK    8  A    between atoms: C_17  and  N_18
REMARK    9  A    between atoms: C_19  and  C_21
REMARK   10  A    between atoms: C_21  and  C_22
REMARK                            x       y       z     vdW  Elec       q    Type
REMARK                         _______ _______ _______ _____ _____    ______ ____
ROOT
ATOM      1  C   UNL     1       2.714   6.054  18.615  0.00  0.00    +0.000 A 
ATOM      2  C   UNL     1       2.415   4.779  19.112  0.00  0.00    +0.000 A 
ATOM      3  C   UNL     1       1.737   4.642  20.322  0.00  0.00    +0.000 A 
ATOM      4  C   UNL     1       1.361   5.773  21.052  0.00  0.00    +0.000 A 
ATOM      5  C   UNL     1       1.649   7.053  20.575  0.00  0.00    +0.000 A 
ATOM      6  C   UNL     1       2.301   7.184  19.344  0.00  0.00    +0.000 A 
ENDROOT
BRANCH   5   7
ATOM      7  N   UNL     1       1.377   8.233  21.296  0.00  0.00    +0.000 N 
ATOM      8  C   UNL     1       0.159   8.620  21.827  0.00  0.00    +0.000 C 
ATOM      9  O   UNL     1      -0.923   8.066  21.649  0.00  0.00    +0.000 OA
ATOM     10  H   UNL     1       2.171   8.838  21.467  0.00  0.00    +0.000 HD
BRANCH   8  11
ATOM     11  C   UNL     1       0.232   9.842  22.720  0.00  0.00    +0.000 C 
BRANCH  11  12
ATOM     12  C   UNL     1      -0.056  11.115  21.978  0.00  0.00    +0.000 A 
ATOM     13  C   UNL     1      -0.752  12.170  22.569  0.00  0.00    +0.000 A 
ATOM     14  N   UNL     1      -1.088  13.298  21.898  0.00  0.00    +0.000 NA
ATOM     15  C   UNL     1      -0.707  13.337  20.604  0.00  0.00    +0.000 A 
ATOM     16  C   UNL     1      -0.014  12.300  20.007  0.00  0.00    +0.000 A 
ATOM     17  N   UNL     1       0.327  11.172  20.674  0.00  0.00    +0.000 NA
ENDBRANCH  11  12
ENDBRANCH   8  11
ENDBRANCH   5   7
BRANCH   1  18
ATOM     18  C   UNL     1       3.511   6.212  17.333  0.00  0.00    +0.000 C 
BRANCH  18  22
ATOM     19  C   UNL     1       7.107   4.286  15.915  0.00  0.00    +0.000 C 
ATOM     20  C   UNL     1       5.994   3.430  16.533  0.00  0.00    +0.000 C 
ATOM     21  C   UNL     1       4.664   4.188  16.642  0.00  0.00    +0.000 C 
ATOM     22  N   UNL     1       4.800   5.476  17.349  0.00  0.00    +0.000 NA
ATOM     23  C   UNL     1       5.845   6.315  16.739  0.00  0.00    +0.000 C 
ATOM     24  C   UNL     1       7.199   5.597  16.700  0.00  0.00    +0.000 C 
BRANCH  19  26
ATOM     25  N   UNL     1       6.336   3.466  13.732  0.00  0.00    +0.000 N 
ATOM     26  C   UNL     1       6.861   4.540  14.425  0.00  0.00    +0.000 C 
ATOM     27  O   UNL     1       7.129   5.613  13.892  0.00  0.00    +0.000 OA
ATOM     28  H   UNL     1       5.979   2.683  14.263  0.00  0.00    +0.000 HD
BRANCH  25  30
ATOM     29  C   UNL     1       6.412   2.005  11.741  0.00  0.00    +0.000 C 
ATOM     30  C   UNL     1       6.189   3.435  12.265  0.00  0.00    +0.000 C 
ATOM     31  C   UNL     1       7.160   4.410  11.579  0.00  0.00    +0.000 C 
ATOM     32  C   UNL     1       4.753   3.852  11.892  0.00  0.00    +0.000 C 
ENDBRANCH  25  30
ENDBRANCH  19  26
ENDBRANCH  18  22
ENDBRANCH   1  18
TORSDOF 7
ENDMDL
