MODEL 1
REMARK VINA RESULT:      -7.4      0.000      0.000
REMARK  Name = 
REMARK  5 active torsions:
REMARK  status: ('A' for Active; 'I' for Inactive)
REMARK    1  A    between atoms: C_1  and  O_2
REMARK    2  A    between atoms: O_2  and  C_3
REMARK    3  A    between atoms: C_9  and  C_10
REMARK    4  A    between atoms: C_10  and  C_11
REMARK    5  A    between atoms: N_13  and  C_14
REMARK                            x       y       z     vdW  Elec       q    Type
REMARK                         _______ _______ _______ _____ _____    ______ ____
ROOT
ATOM      1  C   UNL     1       5.978   3.531  12.421  0.00  0.00    +0.000 A 
ATOM      2  C   UNL     1       7.109   4.308  12.174  0.00  0.00    +0.000 A 
ATOM      3  C   UNL     1       7.704   5.060  13.194  0.00  0.00    +0.000 A 
ATOM      4  C   UNL     1       7.129   5.005  14.466  0.00  0.00    +0.000 A 
ATOM      5  N   UNL     1       7.502   5.631  15.633  0.00  0.00    +0.000 N 
ATOM      6  C   UNL     1       6.668   5.258  16.654  0.00  0.00    +0.000 A 
ATOM      7  C   UNL     1       5.729   4.379  16.151  0.00  0.00    +0.000 A 
ATOM      8  C   UNL     1       6.001   4.233  14.751  0.00  0.00    +0.000 A 
ATOM      9  C   UNL     1       5.409   3.502  13.702  0.00  0.00    +0.000 A 
ATOM     10  H   UNL     1       8.294   6.252  15.723  0.00  0.00    +0.000 HD
ENDROOT
BRANCH   1  12
ATOM     11  C   UNL     1       3.961   3.124  11.251  0.00  0.00    +0.000 C 
ATOM     12  O   UNL     1       5.322   2.776  11.484  0.00  0.00    +0.000 OA
ENDBRANCH   1  12
BRANCH   7  13
ATOM     13  C   UNL     1       4.680   3.669  16.944  0.00  0.00    +0.000 C 
BRANCH  13  14
ATOM     14  C   UNL     1       3.554   4.549  17.464  0.00  0.00    +0.000 C 
ATOM     15  O   UNL     1       2.389   4.177  17.330  0.00  0.00    +0.000 OA
ATOM     16  N   UNL     1       3.946   5.788  17.945  0.00  0.00    +0.000 N 
ATOM     17  H   UNL     1       4.932   6.013  17.886  0.00  0.00    +0.000 HD
BRANCH  16  18
ATOM     18  C   UNL     1       3.085   6.821  18.381  0.00  0.00    +0.000 A 
ATOM     19  C   UNL     1       2.768   7.933  17.604  0.00  0.00    +0.000 A 
ATOM     20  C   UNL     1       1.963   8.919  18.152  0.00  0.00    +0.000 A 
ATOM     21  N   UNL     1       1.453   8.866  19.399  0.00  0.00    +0.000 NA
ATOM     22  C   UNL     1       1.750   7.766  20.123  0.00  0.00    +0.000 A 
ATOM     23  C   UNL     1       2.537   6.722  19.658  0.00  0.00    +0.000 A 
ENDBRANCH  16  18
ENDBRANCH  13  14
ENDBRANCH   7  13
TORSDOF 4
ENDMDL
MODEL 2
REMARK VINA RESULT:      -7.3      0.881      1.333
REMARK  Name = 
REMARK  5 active torsions:
REMARK  status: ('A' for Active; 'I' for Inactive)
REMARK    1  A    between atoms: C_1  and  O_2
REMARK    2  A    between atoms: O_2  and  C_3
REMARK    3  A    between atoms: C_9  and  C_10
REMARK    4  A    between atoms: C_10  and  C_11
REMARK    5  A    between atoms: N_13  and  C_14
REMARK                            x       y       z     vdW  Elec       q    Type
REMARK                         _______ _______ _______ _____ _____    ______ ____
ROOT
ATOM      1  C   UNL     1       5.920   3.442  12.234  0.00  0.00    +0.000 A 
ATOM      2  C   UNL     1       7.123   4.073  11.920  0.00  0.00    +0.000 A 
ATOM      3  C   UNL     1       7.787   4.868  12.863  0.00  0.00    +0.000 A 
ATOM      4  C   UNL     1       7.207   5.006  14.125  0.00  0.00    +0.000 A 
ATOM      5  N   UNL     1       7.636   5.714  15.225  0.00  0.00    +0.000 N 
ATOM      6  C   UNL     1       6.766   5.536  16.268  0.00  0.00    +0.000 A 
ATOM      7  C   UNL     1       5.747   4.705  15.849  0.00  0.00    +0.000 A 
ATOM      8  C   UNL     1       6.007   4.384  14.476  0.00  0.00    +0.000 A 
ATOM      9  C   UNL     1       5.348   3.606  13.502  0.00  0.00    +0.000 A 
ATOM     10  H   UNL     1       8.485   6.260  15.259  0.00  0.00    +0.000 HD
ENDROOT
BRANCH   1  12
ATOM     11  C   UNL     1       3.850   3.069  11.149  0.00  0.00    +0.000 C 
ATOM     12  O   UNL     1       5.195   2.660  11.373  0.00  0.00    +0.000 OA
ENDBRANCH   1  12
BRANCH   7  13
ATOM     13  C   UNL     1       4.630   4.190  16.698  0.00  0.00    +0.000 C 
BRANCH  13  14
ATOM     14  C   UNL     1       4.247   5.077  17.873  0.00  0.00    +0.000 C 
ATOM     15  O   UNL     1       4.799   4.906  18.961  0.00  0.00    +0.000 OA
ATOM     16  N   UNL     1       3.189   5.941  17.642  0.00  0.00    +0.000 N 
ATOM     17  H   UNL     1       2.747   5.893  16.732  0.00  0.00    +0.000 HD
BRANCH  16  18
ATOM     18  C   UNL     1       2.580   6.784  18.599  0.00  0.00    +0.000 A 
ATOM     19  C   UNL     1       2.183   6.349  19.862  0.00  0.00    +0.000 A 
ATOM     20  C   UNL     1       1.538   7.243  20.701  0.00  0.00    +0.000 A 
ATOM     21  N   UNL     1       1.275   8.525  20.374  0.00  0.00    +0.000 NA
ATOM     22  C   UNL     1       1.694   8.932  19.158  0.00  0.00    +0.000 A 
ATOM     23  C   UNL     1       2.357   8.115  18.253  0.00  0.00    +0.000 A 
ENDBRANCH  16  18
ENDBRANCH  13  14
ENDBRANCH   7  13
TORSDOF 4
ENDMDL
MODEL 3
REMARK VINA RESULT:      -7.3      1.242      1.332
REMARK  Name = 
REMARK  5 active torsions:
REMARK  status: ('A' for Active; 'I' for Inactive)
REMARK    1  A    between atoms: C_1  and  O_2
REMARK    2  A    between atoms: O_2  and  C_3
REMARK    3  A    between atoms: C_9  and  C_10
REMARK    4  A    between atoms: C_10  and  C_11
REMARK    5  A    between atoms: N_13  and  C_14
REMARK                            x       y       z     vdW  Elec       q    Type
REMARK                         _______ _______ _______ _____ _____    ______ ____
ROOT
ATOM      1  C   UNL     1       5.985   3.247  12.247  0.00  0.00    +0.000 A 
ATOM      2  C   UNL     1       7.056   4.048  11.855  0.00  0.00    +0.000 A 
ATOM      3  C   UNL     1       7.676   4.915  12.762  0.00  0.00    +0.000 A 
ATOM      4  C   UNL     1       7.189   4.950  14.070  0.00  0.00    +0.000 A 
ATOM      5  N   UNL     1       7.603   5.696  15.150  0.00  0.00    +0.000 N 
ATOM      6  C   UNL     1       6.857   5.379  16.254  0.00  0.00    +0.000 A 
ATOM      7  C   UNL     1       5.934   4.417  15.896  0.00  0.00    +0.000 A 
ATOM      8  C   UNL     1       6.122   4.157  14.499  0.00  0.00    +0.000 A 
ATOM      9  C   UNL     1       5.502   3.308  13.561  0.00  0.00    +0.000 A 
ATOM     10  H   UNL     1       8.366   6.358  15.130  0.00  0.00    +0.000 HD
ENDROOT
BRANCH   1  12
ATOM     11  C   UNL     1       6.010   1.195  11.067  0.00  0.00    +0.000 C 
ATOM     12  O   UNL     1       5.309   2.381  11.426  0.00  0.00    +0.000 OA
ENDBRANCH   1  12
BRANCH   7  13
ATOM     13  C   UNL     1       4.976   3.735  16.819  0.00  0.00    +0.000 C 
BRANCH  13  14
ATOM     14  C   UNL     1       4.514   4.567  18.005  0.00  0.00    +0.000 C 
ATOM     15  O   UNL     1       5.114   4.473  19.076  0.00  0.00    +0.000 OA
ATOM     16  N   UNL     1       3.345   5.284  17.805  0.00  0.00    +0.000 N 
ATOM     17  H   UNL     1       2.887   5.175  16.908  0.00  0.00    +0.000 HD
BRANCH  16  18
ATOM     18  C   UNL     1       2.658   6.042  18.780  0.00  0.00    +0.000 A 
ATOM     19  C   UNL     1       2.519   7.427  18.715  0.00  0.00    +0.000 A 
ATOM     20  C   UNL     1       1.881   8.081  19.757  0.00  0.00    +0.000 A 
ATOM     21  N   UNL     1       1.370   7.454  20.836  0.00  0.00    +0.000 NA
ATOM     22  C   UNL     1       1.492   6.111  20.864  0.00  0.00    +0.000 A 
ATOM     23  C   UNL     1       2.104   5.368  19.865  0.00  0.00    +0.000 A 
ENDBRANCH  16  18
ENDBRANCH  13  14
ENDBRANCH   7  13
TORSDOF 4
ENDMDL
MODEL 4
REMARK VINA RESULT:      -7.3      3.166      4.355
REMARK  Name = 
REMARK  5 active torsions:
REMARK  status: ('A' for Active; 'I' for Inactive)
REMARK    1  A    between atoms: C_1  and  O_2
REMARK    2  A    between atoms: O_2  and  C_3
REMARK    3  A    between atoms: C_9  and  C_10
REMARK    4  A    between atoms: C_10  and  C_11
REMARK    5  A    between atoms: N_13  and  C_14
REMARK                            x       y       z     vdW  Elec       q    Type
REMARK                         _______ _______ _______ _____ _____    ______ ____
ROOT
ATOM      1  C   UNL     1       7.073   5.971  17.889  0.00  0.00    +0.000 A 
ATOM      2  C   UNL     1       7.246   5.365  16.646  0.00  0.00    +0.000 A 
ATOM      3  C   UNL     1       6.432   4.300  16.243  0.00  0.00    +0.000 A 
ATOM      4  C   UNL     1       5.440   3.866  17.126  0.00  0.00    +0.000 A 
ATOM      5  N   UNL     1       4.513   2.859  16.991  0.00  0.00    +0.000 N 
ATOM      6  C   UNL     1       3.707   2.809  18.097  0.00  0.00    +0.000 A 
ATOM      7  C   UNL     1       4.113   3.792  18.977  0.00  0.00    +0.000 A 
ATOM      8  C   UNL     1       5.233   4.454  18.376  0.00  0.00    +0.000 A 
ATOM      9  C   UNL     1       6.081   5.511  18.765  0.00  0.00    +0.000 A 
ATOM     10  H   UNL     1       4.427   2.265  16.178  0.00  0.00    +0.000 HD
ENDROOT
BRANCH   1  12
ATOM     11  C   UNL     1       7.772   8.216  17.622  0.00  0.00    +0.000 C 
ATOM     12  O   UNL     1       7.829   7.007  18.371  0.00  0.00    +0.000 OA
ENDBRANCH   1  12
BRANCH   7  13
ATOM     13  C   UNL     1       3.452   4.136  20.273  0.00  0.00    +0.000 C 
BRANCH  13  14
ATOM     14  C   UNL     1       2.383   5.214  20.190  0.00  0.00    +0.000 C 
ATOM     15  O   UNL     1       1.200   4.884  20.113  0.00  0.00    +0.000 OA
ATOM     16  N   UNL     1       2.858   6.512  20.079  0.00  0.00    +0.000 N 
ATOM     17  H   UNL     1       3.864   6.630  20.036  0.00  0.00    +0.000 HD
BRANCH  16  18
ATOM     18  C   UNL     1       2.074   7.670  19.881  0.00  0.00    +0.000 A 
ATOM     19  C   UNL     1       1.320   8.266  20.891  0.00  0.00    +0.000 A 
ATOM     20  C   UNL     1       0.537   9.364  20.575  0.00  0.00    +0.000 A 
ATOM     21  N   UNL     1       0.463   9.905  19.342  0.00  0.00    +0.000 NA
ATOM     22  C   UNL     1       1.222   9.328  18.387  0.00  0.00    +0.000 A 
ATOM     23  C   UNL     1       2.046   8.235  18.608  0.00  0.00    +0.000 A 
ENDBRANCH  16  18
ENDBRANCH  13  14
ENDBRANCH   7  13
TORSDOF 4
ENDMDL
MODEL 5
REMARK VINA RESULT:      -7.2      2.941      4.906
REMARK  Name = 
REMARK  5 active torsions:
REMARK  status: ('A' for Active; 'I' for Inactive)
REMARK    1  A    between atoms: C_1  and  O_2
REMARK    2  A    between atoms: O_2  and  C_3
REMARK    3  A    between atoms: C_9  and  C_10
REMARK    4  A    between atoms: C_10  and  C_11
REMARK    5  A    between atoms: N_13  and  C_14
REMARK                            x       y       z     vdW  Elec       q    Type
REMARK                         _______ _______ _______ _____ _____    ______ ____
ROOT
ATOM      1  C   UNL     1       6.372   5.986  16.639  0.00  0.00    +0.000 A 
ATOM      2  C   UNL     1       6.152   4.795  15.949  0.00  0.00    +0.000 A 
ATOM      3  C   UNL     1       4.967   4.070  16.123  0.00  0.00    +0.000 A 
ATOM      4  C   UNL     1       4.014   4.579  17.007  0.00  0.00    +0.000 A 
ATOM      5  N   UNL     1       2.781   4.082  17.362  0.00  0.00    +0.000 N 
ATOM      6  C   UNL     1       2.165   4.934  18.241  0.00  0.00    +0.000 A 
ATOM      7  C   UNL     1       3.007   6.004  18.472  0.00  0.00    +0.000 A 
ATOM      8  C   UNL     1       4.198   5.771  17.710  0.00  0.00    +0.000 A 
ATOM      9  C   UNL     1       5.408   6.471  17.533  0.00  0.00    +0.000 A 
ATOM     10  H   UNL     1       2.382   3.226  17.001  0.00  0.00    +0.000 HD
ENDROOT
BRANCH   1  12
ATOM     11  C   UNL     1       7.787   7.581  17.665  0.00  0.00    +0.000 C 
ATOM     12  O   UNL     1       7.504   6.752  16.542  0.00  0.00    +0.000 OA
ENDBRANCH   1  12
BRANCH   7  13
ATOM     13  C   UNL     1       2.690   7.203  19.307  0.00  0.00    +0.000 C 
BRANCH  13  14
ATOM     14  C   UNL     1       2.031   8.354  18.564  0.00  0.00    +0.000 C 
ATOM     15  O   UNL     1       2.317   8.551  17.383  0.00  0.00    +0.000 OA
ATOM     16  N   UNL     1       1.237   9.183  19.342  0.00  0.00    +0.000 N 
ATOM     17  H   UNL     1       1.184   8.972  20.332  0.00  0.00    +0.000 HD
BRANCH  16  18
ATOM     18  C   UNL     1       0.607  10.373  18.912  0.00  0.00    +0.000 A 
ATOM     19  C   UNL     1       1.225  11.622  18.945  0.00  0.00    +0.000 A 
ATOM     20  C   UNL     1       0.495  12.734  18.560  0.00  0.00    +0.000 A 
ATOM     21  N   UNL     1      -0.786  12.685  18.140  0.00  0.00    +0.000 NA
ATOM     22  C   UNL     1      -1.354  11.462  18.090  0.00  0.00    +0.000 A 
ATOM     23  C   UNL     1      -0.702  10.290  18.444  0.00  0.00    +0.000 A 
ENDBRANCH  16  18
ENDBRANCH  13  14
ENDBRANCH   7  13
TORSDOF 4
ENDMDL
MODEL 6
REMARK VINA RESULT:      -7.2      2.812      4.068
REMARK  Name = 
REMARK  5 active torsions:
REMARK  status: ('A' for Active; 'I' for Inactive)
REMARK    1  A    between atoms: C_1  and  O_2
REMARK    2  A    between atoms: O_2  and  C_3
REMARK    3  A    between atoms: C_9  and  C_10
REMARK    4  A    between atoms: C_10  and  C_11
REMARK    5  A    between atoms: N_13  and  C_14
REMARK                            x       y       z     vdW  Elec       q    Type
REMARK                         _______ _______ _______ _____ _____    ______ ____
ROOT
ATOM      1  C   UNL     1       6.970   6.006  16.577  0.00  0.00    +0.000 A 
ATOM      2  C   UNL     1       7.001   4.989  15.624  0.00  0.00    +0.000 A 
ATOM      3  C   UNL     1       6.145   3.885  15.719  0.00  0.00    +0.000 A 
ATOM      4  C   UNL     1       5.259   3.837  16.798  0.00  0.00    +0.000 A 
ATOM      5  N   UNL     1       4.321   2.887  17.132  0.00  0.00    +0.000 N 
ATOM      6  C   UNL     1       3.646   3.269  18.261  0.00  0.00    +0.000 A 
ATOM      7  C   UNL     1       4.150   4.485  18.680  0.00  0.00    +0.000 A 
ATOM      8  C   UNL     1       5.196   4.840  17.767  0.00  0.00    +0.000 A 
ATOM      9  C   UNL     1       6.083   5.930  17.659  0.00  0.00    +0.000 A 
ATOM     10  H   UNL     1       4.143   2.046  16.601  0.00  0.00    +0.000 HD
ENDROOT
BRANCH   1  12
ATOM     11  C   UNL     1       7.699   7.941  17.727  0.00  0.00    +0.000 C 
ATOM     12  O   UNL     1       7.778   7.113  16.572  0.00  0.00    +0.000 OA
ENDBRANCH   1  12
BRANCH   7  13
ATOM     13  C   UNL     1       3.641   5.296  19.828  0.00  0.00    +0.000 C 
BRANCH  13  14
ATOM     14  C   UNL     1       2.551   6.297  19.481  0.00  0.00    +0.000 C 
ATOM     15  O   UNL     1       2.061   6.287  18.352  0.00  0.00    +0.000 OA
ATOM     16  N   UNL     1       2.286   7.246  20.456  0.00  0.00    +0.000 N 
ATOM     17  H   UNL     1       2.851   7.210  21.297  0.00  0.00    +0.000 HD
BRANCH  16  18
ATOM     18  C   UNL     1       1.400   8.340  20.334  0.00  0.00    +0.000 A 
ATOM     19  C   UNL     1       1.430   9.233  19.265  0.00  0.00    +0.000 A 
ATOM     20  C   UNL     1       0.557  10.309  19.273  0.00  0.00    +0.000 A 
ATOM     21  N   UNL     1      -0.336  10.545  20.256  0.00  0.00    +0.000 NA
ATOM     22  C   UNL     1      -0.366   9.652  21.266  0.00  0.00    +0.000 A 
ATOM     23  C   UNL     1       0.459   8.539  21.341  0.00  0.00    +0.000 A 
ENDBRANCH  16  18
ENDBRANCH  13  14
ENDBRANCH   7  13
TORSDOF 4
ENDMDL
MODEL 7
REMARK VINA RESULT:      -7.1      4.365      6.431
REMARK  Name = 
REMARK  5 active torsions:
REMARK  status: ('A' for Active; 'I' for Inactive)
REMARK    1  A    between atoms: C_1  and  O_2
REMARK    2  A    between atoms: O_2  and  C_3
REMARK    3  A    between atoms: C_9  and  C_10
REMARK    4  A    between atoms: C_10  and  C_11
REMARK    5  A    between atoms: N_13  and  C_14
REMARK                            x       y       z     vdW  Elec       q    Type
REMARK                         _______ _______ _______ _____ _____    ______ ____
ROOT
ATOM      1  C   UNL     1       3.399   5.108  18.868  0.00  0.00    +0.000 A 
ATOM      2  C   UNL     1       3.022   4.198  17.882  0.00  0.00    +0.000 A 
ATOM      3  C   UNL     1       3.943   3.742  16.932  0.00  0.00    +0.000 A 
ATOM      4  C   UNL     1       5.251   4.226  17.006  0.00  0.00    +0.000 A 
ATOM      5  N   UNL     1       6.344   3.950  16.216  0.00  0.00    +0.000 N 
ATOM      6  C   UNL     1       7.442   4.626  16.678  0.00  0.00    +0.000 A 
ATOM      7  C   UNL     1       7.066   5.362  17.784  0.00  0.00    +0.000 A 
ATOM      8  C   UNL     1       5.666   5.132  17.984  0.00  0.00    +0.000 A 
ATOM      9  C   UNL     1       4.713   5.592  18.915  0.00  0.00    +0.000 A 
ATOM     10  H   UNL     1       6.336   3.317  15.428  0.00  0.00    +0.000 HD
ENDROOT
BRANCH   1  12
ATOM     11  C   UNL     1       2.355   7.027  19.779  0.00  0.00    +0.000 C 
ATOM     12  O   UNL     1       2.564   5.620  19.827  0.00  0.00    +0.000 OA
ENDBRANCH   1  12
BRANCH   7  13
ATOM     13  C   UNL     1       7.976   6.182  18.641  0.00  0.00    +0.000 C 
BRANCH  13  14
ATOM     14  C   UNL     1       7.997   7.669  18.327  0.00  0.00    +0.000 C 
ATOM     15  O   UNL     1       7.459   8.075  17.297  0.00  0.00    +0.000 OA
ATOM     16  N   UNL     1       8.754   8.446  19.190  0.00  0.00    +0.000 N 
ATOM     17  H   UNL     1       9.245   7.962  19.933  0.00  0.00    +0.000 HD
BRANCH  16  18
ATOM     18  C   UNL     1       9.017   9.828  19.052  0.00  0.00    +0.000 A 
ATOM     19  C   UNL     1       8.978  10.496  17.830  0.00  0.00    +0.000 A 
ATOM     20  C   UNL     1       9.314  11.840  17.796  0.00  0.00    +0.000 A 
ATOM     21  N   UNL     1       9.670  12.553  18.884  0.00  0.00    +0.000 NA
ATOM     22  C   UNL     1       9.673  11.892  20.061  0.00  0.00    +0.000 A 
ATOM     23  C   UNL     1       9.342  10.551  20.197  0.00  0.00    +0.000 A 
ENDBRANCH  16  18
ENDBRANCH  13  14
ENDBRANCH   7  13
TORSDOF 4
ENDMDL
MODEL 8
REMARK VINA RESULT:      -7.1      1.529      2.409
REMARK  Name = 
REMARK  5 active torsions:
REMARK  status: ('A' for Active; 'I' for Inactive)
REMARK    1  A    between atoms: C_1  and  O_2
REMARK    2  A    between atoms: O_2  and  C_3
REMARK    3  A    between atoms: C_9  and  C_10
REMARK    4  A    between atoms: C_10  and  C_11
REMARK    5  A    between atoms: N_13  and  C_14
REMARK                            x       y       z     vdW  Elec       q    Type
REMARK                         _______ _______ _______ _____ _____    ______ ____
ROOT
ATOM      1  C   UNL     1       5.752   4.240  14.711  0.00  0.00    +0.000 A 
ATOM      2  C   UNL     1       7.091   4.592  14.875  0.00  0.00    +0.000 A 
ATOM      3  C   UNL     1       7.620   4.842  16.147  0.00  0.00    +0.000 A 
ATOM      4  C   UNL     1       6.764   4.725  17.245  0.00  0.00    +0.000 A 
ATOM      5  N   UNL     1       7.013   4.908  18.586  0.00  0.00    +0.000 N 
ATOM      6  C   UNL     1       5.882   4.650  19.314  0.00  0.00    +0.000 A 
ATOM      7  C   UNL     1       4.873   4.297  18.441  0.00  0.00    +0.000 A 
ATOM      8  C   UNL     1       5.420   4.368  17.118  0.00  0.00    +0.000 A 
ATOM      9  C   UNL     1       4.907   4.142  15.825  0.00  0.00    +0.000 A 
ATOM     10  H   UNL     1       7.910   5.169  18.971  0.00  0.00    +0.000 HD
ENDROOT
BRANCH   1  12
ATOM     11  C   UNL     1       5.988   3.459  12.490  0.00  0.00    +0.000 C 
ATOM     12  O   UNL     1       5.146   3.992  13.507  0.00  0.00    +0.000 OA
ENDBRANCH   1  12
BRANCH   7  13
ATOM     13  C   UNL     1       3.496   3.858  18.825  0.00  0.00    +0.000 C 
BRANCH  13  14
ATOM     14  C   UNL     1       2.517   4.983  19.125  0.00  0.00    +0.000 C 
ATOM     15  O   UNL     1       1.336   4.711  19.341  0.00  0.00    +0.000 OA
ATOM     16  N   UNL     1       3.031   6.264  19.000  0.00  0.00    +0.000 N 
ATOM     17  H   UNL     1       3.995   6.345  18.698  0.00  0.00    +0.000 HD
BRANCH  16  18
ATOM     18  C   UNL     1       2.301   7.468  19.120  0.00  0.00    +0.000 A 
ATOM     19  C   UNL     1       1.752   7.914  20.320  0.00  0.00    +0.000 A 
ATOM     20  C   UNL     1       1.000   9.078  20.315  0.00  0.00    +0.000 A 
ATOM     21  N   UNL     1       0.772   9.821  19.212  0.00  0.00    +0.000 NA
ATOM     22  C   UNL     1       1.337   9.385  18.068  0.00  0.00    +0.000 A 
ATOM     23  C   UNL     1       2.115   8.239  17.975  0.00  0.00    +0.000 A 
ENDBRANCH  16  18
ENDBRANCH  13  14
ENDBRANCH   7  13
TORSDOF 4
ENDMDL
MODEL 9
REMARK VINA RESULT:      -7.1      2.435      6.896
REMARK  Name = 
REMARK  5 active torsions:
REMARK  status: ('A' for Active; 'I' for Inactive)
REMARK    1  A    between atoms: C_1  and  O_2
REMARK    2  A    between atoms: O_2  and  C_3
REMARK    3  A    between atoms: C_9  and  C_10
REMARK    4  A    between atoms: C_10  and  C_11
REMARK    5  A    between atoms: N_13  and  C_14
REMARK                            x       y       z     vdW  Elec       q    Type
REMARK                         _______ _______ _______ _____ _____    ______ ____
ROOT
ATOM      1  C   UNL     1       2.396   7.210  18.934  0.00  0.00    +0.000 A 
ATOM      2  C   UNL     1       1.944   7.425  20.235  0.00  0.00    +0.000 A 
ATOM      3  C   UNL     1       1.441   6.371  21.007  0.00  0.00    +0.000 A 
ATOM      4  C   UNL     1       1.408   5.098  20.432  0.00  0.00    +0.000 A 
ATOM      5  N   UNL     1       0.974   3.902  20.955  0.00  0.00    +0.000 N 
ATOM      6  C   UNL     1       1.163   2.895  20.046  0.00  0.00    +0.000 A 
ATOM      7  C   UNL     1       1.723   3.436  18.906  0.00  0.00    +0.000 A 
ATOM      8  C   UNL     1       1.859   4.844  19.135  0.00  0.00    +0.000 A 
ATOM      9  C   UNL     1       2.341   5.927  18.372  0.00  0.00    +0.000 A 
ATOM     10  H   UNL     1       0.597   3.786  21.885  0.00  0.00    +0.000 HD
ENDROOT
BRANCH   1  12
ATOM     11  C   UNL     1       2.025   9.285  17.859  0.00  0.00    +0.000 C 
ATOM     12  O   UNL     1       2.890   8.180  18.102  0.00  0.00    +0.000 OA
ENDBRANCH   1  12
BRANCH   7  13
ATOM     13  C   UNL     1       2.165   2.673  17.699  0.00  0.00    +0.000 C 
BRANCH  13  14
ATOM     14  C   UNL     1       3.621   2.869  17.305  0.00  0.00    +0.000 C 
ATOM     15  O   UNL     1       4.477   2.120  17.774  0.00  0.00    +0.000 OA
ATOM     16  N   UNL     1       3.878   3.987  16.527  0.00  0.00    +0.000 N 
ATOM     17  H   UNL     1       3.091   4.587  16.310  0.00  0.00    +0.000 HD
BRANCH  16  18
ATOM     18  C   UNL     1       5.153   4.443  16.123  0.00  0.00    +0.000 A 
ATOM     19  C   UNL     1       5.962   5.256  16.915  0.00  0.00    +0.000 A 
ATOM     20  C   UNL     1       7.168   5.699  16.398  0.00  0.00    +0.000 A 
ATOM     21  N   UNL     1       7.621   5.381  15.168  0.00  0.00    +0.000 NA
ATOM     22  C   UNL     1       6.834   4.570  14.430  0.00  0.00    +0.000 A 
ATOM     23  C   UNL     1       5.616   4.067  14.865  0.00  0.00    +0.000 A 
ENDBRANCH  16  18
ENDBRANCH  13  14
ENDBRANCH   7  13
TORSDOF 4
ENDMDL
