MODEL 1
REMARK VINA RESULT:      -6.9      0.000      0.000
REMARK  Name = 
REMARK  6 active torsions:
REMARK  status: ('A' for Active; 'I' for Inactive)
REMARK    1  A    between atoms: C_1  and  C_2
REMARK    2  A    between atoms: N_4  and  C_5
REMARK    3  A    between atoms: C_8  and  C_9
REMARK    4  A    between atoms: C_9  and  O_11
REMARK    5  A    between atoms: C_13  and  C_14
REMARK    6  A    between atoms: N_15  and  O_16
REMARK                            x       y       z     vdW  Elec       q    Type
REMARK                         _______ _______ _______ _____ _____    ______ ____
ROOT
ATOM      1  C   UNL     1       5.598   5.913  17.409  0.00  0.00    +0.000 A 
ATOM      2  C   UNL     1       4.804   5.684  18.541  0.00  0.00    +0.000 A 
ATOM      3  C   UNL     1       4.043   4.522  18.674  0.00  0.00    +0.000 A 
ATOM      4  C   UNL     1       4.078   3.552  17.675  0.00  0.00    +0.000 A 
ATOM      5  C   UNL     1       4.826   3.776  16.515  0.00  0.00    +0.000 A 
ATOM      6  C   UNL     1       5.576   4.957  16.372  0.00  0.00    +0.000 A 
ENDROOT
BRANCH   1  10
ATOM      7  C   UNL     1       8.052   8.763  17.747  0.00  0.00    +0.000 C 
ATOM      8  C   UNL     1       7.542   7.371  17.986  0.00  0.00    +0.000 C 
ATOM      9  O   UNL     1       8.159   6.597  18.713  0.00  0.00    +0.000 OA
ATOM     10  N   UNL     1       6.378   7.089  17.293  0.00  0.00    +0.000 N 
ATOM     11  H   UNL     1       6.106   7.718  16.537  0.00  0.00    +0.000 HD
ENDBRANCH   1  10
BRANCH   4  12
ATOM     12  C   UNL     1       3.290   2.300  17.786  0.00  0.00    +0.000 C 
ATOM     13  O   UNL     1       2.119   2.237  17.461  0.00  0.00    +0.000 OA
BRANCH  12  14
ATOM     14  O   UNL     1       4.001   1.244  18.232  0.00  0.00    +0.000 OA
ATOM     15  H   UNL     1       4.895   1.144  17.854  0.00  0.00    +0.000 HD
ENDBRANCH  12  14
ENDBRANCH   4  12
BRANCH   6  16
ATOM     16  C   UNL     1       6.318   5.107  15.099  0.00  0.00    +0.000 C 
ATOM     17  N   UNL     1       7.581   5.402  15.043  0.00  0.00    +0.000 NA
BRANCH  17  18
ATOM     18  O   UNL     1       7.952   5.483  13.694  0.00  0.00    +0.000 OA
ATOM     19  H   UNL     1       8.184   4.562  13.470  0.00  0.00    +0.000 HD
ENDBRANCH  17  18
ENDBRANCH   6  16
TORSDOF 5
ENDMDL
MODEL 2
REMARK VINA RESULT:      -6.6      2.273      5.190
REMARK  Name = 
REMARK  6 active torsions:
REMARK  status: ('A' for Active; 'I' for Inactive)
REMARK    1  A    between atoms: C_1  and  C_2
REMARK    2  A    between atoms: N_4  and  C_5
REMARK    3  A    between atoms: C_8  and  C_9
REMARK    4  A    between atoms: C_9  and  O_11
REMARK    5  A    between atoms: C_13  and  C_14
REMARK    6  A    between atoms: N_15  and  O_16
REMARK                            x       y       z     vdW  Elec       q    Type
REMARK                         _______ _______ _______ _____ _____    ______ ____
ROOT
ATOM      1  C   UNL     1       5.267   4.283  17.608  0.00  0.00    +0.000 A 
ATOM      2  C   UNL     1       4.543   4.179  16.413  0.00  0.00    +0.000 A 
ATOM      3  C   UNL     1       5.151   4.375  15.173  0.00  0.00    +0.000 A 
ATOM      4  C   UNL     1       6.512   4.664  15.106  0.00  0.00    +0.000 A 
ATOM      5  C   UNL     1       7.249   4.819  16.284  0.00  0.00    +0.000 A 
ATOM      6  C   UNL     1       6.629   4.642  17.535  0.00  0.00    +0.000 A 
ENDROOT
BRANCH   1  10
ATOM      7  C   UNL     1       3.273   3.075  20.578  0.00  0.00    +0.000 C 
ATOM      8  C   UNL     1       3.939   2.937  19.239  0.00  0.00    +0.000 C 
ATOM      9  O   UNL     1       3.853   1.889  18.605  0.00  0.00    +0.000 OA
ATOM     10  N   UNL     1       4.642   4.067  18.860  0.00  0.00    +0.000 N 
ATOM     11  H   UNL     1       4.844   4.768  19.574  0.00  0.00    +0.000 HD
ENDBRANCH   1  10
BRANCH   4  12
ATOM     12  C   UNL     1       7.195   4.870  13.805  0.00  0.00    +0.000 C 
ATOM     13  O   UNL     1       8.094   5.678  13.662  0.00  0.00    +0.000 OA
BRANCH  12  14
ATOM     14  O   UNL     1       6.759   4.054  12.823  0.00  0.00    +0.000 OA
ATOM     15  H   UNL     1       7.121   4.229  11.934  0.00  0.00    +0.000 HD
ENDBRANCH  12  14
ENDBRANCH   4  12
BRANCH   6  16
ATOM     16  C   UNL     1       7.491   4.847  18.722  0.00  0.00    +0.000 C 
ATOM     17  N   UNL     1       7.061   5.363  19.833  0.00  0.00    +0.000 NA
BRANCH  17  18
ATOM     18  O   UNL     1       8.135   5.428  20.731  0.00  0.00    +0.000 OA
ATOM     19  H   UNL     1       8.704   4.686  20.452  0.00  0.00    +0.000 HD
ENDBRANCH  17  18
ENDBRANCH   6  16
TORSDOF 5
ENDMDL
MODEL 3
REMARK VINA RESULT:      -6.6      2.556      4.012
REMARK  Name = 
REMARK  6 active torsions:
REMARK  status: ('A' for Active; 'I' for Inactive)
REMARK    1  A    between atoms: C_1  and  C_2
REMARK    2  A    between atoms: N_4  and  C_5
REMARK    3  A    between atoms: C_8  and  C_9
REMARK    4  A    between atoms: C_9  and  O_11
REMARK    5  A    between atoms: C_13  and  C_14
REMARK    6  A    between atoms: N_15  and  O_16
REMARK                            x       y       z     vdW  Elec       q    Type
REMARK                         _______ _______ _______ _____ _____    ______ ____
ROOT
ATOM      1  C   UNL     1       4.528   4.153  17.119  0.00  0.00    +0.000 A 
ATOM      2  C   UNL     1       3.168   3.840  16.993  0.00  0.00    +0.000 A 
ATOM      3  C   UNL     1       2.273   4.041  18.044  0.00  0.00    +0.000 A 
ATOM      4  C   UNL     1       2.726   4.580  19.247  0.00  0.00    +0.000 A 
ATOM      5  C   UNL     1       4.086   4.858  19.415  0.00  0.00    +0.000 A 
ATOM      6  C   UNL     1       4.990   4.636  18.362  0.00  0.00    +0.000 A 
ENDROOT
BRANCH   1  10
ATOM      7  C   UNL     1       6.636   4.345  13.993  0.00  0.00    +0.000 C 
ATOM      8  C   UNL     1       5.780   4.904  15.093  0.00  0.00    +0.000 C 
ATOM      9  O   UNL     1       5.485   6.096  15.110  0.00  0.00    +0.000 OA
ATOM     10  N   UNL     1       5.423   3.960  16.040  0.00  0.00    +0.000 N 
ATOM     11  H   UNL     1       5.932   3.075  16.050  0.00  0.00    +0.000 HD
ENDBRANCH   1  10
BRANCH   4  12
ATOM     12  C   UNL     1       1.802   4.816  20.384  0.00  0.00    +0.000 C 
ATOM     13  O   UNL     1       0.764   4.196  20.518  0.00  0.00    +0.000 OA
BRANCH  12  14
ATOM     14  O   UNL     1       2.244   5.738  21.264  0.00  0.00    +0.000 OA
ATOM     15  H   UNL     1       2.698   5.387  22.053  0.00  0.00    +0.000 HD
ENDBRANCH  12  14
ENDBRANCH   4  12
BRANCH   6  16
ATOM     16  C   UNL     1       6.411   4.944  18.647  0.00  0.00    +0.000 C 
ATOM     17  N   UNL     1       6.838   5.304  19.819  0.00  0.00    +0.000 NA
BRANCH  17  18
ATOM     18  O   UNL     1       8.218   5.534  19.730  0.00  0.00    +0.000 OA
ATOM     19  H   UNL     1       8.593   4.889  20.358  0.00  0.00    +0.000 HD
ENDBRANCH  17  18
ENDBRANCH   6  16
TORSDOF 5
ENDMDL
MODEL 4
REMARK VINA RESULT:      -6.6      2.448      3.815
REMARK  Name = 
REMARK  6 active torsions:
REMARK  status: ('A' for Active; 'I' for Inactive)
REMARK    1  A    between atoms: C_1  and  C_2
REMARK    2  A    between atoms: N_4  and  C_5
REMARK    3  A    between atoms: C_8  and  C_9
REMARK    4  A    between atoms: C_9  and  O_11
REMARK    5  A    between atoms: C_13  and  C_14
REMARK    6  A    between atoms: N_15  and  O_16
REMARK                            x       y       z     vdW  Elec       q    Type
REMARK                         _______ _______ _______ _____ _____    ______ ____
ROOT
ATOM      1  C   UNL     1       4.619   4.175  17.429  0.00  0.00    +0.000 A 
ATOM      2  C   UNL     1       3.374   3.633  17.083  0.00  0.00    +0.000 A 
ATOM      3  C   UNL     1       2.292   3.670  17.964  0.00  0.00    +0.000 A 
ATOM      4  C   UNL     1       2.436   4.272  19.212  0.00  0.00    +0.000 A 
ATOM      5  C   UNL     1       3.680   4.780  19.601  0.00  0.00    +0.000 A 
ATOM      6  C   UNL     1       4.774   4.722  18.720  0.00  0.00    +0.000 A 
ENDROOT
BRANCH   1  10
ATOM      7  C   UNL     1       7.121   4.695  14.649  0.00  0.00    +0.000 C 
ATOM      8  C   UNL     1       5.983   5.088  15.548  0.00  0.00    +0.000 C 
ATOM      9  O   UNL     1       5.417   6.168  15.400  0.00  0.00    +0.000 OA
ATOM     10  N   UNL     1       5.704   4.145  16.520  0.00  0.00    +0.000 N 
ATOM     11  H   UNL     1       6.398   3.417  16.695  0.00  0.00    +0.000 HD
ENDBRANCH   1  10
BRANCH   4  12
ATOM     12  C   UNL     1       1.306   4.339  20.172  0.00  0.00    +0.000 C 
ATOM     13  O   UNL     1       1.048   5.345  20.805  0.00  0.00    +0.000 OA
BRANCH  12  14
ATOM     14  O   UNL     1       0.578   3.205  20.238  0.00  0.00    +0.000 OA
ATOM     15  H   UNL     1       0.537   2.678  19.418  0.00  0.00    +0.000 HD
ENDBRANCH  12  14
ENDBRANCH   4  12
BRANCH   6  16
ATOM     16  C   UNL     1       6.052   5.270  19.233  0.00  0.00    +0.000 C 
ATOM     17  N   UNL     1       7.209   4.749  18.959  0.00  0.00    +0.000 NA
BRANCH  17  18
ATOM     18  O   UNL     1       8.193   5.500  19.617  0.00  0.00    +0.000 OA
ATOM     19  H   UNL     1       9.023   5.061  19.352  0.00  0.00    +0.000 HD
ENDBRANCH  17  18
ENDBRANCH   6  16
TORSDOF 5
ENDMDL
MODEL 5
REMARK VINA RESULT:      -6.5      2.738      4.913
REMARK  Name = 
REMARK  6 active torsions:
REMARK  status: ('A' for Active; 'I' for Inactive)
REMARK    1  A    between atoms: C_1  and  C_2
REMARK    2  A    between atoms: N_4  and  C_5
REMARK    3  A    between atoms: C_8  and  C_9
REMARK    4  A    between atoms: C_9  and  O_11
REMARK    5  A    between atoms: C_13  and  C_14
REMARK    6  A    between atoms: N_15  and  O_16
REMARK                            x       y       z     vdW  Elec       q    Type
REMARK                         _______ _______ _______ _____ _____    ______ ____
ROOT
ATOM      1  C   UNL     1       4.499   4.240  18.083  0.00  0.00    +0.000 A 
ATOM      2  C   UNL     1       3.941   3.961  16.828  0.00  0.00    +0.000 A 
ATOM      3  C   UNL     1       4.690   4.073  15.656  0.00  0.00    +0.000 A 
ATOM      4  C   UNL     1       6.028   4.454  15.722  0.00  0.00    +0.000 A 
ATOM      5  C   UNL     1       6.597   4.783  16.957  0.00  0.00    +0.000 A 
ATOM      6  C   UNL     1       5.835   4.690  18.135  0.00  0.00    +0.000 A 
ENDROOT
BRANCH   1  10
ATOM      7  C   UNL     1       2.271   4.654  21.103  0.00  0.00    +0.000 C 
ATOM      8  C   UNL     1       2.809   5.018  19.748  0.00  0.00    +0.000 C 
ATOM      9  O   UNL     1       2.406   6.022  19.167  0.00  0.00    +0.000 OA
ATOM     10  N   UNL     1       3.733   4.108  19.266  0.00  0.00    +0.000 N 
ATOM     11  H   UNL     1       3.793   3.198  19.724  0.00  0.00    +0.000 HD
ENDBRANCH   1  10
BRANCH   4  12
ATOM     12  C   UNL     1       6.859   4.575  14.499  0.00  0.00    +0.000 C 
ATOM     13  O   UNL     1       7.732   5.415  14.386  0.00  0.00    +0.000 OA
BRANCH  12  14
ATOM     14  O   UNL     1       6.585   3.648  13.558  0.00  0.00    +0.000 OA
ATOM     15  H   UNL     1       6.748   2.721  13.815  0.00  0.00    +0.000 HD
ENDBRANCH  12  14
ENDBRANCH   4  12
BRANCH   6  16
ATOM     16  C   UNL     1       6.523   5.078  19.388  0.00  0.00    +0.000 C 
ATOM     17  N   UNL     1       7.815   5.117  19.506  0.00  0.00    +0.000 NA
BRANCH  17  18
ATOM     18  O   UNL     1       8.123   5.504  20.818  0.00  0.00    +0.000 OA
ATOM     19  H   UNL     1       7.539   4.942  21.360  0.00  0.00    +0.000 HD
ENDBRANCH  17  18
ENDBRANCH   6  16
TORSDOF 5
ENDMDL
MODEL 6
REMARK VINA RESULT:      -6.5      1.905      2.294
REMARK  Name = 
REMARK  6 active torsions:
REMARK  status: ('A' for Active; 'I' for Inactive)
REMARK    1  A    between atoms: C_1  and  C_2
REMARK    2  A    between atoms: N_4  and  C_5
REMARK    3  A    between atoms: C_8  and  C_9
REMARK    4  A    between atoms: C_9  and  O_11
REMARK    5  A    between atoms: C_13  and  C_14
REMARK    6  A    between atoms: N_15  and  O_16
REMARK                            x       y       z     vdW  Elec       q    Type
REMARK                         _______ _______ _______ _____ _____    ______ ____
ROOT
ATOM      1  C   UNL     1       4.506   5.350  18.313  0.00  0.00    +0.000 A 
ATOM      2  C   UNL     1       3.760   5.592  19.473  0.00  0.00    +0.000 A 
ATOM      3  C   UNL     1       2.618   4.850  19.774  0.00  0.00    +0.000 A 
ATOM      4  C   UNL     1       2.209   3.829  18.919  0.00  0.00    +0.000 A 
ATOM      5  C   UNL     1       2.910   3.596  17.731  0.00  0.00    +0.000 A 
ATOM      6  C   UNL     1       4.048   4.360  17.418  0.00  0.00    +0.000 A 
ENDROOT
BRANCH   1  10
ATOM      7  C   UNL     1       7.901   7.001  18.211  0.00  0.00    +0.000 C 
ATOM      8  C   UNL     1       6.907   5.956  18.633  0.00  0.00    +0.000 C 
ATOM      9  O   UNL     1       7.231   5.070  19.420  0.00  0.00    +0.000 OA
ATOM     10  N   UNL     1       5.672   6.101  18.027  0.00  0.00    +0.000 N 
ATOM     11  H   UNL     1       5.606   6.714  17.214  0.00  0.00    +0.000 HD
ENDBRANCH   1  10
BRANCH   4  12
ATOM     12  C   UNL     1       1.006   3.012  19.209  0.00  0.00    +0.000 C 
ATOM     13  O   UNL     1       0.527   2.245  18.395  0.00  0.00    +0.000 OA
BRANCH  12  14
ATOM     14  O   UNL     1       0.529   3.167  20.462  0.00  0.00    +0.000 OA
ATOM     15  H   UNL     1       0.189   4.055  20.679  0.00  0.00    +0.000 HD
ENDBRANCH  12  14
ENDBRANCH   4  12
BRANCH   6  16
ATOM     16  C   UNL     1       4.708   4.048  16.129  0.00  0.00    +0.000 C 
ATOM     17  N   UNL     1       5.966   3.746  16.029  0.00  0.00    +0.000 NA
BRANCH  17  18
ATOM     18  O   UNL     1       6.258   3.530  14.675  0.00  0.00    +0.000 OA
ATOM     19  H   UNL     1       6.558   4.406  14.368  0.00  0.00    +0.000 HD
ENDBRANCH  17  18
ENDBRANCH   6  16
TORSDOF 5
ENDMDL
MODEL 7
REMARK VINA RESULT:      -6.4      2.453      5.206
REMARK  Name = 
REMARK  6 active torsions:
REMARK  status: ('A' for Active; 'I' for Inactive)
REMARK    1  A    between atoms: C_1  and  C_2
REMARK    2  A    between atoms: N_4  and  C_5
REMARK    3  A    between atoms: C_8  and  C_9
REMARK    4  A    between atoms: C_9  and  O_11
REMARK    5  A    between atoms: C_13  and  C_14
REMARK    6  A    between atoms: N_15  and  O_16
REMARK                            x       y       z     vdW  Elec       q    Type
REMARK                         _______ _______ _______ _____ _____    ______ ____
ROOT
ATOM      1  C   UNL     1       5.523   4.095  16.946  0.00  0.00    +0.000 A 
ATOM      2  C   UNL     1       4.919   3.966  15.688  0.00  0.00    +0.000 A 
ATOM      3  C   UNL     1       5.596   4.303  14.516  0.00  0.00    +0.000 A 
ATOM      4  C   UNL     1       6.910   4.763  14.582  0.00  0.00    +0.000 A 
ATOM      5  C   UNL     1       7.521   4.945  15.827  0.00  0.00    +0.000 A 
ATOM      6  C   UNL     1       6.829   4.624  17.009  0.00  0.00    +0.000 A 
ENDROOT
BRANCH   1  10
ATOM      7  C   UNL     1       3.297   3.831  19.985  0.00  0.00    +0.000 C 
ATOM      8  C   UNL     1       3.708   4.360  18.640  0.00  0.00    +0.000 C 
ATOM      9  O   UNL     1       3.053   5.242  18.091  0.00  0.00    +0.000 OA
ATOM     10  N   UNL     1       4.830   3.735  18.127  0.00  0.00    +0.000 N 
ATOM     11  H   UNL     1       5.129   2.859  18.557  0.00  0.00    +0.000 HD
ENDBRANCH   1  10
BRANCH   4  12
ATOM     12  C   UNL     1       7.665   5.123  13.358  0.00  0.00    +0.000 C 
ATOM     13  O   UNL     1       8.582   5.922  13.370  0.00  0.00    +0.000 OA
BRANCH  12  14
ATOM     14  O   UNL     1       7.271   4.453  12.255  0.00  0.00    +0.000 OA
ATOM     15  H   UNL     1       6.428   3.967  12.333  0.00  0.00    +0.000 HD
ENDBRANCH  12  14
ENDBRANCH   4  12
BRANCH   6  16
ATOM     16  C   UNL     1       7.556   4.870  18.276  0.00  0.00    +0.000 C 
ATOM     17  N   UNL     1       6.985   5.335  19.345  0.00  0.00    +0.000 NA
BRANCH  17  18
ATOM     18  O   UNL     1       7.961   5.461  20.343  0.00  0.00    +0.000 OA
ATOM     19  H   UNL     1       8.183   6.411  20.321  0.00  0.00    +0.000 HD
ENDBRANCH  17  18
ENDBRANCH   6  16
TORSDOF 5
ENDMDL
MODEL 8
REMARK VINA RESULT:      -6.4      2.728      4.998
REMARK  Name = 
REMARK  6 active torsions:
REMARK  status: ('A' for Active; 'I' for Inactive)
REMARK    1  A    between atoms: C_1  and  C_2
REMARK    2  A    between atoms: N_4  and  C_5
REMARK    3  A    between atoms: C_8  and  C_9
REMARK    4  A    between atoms: C_9  and  O_11
REMARK    5  A    between atoms: C_13  and  C_14
REMARK    6  A    between atoms: N_15  and  O_16
REMARK                            x       y       z     vdW  Elec       q    Type
REMARK                         _______ _______ _______ _____ _____    ______ ____
ROOT
ATOM      1  C   UNL     1       4.161   5.846  17.876  0.00  0.00    +0.000 A 
ATOM      2  C   UNL     1       5.231   6.650  17.461  0.00  0.00    +0.000 A 
ATOM      3  C   UNL     1       6.063   6.269  16.406  0.00  0.00    +0.000 A 
ATOM      4  C   UNL     1       5.823   5.074  15.731  0.00  0.00    +0.000 A 
ATOM      5  C   UNL     1       4.790   4.232  16.154  0.00  0.00    +0.000 A 
ATOM      6  C   UNL     1       3.967   4.607  17.231  0.00  0.00    +0.000 A 
ENDROOT
BRANCH   1  10
ATOM      7  C   UNL     1       1.783   7.571  20.248  0.00  0.00    +0.000 C 
ATOM      8  C   UNL     1       2.428   7.312  18.916  0.00  0.00    +0.000 C 
ATOM      9  O   UNL     1       2.132   7.992  17.937  0.00  0.00    +0.000 OA
ATOM     10  N   UNL     1       3.315   6.251  18.937  0.00  0.00    +0.000 N 
ATOM     11  H   UNL     1       3.285   5.616  19.735  0.00  0.00    +0.000 HD
ENDBRANCH   1  10
BRANCH   4  12
ATOM     12  C   UNL     1       6.680   4.641  14.601  0.00  0.00    +0.000 C 
ATOM     13  O   UNL     1       7.626   5.300  14.210  0.00  0.00    +0.000 OA
BRANCH  12  14
ATOM     14  O   UNL     1       6.340   3.441  14.086  0.00  0.00    +0.000 OA
ATOM     15  H   UNL     1       5.496   3.067  14.403  0.00  0.00    +0.000 HD
ENDBRANCH  12  14
ENDBRANCH   4  12
BRANCH   6  16
ATOM     16  C   UNL     1       2.914   3.637  17.613  0.00  0.00    +0.000 C 
ATOM     17  N   UNL     1       1.648   3.926  17.616  0.00  0.00    +0.000 NA
BRANCH  17  18
ATOM     18  O   UNL     1       0.942   2.794  18.044  0.00  0.00    +0.000 OA
ATOM     19  H   UNL     1       0.141   3.171  18.454  0.00  0.00    +0.000 HD
ENDBRANCH  17  18
ENDBRANCH   6  16
TORSDOF 5
ENDMDL
MODEL 9
REMARK VINA RESULT:      -6.3      2.662      5.063
REMARK  Name = 
REMARK  6 active torsions:
REMARK  status: ('A' for Active; 'I' for Inactive)
REMARK    1  A    between atoms: C_1  and  C_2
REMARK    2  A    between atoms: N_4  and  C_5
REMARK    3  A    between atoms: C_8  and  C_9
REMARK    4  A    between atoms: C_9  and  O_11
REMARK    5  A    between atoms: C_13  and  C_14
REMARK    6  A    between atoms: N_15  and  O_16
REMARK                            x       y       z     vdW  Elec       q    Type
REMARK                         _______ _______ _______ _____ _____    ______ ____
ROOT
ATOM      1  C   UNL     1       3.773   5.530  17.503  0.00  0.00    +0.000 A 
ATOM      2  C   UNL     1       4.605   6.546  17.014  0.00  0.00    +0.000 A 
ATOM      3  C   UNL     1       5.570   6.291  16.038  0.00  0.00    +0.000 A 
ATOM      4  C   UNL     1       5.708   5.006  15.518  0.00  0.00    +0.000 A 
ATOM      5  C   UNL     1       4.921   3.965  16.021  0.00  0.00    +0.000 A 
ATOM      6  C   UNL     1       3.963   4.219  17.019  0.00  0.00    +0.000 A 
ENDROOT
BRANCH   1  10
ATOM      7  C   UNL     1       1.562   5.746  20.556  0.00  0.00    +0.000 C 
ATOM      8  C   UNL     1       2.828   5.430  19.812  0.00  0.00    +0.000 C 
ATOM      9  O   UNL     1       3.781   4.915  20.392  0.00  0.00    +0.000 OA
ATOM     10  N   UNL     1       2.787   5.805  18.481  0.00  0.00    +0.000 N 
ATOM     11  H   UNL     1       2.046   6.442  18.186  0.00  0.00    +0.000 HD
ENDBRANCH   1  10
BRANCH   4  12
ATOM     12  C   UNL     1       6.716   4.699  14.474  0.00  0.00    +0.000 C 
ATOM     13  O   UNL     1       7.694   5.398  14.288  0.00  0.00    +0.000 OA
BRANCH  12  14
ATOM     14  O   UNL     1       6.469   3.560  13.794  0.00  0.00    +0.000 OA
ATOM     15  H   UNL     1       7.253   3.098  13.443  0.00  0.00    +0.000 HD
ENDBRANCH  12  14
ENDBRANCH   4  12
BRANCH   6  16
ATOM     16  C   UNL     1       3.195   3.046  17.498  0.00  0.00    +0.000 C 
ATOM     17  N   UNL     1       1.898   2.992  17.483  0.00  0.00    +0.000 NA
BRANCH  17  18
ATOM     18  O   UNL     1       1.506   1.758  18.019  0.00  0.00    +0.000 OA
ATOM     19  H   UNL     1       0.668   1.569  17.556  0.00  0.00    +0.000 HD
ENDBRANCH  17  18
ENDBRANCH   6  16
TORSDOF 5
ENDMDL
