MODEL 1
REMARK VINA RESULT:      -8.4      0.000      0.000
REMARK  Name = 
REMARK  4 active torsions:
REMARK  status: ('A' for Active; 'I' for Inactive)
REMARK    1  A    between atoms: C_10  and  C_11
REMARK    2  A    between atoms: C_14  and  C_15
REMARK    3  A    between atoms: C_18  and  C_19
REMARK    4  A    between atoms: C_19  and  O_21
REMARK                            x       y       z     vdW  Elec       q    Type
REMARK                         _______ _______ _______ _____ _____    ______ ____
ROOT
ATOM      1  C   UNL     1       0.990   9.746  19.560  0.00  0.00    +0.000 A 
ATOM      2  C   UNL     1       1.534   9.975  18.287  0.00  0.00    +0.000 A 
ATOM      3  C   UNL     1       2.387   9.047  17.678  0.00  0.00    +0.000 A 
ATOM      4  C   UNL     1       2.745   7.849  18.317  0.00  0.00    +0.000 A 
ATOM      5  C   UNL     1       2.174   7.617  19.582  0.00  0.00    +0.000 A 
ATOM      6  C   UNL     1       1.306   8.537  20.188  0.00  0.00    +0.000 A 
ENDROOT
BRANCH   1  16
ATOM      7  O   UNL     1      -4.916  11.270  16.331  0.00  0.00    +0.000 OA
ATOM      8  C   UNL     1      -4.060  11.105  17.190  0.00  0.00    +0.000 C 
ATOM      9  C   UNL     1      -2.997  10.088  17.032  0.00  0.00    +0.000 C 
ATOM     10  C   UNL     1      -1.943  10.088  17.861  0.00  0.00    +0.000 C 
ATOM     11  C   UNL     1      -1.758  11.071  18.977  0.00  0.00    +0.000 C 
ATOM     12  C   UNL     1      -3.016  11.830  19.286  0.00  0.00    +0.000 C 
ATOM     13  C   UNL     1      -4.066  11.884  18.451  0.00  0.00    +0.000 C 
ATOM     14  O   UNL     1      -0.784  12.053  18.590  0.00  0.00    +0.000 OA
ATOM     15  C   UNL     1       0.082  12.153  19.724  0.00  0.00    +0.000 C 
ATOM     16  C   UNL     1       0.086  10.742  20.272  0.00  0.00    +0.000 C 
ATOM     17  O   UNL     1      -1.296  10.358  20.129  0.00  0.00    +0.000 OA
ENDBRANCH   1  16
BRANCH   4  18
ATOM     18  C   UNL     1       3.678   6.883  17.690  0.00  0.00    +0.000 A 
ATOM     19  C   UNL     1       4.869   7.300  17.060  0.00  0.00    +0.000 A 
ATOM     20  C   UNL     1       5.754   6.384  16.485  0.00  0.00    +0.000 A 
ATOM     21  C   UNL     1       5.479   5.016  16.525  0.00  0.00    +0.000 A 
ATOM     22  C   UNL     1       4.319   4.572  17.164  0.00  0.00    +0.000 A 
ATOM     23  C   UNL     1       3.427   5.497  17.715  0.00  0.00    +0.000 A 
BRANCH  21  24
ATOM     24  C   UNL     1       6.471   4.079  15.933  0.00  0.00    +0.000 C 
ATOM     25  O   UNL     1       7.640   4.381  15.760  0.00  0.00    +0.000 OA
BRANCH  24  26
ATOM     26  O   UNL     1       5.960   2.881  15.574  0.00  0.00    +0.000 OA
ATOM     27  H   UNL     1       5.771   2.269  16.308  0.00  0.00    +0.000 HD
ENDBRANCH  24  26
ENDBRANCH  21  24
ENDBRANCH   4  18
TORSDOF 4
ENDMDL
MODEL 2
REMARK VINA RESULT:      -8.3      0.393      1.017
REMARK  Name = 
REMARK  4 active torsions:
REMARK  status: ('A' for Active; 'I' for Inactive)
REMARK    1  A    between atoms: C_10  and  C_11
REMARK    2  A    between atoms: C_14  and  C_15
REMARK    3  A    between atoms: C_18  and  C_19
REMARK    4  A    between atoms: C_19  and  O_21
REMARK                            x       y       z     vdW  Elec       q    Type
REMARK                         _______ _______ _______ _____ _____    ______ ____
ROOT
ATOM      1  C   UNL     1       1.097   9.730  19.661  0.00  0.00    +0.000 A 
ATOM      2  C   UNL     1       1.400   8.490  20.243  0.00  0.00    +0.000 A 
ATOM      3  C   UNL     1       2.192   7.546  19.579  0.00  0.00    +0.000 A 
ATOM      4  C   UNL     1       2.711   7.792  18.299  0.00  0.00    +0.000 A 
ATOM      5  C   UNL     1       2.422   9.049  17.734  0.00  0.00    +0.000 A 
ATOM      6  C   UNL     1       1.643  10.004  18.404  0.00  0.00    +0.000 A 
ENDROOT
BRANCH   1  16
ATOM      7  O   UNL     1      -4.785  11.237  16.380  0.00  0.00    +0.000 OA
ATOM      8  C   UNL     1      -3.931  11.090  17.244  0.00  0.00    +0.000 C 
ATOM      9  C   UNL     1      -2.888  10.047  17.127  0.00  0.00    +0.000 C 
ATOM     10  C   UNL     1      -1.833  10.060  17.953  0.00  0.00    +0.000 C 
ATOM     11  C   UNL     1      -1.627  11.084  19.029  0.00  0.00    +0.000 C 
ATOM     12  C   UNL     1      -2.869  11.879  19.308  0.00  0.00    +0.000 C 
ATOM     13  C   UNL     1      -3.919  11.920  18.472  0.00  0.00    +0.000 C 
ATOM     14  O   UNL     1      -0.635  12.030  18.600  0.00  0.00    +0.000 OA
ATOM     15  C   UNL     1       0.235  12.159  19.728  0.00  0.00    +0.000 C 
ATOM     16  C   UNL     1       0.213  10.772  20.334  0.00  0.00    +0.000 C 
ATOM     17  O   UNL     1      -1.176  10.409  20.208  0.00  0.00    +0.000 OA
ENDBRANCH   1  16
BRANCH   4  18
ATOM     18  C   UNL     1       3.518   6.778  17.578  0.00  0.00    +0.000 A 
ATOM     19  C   UNL     1       4.536   7.143  16.673  0.00  0.00    +0.000 A 
ATOM     20  C   UNL     1       5.304   6.183  16.008  0.00  0.00    +0.000 A 
ATOM     21  C   UNL     1       5.083   4.824  16.231  0.00  0.00    +0.000 A 
ATOM     22  C   UNL     1       4.099   4.433  17.142  0.00  0.00    +0.000 A 
ATOM     23  C   UNL     1       3.317   5.399  17.783  0.00  0.00    +0.000 A 
BRANCH  21  24
ATOM     24  C   UNL     1       5.953   3.843  15.529  0.00  0.00    +0.000 C 
ATOM     25  O   UNL     1       6.811   4.177  14.729  0.00  0.00    +0.000 OA
BRANCH  24  26
ATOM     26  O   UNL     1       5.690   2.551  15.829  0.00  0.00    +0.000 OA
ATOM     27  H   UNL     1       6.443   2.039  16.174  0.00  0.00    +0.000 HD
ENDBRANCH  24  26
ENDBRANCH  21  24
ENDBRANCH   4  18
TORSDOF 4
ENDMDL
MODEL 3
REMARK VINA RESULT:      -8.3      2.173      3.525
REMARK  Name = 
REMARK  4 active torsions:
REMARK  status: ('A' for Active; 'I' for Inactive)
REMARK    1  A    between atoms: C_10  and  C_11
REMARK    2  A    between atoms: C_14  and  C_15
REMARK    3  A    between atoms: C_18  and  C_19
REMARK    4  A    between atoms: C_19  and  O_21
REMARK                            x       y       z     vdW  Elec       q    Type
REMARK                         _______ _______ _______ _____ _____    ______ ____
ROOT
ATOM      1  C   UNL     1       0.607   9.538  19.630  0.00  0.00    +0.000 A 
ATOM      2  C   UNL     1       0.946   9.615  18.271  0.00  0.00    +0.000 A 
ATOM      3  C   UNL     1       1.869   8.732  17.696  0.00  0.00    +0.000 A 
ATOM      4  C   UNL     1       2.501   7.735  18.455  0.00  0.00    +0.000 A 
ATOM      5  C   UNL     1       2.135   7.649  19.811  0.00  0.00    +0.000 A 
ATOM      6  C   UNL     1       1.199   8.522  20.386  0.00  0.00    +0.000 A 
ENDROOT
BRANCH   1  16
ATOM      7  O   UNL     1       2.802  16.048  20.291  0.00  0.00    +0.000 OA
ATOM      8  C   UNL     1       2.092  15.056  20.195  0.00  0.00    +0.000 C 
ATOM      9  C   UNL     1       2.544  13.854  19.460  0.00  0.00    +0.000 C 
ATOM     10  C   UNL     1       1.859  12.706  19.570  0.00  0.00    +0.000 C 
ATOM     11  C   UNL     1       0.626  12.546  20.406  0.00  0.00    +0.000 C 
ATOM     12  C   UNL     1       0.045  13.864  20.829  0.00  0.00    +0.000 C 
ATOM     13  C   UNL     1       0.728  15.020  20.773  0.00  0.00    +0.000 C 
ATOM     14  O   UNL     1       0.959  11.849  21.617  0.00  0.00    +0.000 OA
ATOM     15  C   UNL     1      -0.064  10.857  21.741  0.00  0.00    +0.000 C 
ATOM     16  C   UNL     1      -0.365  10.499  20.302  0.00  0.00    +0.000 C 
ATOM     17  O   UNL     1      -0.328  11.786  19.655  0.00  0.00    +0.000 OA
ENDBRANCH   1  16
BRANCH   4  18
ATOM     18  C   UNL     1       3.506   6.824  17.858  0.00  0.00    +0.000 A 
ATOM     19  C   UNL     1       4.595   7.307  17.102  0.00  0.00    +0.000 A 
ATOM     20  C   UNL     1       5.548   6.445  16.555  0.00  0.00    +0.000 A 
ATOM     21  C   UNL     1       5.448   5.067  16.749  0.00  0.00    +0.000 A 
ATOM     22  C   UNL     1       4.395   4.560  17.514  0.00  0.00    +0.000 A 
ATOM     23  C   UNL     1       3.431   5.429  18.037  0.00  0.00    +0.000 A 
BRANCH  21  24
ATOM     24  C   UNL     1       6.509   4.195  16.178  0.00  0.00    +0.000 C 
ATOM     25  O   UNL     1       7.693   4.485  16.220  0.00  0.00    +0.000 OA
BRANCH  24  26
ATOM     26  O   UNL     1       6.047   3.073  15.583  0.00  0.00    +0.000 OA
ATOM     27  H   UNL     1       6.247   2.240  16.045  0.00  0.00    +0.000 HD
ENDBRANCH  24  26
ENDBRANCH  21  24
ENDBRANCH   4  18
TORSDOF 4
ENDMDL
MODEL 4
REMARK VINA RESULT:      -8.2      2.197      3.863
REMARK  Name = 
REMARK  4 active torsions:
REMARK  status: ('A' for Active; 'I' for Inactive)
REMARK    1  A    between atoms: C_10  and  C_11
REMARK    2  A    between atoms: C_14  and  C_15
REMARK    3  A    between atoms: C_18  and  C_19
REMARK    4  A    between atoms: C_19  and  O_21
REMARK                            x       y       z     vdW  Elec       q    Type
REMARK                         _______ _______ _______ _____ _____    ______ ____
ROOT
ATOM      1  C   UNL     1       0.580   9.434  19.692  0.00  0.00    +0.000 A 
ATOM      2  C   UNL     1       1.215   8.406  20.405  0.00  0.00    +0.000 A 
ATOM      3  C   UNL     1       2.168   7.577  19.800  0.00  0.00    +0.000 A 
ATOM      4  C   UNL     1       2.525   7.732  18.451  0.00  0.00    +0.000 A 
ATOM      5  C   UNL     1       1.901   8.783  17.752  0.00  0.00    +0.000 A 
ATOM      6  C   UNL     1       0.958   9.625  18.360  0.00  0.00    +0.000 A 
ENDROOT
BRANCH   1  16
ATOM      7  O   UNL     1       2.778  15.587  21.918  0.00  0.00    +0.000 OA
ATOM      8  C   UNL     1       2.075  14.674  21.504  0.00  0.00    +0.000 C 
ATOM      9  C   UNL     1       2.639  13.579  20.684  0.00  0.00    +0.000 C 
ATOM     10  C   UNL     1       1.912  12.477  20.447  0.00  0.00    +0.000 C 
ATOM     11  C   UNL     1       0.521  12.268  20.964  0.00  0.00    +0.000 C 
ATOM     12  C   UNL     1      -0.096  13.536  21.478  0.00  0.00    +0.000 C 
ATOM     13  C   UNL     1       0.617  14.636  21.767  0.00  0.00    +0.000 C 
ATOM     14  O   UNL     1       0.560  11.362  22.078  0.00  0.00    +0.000 OA
ATOM     15  C   UNL     1      -0.495  10.434  21.811  0.00  0.00    +0.000 C 
ATOM     16  C   UNL     1      -0.485  10.336  20.301  0.00  0.00    +0.000 C 
ATOM     17  O   UNL     1      -0.268  11.706  19.910  0.00  0.00    +0.000 OA
ENDBRANCH   1  16
BRANCH   4  18
ATOM     18  C   UNL     1       3.505   6.832  17.798  0.00  0.00    +0.000 A 
ATOM     19  C   UNL     1       4.649   7.329  17.139  0.00  0.00    +0.000 A 
ATOM     20  C   UNL     1       5.578   6.475  16.539  0.00  0.00    +0.000 A 
ATOM     21  C   UNL     1       5.397   5.092  16.583  0.00  0.00    +0.000 A 
ATOM     22  C   UNL     1       4.288   4.569  17.251  0.00  0.00    +0.000 A 
ATOM     23  C   UNL     1       3.349   5.432  17.827  0.00  0.00    +0.000 A 
BRANCH  21  24
ATOM     24  C   UNL     1       6.435   4.225  15.964  0.00  0.00    +0.000 C 
ATOM     25  O   UNL     1       6.226   3.560  14.962  0.00  0.00    +0.000 OA
BRANCH  24  26
ATOM     26  O   UNL     1       7.615   4.211  16.622  0.00  0.00    +0.000 OA
ATOM     27  H   UNL     1       7.584   3.859  17.530  0.00  0.00    +0.000 HD
ENDBRANCH  24  26
ENDBRANCH  21  24
ENDBRANCH   4  18
TORSDOF 4
ENDMDL
MODEL 5
REMARK VINA RESULT:      -8.2      2.211      3.895
REMARK  Name = 
REMARK  4 active torsions:
REMARK  status: ('A' for Active; 'I' for Inactive)
REMARK    1  A    between atoms: C_10  and  C_11
REMARK    2  A    between atoms: C_14  and  C_15
REMARK    3  A    between atoms: C_18  and  C_19
REMARK    4  A    between atoms: C_19  and  O_21
REMARK                            x       y       z     vdW  Elec       q    Type
REMARK                         _______ _______ _______ _____ _____    ______ ____
ROOT
ATOM      1  C   UNL     1       0.555   9.368  19.782  0.00  0.00    +0.000 A 
ATOM      2  C   UNL     1       1.192   8.329  20.477  0.00  0.00    +0.000 A 
ATOM      3  C   UNL     1       2.162   7.526  19.865  0.00  0.00    +0.000 A 
ATOM      4  C   UNL     1       2.535   7.719  18.525  0.00  0.00    +0.000 A 
ATOM      5  C   UNL     1       1.909   8.780  17.844  0.00  0.00    +0.000 A 
ATOM      6  C   UNL     1       0.949   9.596  18.460  0.00  0.00    +0.000 A 
ENDROOT
BRANCH   1  16
ATOM      7  O   UNL     1       2.597  15.606  21.918  0.00  0.00    +0.000 OA
ATOM      8  C   UNL     1       1.917  14.668  21.523  0.00  0.00    +0.000 C 
ATOM      9  C   UNL     1       2.502  13.583  20.705  0.00  0.00    +0.000 C 
ATOM     10  C   UNL     1       1.805  12.458  20.489  0.00  0.00    +0.000 C 
ATOM     11  C   UNL     1       0.429  12.211  21.029  0.00  0.00    +0.000 C 
ATOM     12  C   UNL     1      -0.219  13.464  21.541  0.00  0.00    +0.000 C 
ATOM     13  C   UNL     1       0.465  14.589  21.809  0.00  0.00    +0.000 C 
ATOM     14  O   UNL     1       0.513  11.318  22.151  0.00  0.00    +0.000 OA
ATOM     15  C   UNL     1      -0.518  10.355  21.908  0.00  0.00    +0.000 C 
ATOM     16  C   UNL     1      -0.528  10.243  20.399  0.00  0.00    +0.000 C 
ATOM     17  O   UNL     1      -0.358  11.615  19.992  0.00  0.00    +0.000 OA
ENDBRANCH   1  16
BRANCH   4  18
ATOM     18  C   UNL     1       3.534   6.846  17.864  0.00  0.00    +0.000 A 
ATOM     19  C   UNL     1       3.624   5.468  18.149  0.00  0.00    +0.000 A 
ATOM     20  C   UNL     1       4.556   4.646  17.511  0.00  0.00    +0.000 A 
ATOM     21  C   UNL     1       5.429   5.175  16.560  0.00  0.00    +0.000 A 
ATOM     22  C   UNL     1       5.347   6.532  16.237  0.00  0.00    +0.000 A 
ATOM     23  C   UNL     1       4.428   7.352  16.900  0.00  0.00    +0.000 A 
BRANCH  21  24
ATOM     24  C   UNL     1       6.377   4.252  15.880  0.00  0.00    +0.000 C 
ATOM     25  O   UNL     1       7.441   4.625  15.415  0.00  0.00    +0.000 OA
BRANCH  24  26
ATOM     26  O   UNL     1       5.944   2.974  15.794  0.00  0.00    +0.000 OA
ATOM     27  H   UNL     1       5.688   2.678  14.903  0.00  0.00    +0.000 HD
ENDBRANCH  24  26
ENDBRANCH  21  24
ENDBRANCH   4  18
TORSDOF 4
ENDMDL
MODEL 6
REMARK VINA RESULT:      -8.2      0.552      1.089
REMARK  Name = 
REMARK  4 active torsions:
REMARK  status: ('A' for Active; 'I' for Inactive)
REMARK    1  A    between atoms: C_10  and  C_11
REMARK    2  A    between atoms: C_14  and  C_15
REMARK    3  A    between atoms: C_18  and  C_19
REMARK    4  A    between atoms: C_19  and  O_21
REMARK                            x       y       z     vdW  Elec       q    Type
REMARK                         _______ _______ _______ _____ _____    ______ ____
ROOT
ATOM      1  C   UNL     1       0.950  10.072  19.624  0.00  0.00    +0.000 A 
ATOM      2  C   UNL     1       1.486  10.236  18.338  0.00  0.00    +0.000 A 
ATOM      3  C   UNL     1       2.249   9.231  17.731  0.00  0.00    +0.000 A 
ATOM      4  C   UNL     1       2.519   8.018  18.384  0.00  0.00    +0.000 A 
ATOM      5  C   UNL     1       1.955   7.853  19.663  0.00  0.00    +0.000 A 
ATOM      6  C   UNL     1       1.177   8.852  20.267  0.00  0.00    +0.000 A 
ENDROOT
BRANCH   1  16
ATOM      7  O   UNL     1      -5.309  11.346  17.008  0.00  0.00    +0.000 OA
ATOM      8  C   UNL     1      -4.353  11.257  17.767  0.00  0.00    +0.000 C 
ATOM      9  C   UNL     1      -3.320  10.213  17.586  0.00  0.00    +0.000 C 
ATOM     10  C   UNL     1      -2.171  10.283  18.274  0.00  0.00    +0.000 C 
ATOM     11  C   UNL     1      -1.846  11.373  19.250  0.00  0.00    +0.000 C 
ATOM     12  C   UNL     1      -3.054  12.179  19.630  0.00  0.00    +0.000 C 
ATOM     13  C   UNL     1      -4.200  12.163  18.930  0.00  0.00    +0.000 C 
ATOM     14  O   UNL     1      -0.926  12.294  18.644  0.00  0.00    +0.000 OA
ATOM     15  C   UNL     1       0.075  12.497  19.646  0.00  0.00    +0.000 C 
ATOM     16  C   UNL     1       0.143  11.151  20.334  0.00  0.00    +0.000 C 
ATOM     17  O   UNL     1      -1.246  10.776  20.404  0.00  0.00    +0.000 OA
ENDBRANCH   1  16
BRANCH   4  18
ATOM     18  C   UNL     1       3.358   6.968  17.758  0.00  0.00    +0.000 A 
ATOM     19  C   UNL     1       3.083   5.595  17.928  0.00  0.00    +0.000 A 
ATOM     20  C   UNL     1       3.868   4.610  17.323  0.00  0.00    +0.000 A 
ATOM     21  C   UNL     1       4.953   4.965  16.522  0.00  0.00    +0.000 A 
ATOM     22  C   UNL     1       5.235   6.317  16.314  0.00  0.00    +0.000 A 
ATOM     23  C   UNL     1       4.460   7.296  16.945  0.00  0.00    +0.000 A 
BRANCH  21  24
ATOM     24  C   UNL     1       5.734   3.880  15.869  0.00  0.00    +0.000 C 
ATOM     25  O   UNL     1       6.637   4.102  15.080  0.00  0.00    +0.000 OA
BRANCH  24  26
ATOM     26  O   UNL     1       5.335   2.632  16.198  0.00  0.00    +0.000 OA
ATOM     27  H   UNL     1       5.211   2.020  15.451  0.00  0.00    +0.000 HD
ENDBRANCH  24  26
ENDBRANCH  21  24
ENDBRANCH   4  18
TORSDOF 4
ENDMDL
MODEL 7
REMARK VINA RESULT:      -8.1      0.364      1.378
REMARK  Name = 
REMARK  4 active torsions:
REMARK  status: ('A' for Active; 'I' for Inactive)
REMARK    1  A    between atoms: C_10  and  C_11
REMARK    2  A    between atoms: C_14  and  C_15
REMARK    3  A    between atoms: C_18  and  C_19
REMARK    4  A    between atoms: C_19  and  O_21
REMARK                            x       y       z     vdW  Elec       q    Type
REMARK                         _______ _______ _______ _____ _____    ______ ____
ROOT
ATOM      1  C   UNL     1       0.925   9.586  19.586  0.00  0.00    +0.000 A 
ATOM      2  C   UNL     1       1.316   8.393  20.212  0.00  0.00    +0.000 A 
ATOM      3  C   UNL     1       2.221   7.513  19.606  0.00  0.00    +0.000 A 
ATOM      4  C   UNL     1       2.771   7.779  18.343  0.00  0.00    +0.000 A 
ATOM      5  C   UNL     1       2.392   8.990  17.734  0.00  0.00    +0.000 A 
ATOM      6  C   UNL     1       1.498   9.882  18.345  0.00  0.00    +0.000 A 
ENDROOT
BRANCH   1  16
ATOM      7  O   UNL     1      -4.527  11.110  15.637  0.00  0.00    +0.000 OA
ATOM      8  C   UNL     1      -3.790  10.936  16.598  0.00  0.00    +0.000 C 
ATOM      9  C   UNL     1      -2.699   9.936  16.561  0.00  0.00    +0.000 C 
ATOM     10  C   UNL     1      -1.764   9.931  17.522  0.00  0.00    +0.000 C 
ATOM     11  C   UNL     1      -1.743  10.891  18.673  0.00  0.00    +0.000 C 
ATOM     12  C   UNL     1      -3.042  11.627  18.828  0.00  0.00    +0.000 C 
ATOM     13  C   UNL     1      -3.973  11.687  17.863  0.00  0.00    +0.000 C 
ATOM     14  O   UNL     1      -0.742  11.892  18.437  0.00  0.00    +0.000 OA
ATOM     15  C   UNL     1      -0.034  11.978  19.678  0.00  0.00    +0.000 C 
ATOM     16  C   UNL     1      -0.081  10.555  20.193  0.00  0.00    +0.000 C 
ATOM     17  O   UNL     1      -1.426  10.157  19.861  0.00  0.00    +0.000 OA
ENDBRANCH   1  16
BRANCH   4  18
ATOM     18  C   UNL     1       3.700   6.830  17.684  0.00  0.00    +0.000 A 
ATOM     19  C   UNL     1       3.504   5.435  17.742  0.00  0.00    +0.000 A 
ATOM     20  C   UNL     1       4.373   4.544  17.106  0.00  0.00    +0.000 A 
ATOM     21  C   UNL     1       5.467   5.022  16.384  0.00  0.00    +0.000 A 
ATOM     22  C   UNL     1       5.673   6.400  16.287  0.00  0.00    +0.000 A 
ATOM     23  C   UNL     1       4.812   7.282  16.948  0.00  0.00    +0.000 A 
BRANCH  21  24
ATOM     24  C   UNL     1       6.341   4.037  15.692  0.00  0.00    +0.000 C 
ATOM     25  O   UNL     1       7.381   4.352  15.138  0.00  0.00    +0.000 OA
BRANCH  24  26
ATOM     26  O   UNL     1       5.868   2.771  15.701  0.00  0.00    +0.000 OA
ATOM     27  H   UNL     1       5.727   2.382  16.583  0.00  0.00    +0.000 HD
ENDBRANCH  24  26
ENDBRANCH  21  24
ENDBRANCH   4  18
TORSDOF 4
ENDMDL
MODEL 8
REMARK VINA RESULT:      -8.0      2.520      3.726
REMARK  Name = 
REMARK  4 active torsions:
REMARK  status: ('A' for Active; 'I' for Inactive)
REMARK    1  A    between atoms: C_10  and  C_11
REMARK    2  A    between atoms: C_14  and  C_15
REMARK    3  A    between atoms: C_18  and  C_19
REMARK    4  A    between atoms: C_19  and  O_21
REMARK                            x       y       z     vdW  Elec       q    Type
REMARK                         _______ _______ _______ _____ _____    ______ ____
ROOT
ATOM      1  C   UNL     1       1.059  10.200  19.071  0.00  0.00    +0.000 A 
ATOM      2  C   UNL     1       1.077   9.512  20.293  0.00  0.00    +0.000 A 
ATOM      3  C   UNL     1       1.612   8.223  20.399  0.00  0.00    +0.000 A 
ATOM      4  C   UNL     1       2.146   7.556  19.285  0.00  0.00    +0.000 A 
ATOM      5  C   UNL     1       2.147   8.264  18.069  0.00  0.00    +0.000 A 
ATOM      6  C   UNL     1       1.627   9.563  17.963  0.00  0.00    +0.000 A 
ENDROOT
BRANCH   1  16
ATOM      7  O   UNL     1      -3.265  12.212  24.061  0.00  0.00    +0.000 OA
ATOM      8  C   UNL     1      -2.464  12.211  23.134  0.00  0.00    +0.000 C 
ATOM      9  C   UNL     1      -1.503  11.102  22.947  0.00  0.00    +0.000 C 
ATOM     10  C   UNL     1      -0.809  11.004  21.804  0.00  0.00    +0.000 C 
ATOM     11  C   UNL     1      -0.934  11.971  20.665  0.00  0.00    +0.000 C 
ATOM     12  C   UNL     1      -1.648  13.231  21.059  0.00  0.00    +0.000 C 
ATOM     13  C   UNL     1      -2.388  13.339  22.175  0.00  0.00    +0.000 C 
ATOM     14  O   UNL     1      -1.721  11.376  19.621  0.00  0.00    +0.000 OA
ATOM     15  C   UNL     1      -0.978  11.644  18.429  0.00  0.00    +0.000 C 
ATOM     16  C   UNL     1       0.457  11.589  18.904  0.00  0.00    +0.000 C 
ATOM     17  O   UNL     1       0.381  12.259  20.177  0.00  0.00    +0.000 OA
ENDBRANCH   1  16
BRANCH   4  18
ATOM     18  C   UNL     1       2.678   6.176  19.387  0.00  0.00    +0.000 A 
ATOM     19  C   UNL     1       3.724   5.718  18.559  0.00  0.00    +0.000 A 
ATOM     20  C   UNL     1       4.233   4.421  18.670  0.00  0.00    +0.000 A 
ATOM     21  C   UNL     1       3.715   3.539  19.618  0.00  0.00    +0.000 A 
ATOM     22  C   UNL     1       2.696   3.972  20.470  0.00  0.00    +0.000 A 
ATOM     23  C   UNL     1       2.176   5.263  20.334  0.00  0.00    +0.000 A 
BRANCH  21  24
ATOM     24  C   UNL     1       4.317   2.182  19.723  0.00  0.00    +0.000 C 
ATOM     25  O   UNL     1       5.025   1.846  20.658  0.00  0.00    +0.000 OA
BRANCH  24  26
ATOM     26  O   UNL     1       4.039   1.368  18.681  0.00  0.00    +0.000 OA
ATOM     27  H   UNL     1       3.094   1.199  18.521  0.00  0.00    +0.000 HD
ENDBRANCH  24  26
ENDBRANCH  21  24
ENDBRANCH   4  18
TORSDOF 4
ENDMDL
MODEL 9
REMARK VINA RESULT:      -8.0      2.669      4.372
REMARK  Name = 
REMARK  4 active torsions:
REMARK  status: ('A' for Active; 'I' for Inactive)
REMARK    1  A    between atoms: C_10  and  C_11
REMARK    2  A    between atoms: C_14  and  C_15
REMARK    3  A    between atoms: C_18  and  C_19
REMARK    4  A    between atoms: C_19  and  O_21
REMARK                            x       y       z     vdW  Elec       q    Type
REMARK                         _______ _______ _______ _____ _____    ______ ____
ROOT
ATOM      1  C   UNL     1       0.005  11.034  19.307  0.00  0.00    +0.000 A 
ATOM      2  C   UNL     1       0.429  10.514  18.075  0.00  0.00    +0.000 A 
ATOM      3  C   UNL     1       1.176   9.332  17.999  0.00  0.00    +0.000 A 
ATOM      4  C   UNL     1       1.543   8.620  19.151  0.00  0.00    +0.000 A 
ATOM      5  C   UNL     1       1.092   9.136  20.380  0.00  0.00    +0.000 A 
ATOM      6  C   UNL     1       0.329  10.310  20.459  0.00  0.00    +0.000 A 
ENDROOT
BRANCH   1  16
ATOM      7  O   UNL     1       3.577  16.827  18.158  0.00  0.00    +0.000 OA
ATOM      8  C   UNL     1       2.669  16.014  18.270  0.00  0.00    +0.000 C 
ATOM      9  C   UNL     1       2.902  14.567  18.068  0.00  0.00    +0.000 C 
ATOM     10  C   UNL     1       1.961  13.681  18.428  0.00  0.00    +0.000 C 
ATOM     11  C   UNL     1       0.644  14.062  19.034  0.00  0.00    +0.000 C 
ATOM     12  C   UNL     1       0.347  15.525  18.885  0.00  0.00    +0.000 C 
ATOM     13  C   UNL     1       1.282  16.438  18.573  0.00  0.00    +0.000 C 
ATOM     14  O   UNL     1       0.678  13.802  20.446  0.00  0.00    +0.000 OA
ATOM     15  C   UNL     1      -0.555  13.126  20.707  0.00  0.00    +0.000 C 
ATOM     16  C   UNL     1      -0.780  12.332  19.438  0.00  0.00    +0.000 C 
ATOM     17  O   UNL     1      -0.377  13.268  18.419  0.00  0.00    +0.000 OA
ENDBRANCH   1  16
BRANCH   4  18
ATOM     18  C   UNL     1       2.367   7.389  19.075  0.00  0.00    +0.000 A 
ATOM     19  C   UNL     1       2.293   6.382  20.059  0.00  0.00    +0.000 A 
ATOM     20  C   UNL     1       3.060   5.217  19.975  0.00  0.00    +0.000 A 
ATOM     21  C   UNL     1       3.925   5.018  18.898  0.00  0.00    +0.000 A 
ATOM     22  C   UNL     1       4.000   5.986  17.894  0.00  0.00    +0.000 A 
ATOM     23  C   UNL     1       3.248   7.160  18.000  0.00  0.00    +0.000 A 
BRANCH  21  24
ATOM     24  C   UNL     1       4.690   3.744  18.833  0.00  0.00    +0.000 C 
ATOM     25  O   UNL     1       4.165   2.652  18.976  0.00  0.00    +0.000 OA
BRANCH  24  26
ATOM     26  O   UNL     1       6.018   3.901  18.637  0.00  0.00    +0.000 OA
ATOM     27  H   UNL     1       6.490   3.115  18.309  0.00  0.00    +0.000 HD
ENDBRANCH  24  26
ENDBRANCH  21  24
ENDBRANCH   4  18
TORSDOF 4
ENDMDL
