MODEL 1
REMARK VINA RESULT:      -6.3      0.000      0.000
REMARK  Name = 
REMARK  6 active torsions:
REMARK  status: ('A' for Active; 'I' for Inactive)
REMARK    1  A    between atoms: C_1  and  C_2
REMARK    2  A    between atoms: C_5  and  C_6
REMARK    3  A    between atoms: C_6  and  C_7
REMARK    4  A    between atoms: C_7  and  N_8
REMARK    5  A    between atoms: N_8  and  C_9
REMARK    6  A    between atoms: C_9  and  C_10
REMARK                            x       y       z     vdW  Elec       q    Type
REMARK                         _______ _______ _______ _____ _____    ______ ____
ROOT
ATOM      1  C   UNL     1       4.996   5.760  16.301  0.00  0.00    +0.000 C 
ENDROOT
BRANCH   1   6
ATOM      2  C   UNL     1       0.968   3.939  20.112  0.00  0.00    +0.000 C 
ATOM      3  C   UNL     1       2.014   4.412  19.145  0.00  0.00    +0.000 A 
ATOM      4  C   UNL     1       2.425   5.747  19.127  0.00  0.00    +0.000 A 
ATOM      5  C   UNL     1       3.387   6.179  18.210  0.00  0.00    +0.000 A 
ATOM      6  C   UNL     1       3.968   5.283  17.303  0.00  0.00    +0.000 A 
ATOM      7  C   UNL     1       3.552   3.945  17.321  0.00  0.00    +0.000 A 
ATOM      8  C   UNL     1       2.584   3.515  18.234  0.00  0.00    +0.000 A 
ENDBRANCH   1   6
BRANCH   1   9
ATOM      9  C   UNL     1       5.996   4.660  15.912  0.00  0.00    +0.000 C 
BRANCH   9  10
ATOM     10  N   UNL     1       7.362   5.016  16.307  0.00  0.00    +0.000 NA
ATOM     11  H   UNL     1       7.500   6.027  16.241  0.00  0.00    +0.000 HD
BRANCH  10  12
ATOM     12  C   UNL     1       7.643   4.573  17.696  0.00  0.00    +0.000 C 
BRANCH  12  13
ATOM     13  C   UNL     1       7.638   5.662  18.794  0.00  0.00    +0.000 C 
ATOM     14  F   UNL     1       7.892   6.894  18.301  0.00  0.00    +0.000 F 
ATOM     15  F   UNL     1       6.427   5.717  19.401  0.00  0.00    +0.000 F 
ATOM     16  F   UNL     1       8.557   5.399  19.749  0.00  0.00    +0.000 F 
ENDBRANCH  12  13
ENDBRANCH  10  12
ENDBRANCH   9  10
ENDBRANCH   1   9
TORSDOF 5
ENDMDL
MODEL 2
REMARK VINA RESULT:      -6.2      0.967      1.786
REMARK  Name = 
REMARK  6 active torsions:
REMARK  status: ('A' for Active; 'I' for Inactive)
REMARK    1  A    between atoms: C_1  and  C_2
REMARK    2  A    between atoms: C_5  and  C_6
REMARK    3  A    between atoms: C_6  and  C_7
REMARK    4  A    between atoms: C_7  and  N_8
REMARK    5  A    between atoms: N_8  and  C_9
REMARK    6  A    between atoms: C_9  and  C_10
REMARK                            x       y       z     vdW  Elec       q    Type
REMARK                         _______ _______ _______ _____ _____    ______ ____
ROOT
ATOM      1  C   UNL     1       4.990   4.383  16.014  0.00  0.00    +0.000 C 
ENDROOT
BRANCH   1   6
ATOM      2  C   UNL     1       0.971   4.021  20.230  0.00  0.00    +0.000 C 
ATOM      3  C   UNL     1       1.994   4.105  19.136  0.00  0.00    +0.000 A 
ATOM      4  C   UNL     1       2.544   2.950  18.574  0.00  0.00    +0.000 A 
ATOM      5  C   UNL     1       3.508   3.042  17.567  0.00  0.00    +0.000 A 
ATOM      6  C   UNL     1       3.933   4.290  17.092  0.00  0.00    +0.000 A 
ATOM      7  C   UNL     1       3.382   5.447  17.659  0.00  0.00    +0.000 A 
ATOM      8  C   UNL     1       2.422   5.354  18.671  0.00  0.00    +0.000 A 
ENDBRANCH   1   6
BRANCH   1   9
ATOM      9  C   UNL     1       5.450   5.827  15.762  0.00  0.00    +0.000 C 
BRANCH   9  10
ATOM     10  N   UNL     1       6.873   5.996  16.072  0.00  0.00    +0.000 NA
ATOM     11  H   UNL     1       7.307   6.646  15.412  0.00  0.00    +0.000 HD
BRANCH  10  12
ATOM     12  C   UNL     1       7.057   6.506  17.454  0.00  0.00    +0.000 C 
BRANCH  12  13
ATOM     13  C   UNL     1       7.421   5.468  18.541  0.00  0.00    +0.000 C 
ATOM     14  F   UNL     1       6.356   5.116  19.295  0.00  0.00    +0.000 F 
ATOM     15  F   UNL     1       7.900   4.335  17.973  0.00  0.00    +0.000 F 
ATOM     16  F   UNL     1       8.377   5.942  19.370  0.00  0.00    +0.000 F 
ENDBRANCH  12  13
ENDBRANCH  10  12
ENDBRANCH   9  10
ENDBRANCH   1   9
TORSDOF 5
ENDMDL
MODEL 3
REMARK VINA RESULT:      -6.1      3.365      5.472
REMARK  Name = 
REMARK  6 active torsions:
REMARK  status: ('A' for Active; 'I' for Inactive)
REMARK    1  A    between atoms: C_1  and  C_2
REMARK    2  A    between atoms: C_5  and  C_6
REMARK    3  A    between atoms: C_6  and  C_7
REMARK    4  A    between atoms: C_7  and  N_8
REMARK    5  A    between atoms: N_8  and  C_9
REMARK    6  A    between atoms: C_9  and  C_10
REMARK                            x       y       z     vdW  Elec       q    Type
REMARK                         _______ _______ _______ _____ _____    ______ ____
ROOT
ATOM      1  C   UNL     1       2.736   3.254  17.112  0.00  0.00    +0.000 C 
ENDROOT
BRANCH   1   6
ATOM      2  C   UNL     1       7.266   6.925  17.365  0.00  0.00    +0.000 C 
ATOM      3  C   UNL     1       6.111   5.969  17.306  0.00  0.00    +0.000 A 
ATOM      4  C   UNL     1       6.167   4.821  16.509  0.00  0.00    +0.000 A 
ATOM      5  C   UNL     1       5.078   3.948  16.450  0.00  0.00    +0.000 A 
ATOM      6  C   UNL     1       3.918   4.195  17.194  0.00  0.00    +0.000 A 
ATOM      7  C   UNL     1       3.863   5.347  17.990  0.00  0.00    +0.000 A 
ATOM      8  C   UNL     1       4.950   6.225  18.044  0.00  0.00    +0.000 A 
ENDBRANCH   1   6
BRANCH   1   9
ATOM      9  C   UNL     1       2.908   2.011  17.999  0.00  0.00    +0.000 C 
BRANCH   9  10
ATOM     10  N   UNL     1       1.683   1.717  18.749  0.00  0.00    +0.000 NA
ATOM     11  H   UNL     1       1.902   1.185  19.594  0.00  0.00    +0.000 HD
BRANCH  10  12
ATOM     12  C   UNL     1       0.980   2.969  19.126  0.00  0.00    +0.000 C 
BRANCH  12  13
ATOM     13  C   UNL     1       1.330   3.582  20.502  0.00  0.00    +0.000 C 
ATOM     14  F   UNL     1       0.747   4.786  20.694  0.00  0.00    +0.000 F 
ATOM     15  F   UNL     1       0.909   2.770  21.503  0.00  0.00    +0.000 F 
ATOM     16  F   UNL     1       2.665   3.740  20.643  0.00  0.00    +0.000 F 
ENDBRANCH  12  13
ENDBRANCH  10  12
ENDBRANCH   9  10
ENDBRANCH   1   9
TORSDOF 5
ENDMDL
MODEL 4
REMARK VINA RESULT:      -6.0      1.316      1.523
REMARK  Name = 
REMARK  6 active torsions:
REMARK  status: ('A' for Active; 'I' for Inactive)
REMARK    1  A    between atoms: C_1  and  C_2
REMARK    2  A    between atoms: C_5  and  C_6
REMARK    3  A    between atoms: C_6  and  C_7
REMARK    4  A    between atoms: C_7  and  N_8
REMARK    5  A    between atoms: N_8  and  C_9
REMARK    6  A    between atoms: C_9  and  C_10
REMARK                            x       y       z     vdW  Elec       q    Type
REMARK                         _______ _______ _______ _____ _____    ______ ____
ROOT
ATOM      1  C   UNL     1       5.126   3.992  16.418  0.00  0.00    +0.000 C 
ENDROOT
BRANCH   1   6
ATOM      2  C   UNL     1       1.024   3.496  20.539  0.00  0.00    +0.000 C 
ATOM      3  C   UNL     1       2.085   3.608  19.484  0.00  0.00    +0.000 A 
ATOM      4  C   UNL     1       3.441   3.587  19.822  0.00  0.00    +0.000 A 
ATOM      5  C   UNL     1       4.419   3.710  18.832  0.00  0.00    +0.000 A 
ATOM      6  C   UNL     1       4.063   3.842  17.483  0.00  0.00    +0.000 A 
ATOM      7  C   UNL     1       2.703   3.865  17.147  0.00  0.00    +0.000 A 
ATOM      8  C   UNL     1       1.724   3.749  18.139  0.00  0.00    +0.000 A 
ENDBRANCH   1   6
BRANCH   1   9
ATOM      9  C   UNL     1       5.205   5.422  15.859  0.00  0.00    +0.000 C 
BRANCH   9  10
ATOM     10  N   UNL     1       6.495   6.046  16.170  0.00  0.00    +0.000 NA
ATOM     11  H   UNL     1       6.702   6.788  15.498  0.00  0.00    +0.000 HD
BRANCH  10  12
ATOM     12  C   UNL     1       6.491   6.614  17.541  0.00  0.00    +0.000 C 
BRANCH  12  13
ATOM     13  C   UNL     1       7.493   6.012  18.553  0.00  0.00    +0.000 C 
ATOM     14  F   UNL     1       8.515   6.852  18.830  0.00  0.00    +0.000 F 
ATOM     15  F   UNL     1       6.874   5.736  19.727  0.00  0.00    +0.000 F 
ATOM     16  F   UNL     1       8.020   4.856  18.092  0.00  0.00    +0.000 F 
ENDBRANCH  12  13
ENDBRANCH  10  12
ENDBRANCH   9  10
ENDBRANCH   1   9
TORSDOF 5
ENDMDL
MODEL 5
REMARK VINA RESULT:      -6.0      3.791      5.723
REMARK  Name = 
REMARK  6 active torsions:
REMARK  status: ('A' for Active; 'I' for Inactive)
REMARK    1  A    between atoms: C_1  and  C_2
REMARK    2  A    between atoms: C_5  and  C_6
REMARK    3  A    between atoms: C_6  and  C_7
REMARK    4  A    between atoms: C_7  and  N_8
REMARK    5  A    between atoms: N_8  and  C_9
REMARK    6  A    between atoms: C_9  and  C_10
REMARK                            x       y       z     vdW  Elec       q    Type
REMARK                         _______ _______ _______ _____ _____    ______ ____
ROOT
ATOM      1  C   UNL     1       3.464   6.175  19.026  0.00  0.00    +0.000 C 
ENDROOT
BRANCH   1   6
ATOM      2  C   UNL     1       6.178   4.281  14.219  0.00  0.00    +0.000 C 
ATOM      3  C   UNL     1       5.492   4.761  15.464  0.00  0.00    +0.000 A 
ATOM      4  C   UNL     1       5.057   3.859  16.439  0.00  0.00    +0.000 A 
ATOM      5  C   UNL     1       4.405   4.318  17.586  0.00  0.00    +0.000 A 
ATOM      6  C   UNL     1       4.186   5.687  17.790  0.00  0.00    +0.000 A 
ATOM      7  C   UNL     1       4.621   6.589  16.809  0.00  0.00    +0.000 A 
ATOM      8  C   UNL     1       5.268   6.128  15.658  0.00  0.00    +0.000 A 
ENDBRANCH   1   6
BRANCH   1   9
ATOM      9  C   UNL     1       3.121   5.036  19.998  0.00  0.00    +0.000 C 
BRANCH   9  10
ATOM     10  N   UNL     1       1.678   4.965  20.249  0.00  0.00    +0.000 NA
ATOM     11  H   UNL     1       1.170   5.535  19.570  0.00  0.00    +0.000 HD
BRANCH  10  12
ATOM     12  C   UNL     1       1.196   3.563  20.170  0.00  0.00    +0.000 C 
BRANCH  12  13
ATOM     13  C   UNL     1       1.150   2.915  18.767  0.00  0.00    +0.000 C 
ATOM     14  F   UNL     1       0.073   2.116  18.603  0.00  0.00    +0.000 F 
ATOM     15  F   UNL     1       1.088   3.870  17.806  0.00  0.00    +0.000 F 
ATOM     16  F   UNL     1       2.256   2.176  18.531  0.00  0.00    +0.000 F 
ENDBRANCH  12  13
ENDBRANCH  10  12
ENDBRANCH   9  10
ENDBRANCH   1   9
TORSDOF 5
ENDMDL
MODEL 6
REMARK VINA RESULT:      -6.0      3.527      5.445
REMARK  Name = 
REMARK  6 active torsions:
REMARK  status: ('A' for Active; 'I' for Inactive)
REMARK    1  A    between atoms: C_1  and  C_2
REMARK    2  A    between atoms: C_5  and  C_6
REMARK    3  A    between atoms: C_6  and  C_7
REMARK    4  A    between atoms: C_7  and  N_8
REMARK    5  A    between atoms: N_8  and  C_9
REMARK    6  A    between atoms: C_9  and  C_10
REMARK                            x       y       z     vdW  Elec       q    Type
REMARK                         _______ _______ _______ _____ _____    ______ ____
ROOT
ATOM      1  C   UNL     1       2.386   4.146  17.961  0.00  0.00    +0.000 C 
ENDROOT
BRANCH   1   6
ATOM      2  C   UNL     1       7.687   6.572  18.246  0.00  0.00    +0.000 C 
ATOM      3  C   UNL     1       6.329   5.940  18.159  0.00  0.00    +0.000 A 
ATOM      4  C   UNL     1       5.505   6.155  17.050  0.00  0.00    +0.000 A 
ATOM      5  C   UNL     1       4.236   5.575  16.989  0.00  0.00    +0.000 A 
ATOM      6  C   UNL     1       3.768   4.758  18.026  0.00  0.00    +0.000 A 
ATOM      7  C   UNL     1       4.594   4.546  19.138  0.00  0.00    +0.000 A 
ATOM      8  C   UNL     1       5.862   5.132  19.202  0.00  0.00    +0.000 A 
ENDBRANCH   1   6
BRANCH   1   9
ATOM      9  C   UNL     1       2.421   2.634  17.693  0.00  0.00    +0.000 C 
BRANCH   9  10
ATOM     10  N   UNL     1       1.960   1.874  18.860  0.00  0.00    +0.000 NA
ATOM     11  H   UNL     1       2.758   1.494  19.375  0.00  0.00    +0.000 HD
BRANCH  10  12
ATOM     12  C   UNL     1       1.157   2.733  19.766  0.00  0.00    +0.000 C 
BRANCH  12  13
ATOM     13  C   UNL     1       1.748   3.023  21.165  0.00  0.00    +0.000 C 
ATOM     14  F   UNL     1       0.995   2.507  22.161  0.00  0.00    +0.000 F 
ATOM     15  F   UNL     1       2.985   2.480  21.278  0.00  0.00    +0.000 F 
ATOM     16  F   UNL     1       1.868   4.351  21.381  0.00  0.00    +0.000 F 
ENDBRANCH  12  13
ENDBRANCH  10  12
ENDBRANCH   9  10
ENDBRANCH   1   9
TORSDOF 5
ENDMDL
MODEL 7
REMARK VINA RESULT:      -6.0      3.416      5.497
REMARK  Name = 
REMARK  6 active torsions:
REMARK  status: ('A' for Active; 'I' for Inactive)
REMARK    1  A    between atoms: C_1  and  C_2
REMARK    2  A    between atoms: C_5  and  C_6
REMARK    3  A    between atoms: C_6  and  C_7
REMARK    4  A    between atoms: C_7  and  N_8
REMARK    5  A    between atoms: N_8  and  C_9
REMARK    6  A    between atoms: C_9  and  C_10
REMARK                            x       y       z     vdW  Elec       q    Type
REMARK                         _______ _______ _______ _____ _____    ______ ____
ROOT
ATOM      1  C   UNL     1       2.910   3.631  17.423  0.00  0.00    +0.000 C 
ENDROOT
BRANCH   1   6
ATOM      2  C   UNL     1       7.770   6.765  18.208  0.00  0.00    +0.000 C 
ATOM      3  C   UNL     1       6.513   5.969  18.017  0.00  0.00    +0.000 A 
ATOM      4  C   UNL     1       5.926   5.284  19.085  0.00  0.00    +0.000 A 
ATOM      5  C   UNL     1       4.765   4.532  18.891  0.00  0.00    +0.000 A 
ATOM      6  C   UNL     1       4.158   4.460  17.630  0.00  0.00    +0.000 A 
ATOM      7  C   UNL     1       4.749   5.146  16.561  0.00  0.00    +0.000 A 
ATOM      8  C   UNL     1       5.916   5.893  16.754  0.00  0.00    +0.000 A 
ENDBRANCH   1   6
BRANCH   1   9
ATOM      9  C   UNL     1       3.128   2.145  17.750  0.00  0.00    +0.000 C 
BRANCH   9  10
ATOM     10  N   UNL     1       2.359   1.740  18.930  0.00  0.00    +0.000 NA
ATOM     11  H   UNL     1       2.972   1.657  19.744  0.00  0.00    +0.000 HD
BRANCH  10  12
ATOM     12  C   UNL     1       1.285   2.721  19.224  0.00  0.00    +0.000 C 
BRANCH  12  13
ATOM     13  C   UNL     1       1.313   3.396  20.615  0.00  0.00    +0.000 C 
ATOM     14  F   UNL     1       0.749   2.628  21.573  0.00  0.00    +0.000 F 
ATOM     15  F   UNL     1       2.590   3.639  20.998  0.00  0.00    +0.000 F 
ATOM     16  F   UNL     1       0.663   4.581  20.598  0.00  0.00    +0.000 F 
ENDBRANCH  12  13
ENDBRANCH  10  12
ENDBRANCH   9  10
ENDBRANCH   1   9
TORSDOF 5
ENDMDL
MODEL 8
REMARK VINA RESULT:      -6.0      3.999      5.756
REMARK  Name = 
REMARK  6 active torsions:
REMARK  status: ('A' for Active; 'I' for Inactive)
REMARK    1  A    between atoms: C_1  and  C_2
REMARK    2  A    between atoms: C_5  and  C_6
REMARK    3  A    between atoms: C_6  and  C_7
REMARK    4  A    between atoms: C_7  and  N_8
REMARK    5  A    between atoms: N_8  and  C_9
REMARK    6  A    between atoms: C_9  and  C_10
REMARK                            x       y       z     vdW  Elec       q    Type
REMARK                         _______ _______ _______ _____ _____    ______ ____
ROOT
ATOM      1  C   UNL     1       2.414   5.436  18.404  0.00  0.00    +0.000 C 
ENDROOT
BRANCH   1   6
ATOM      2  C   UNL     1       6.975   4.844  14.811  0.00  0.00    +0.000 C 
ATOM      3  C   UNL     1       5.811   4.987  15.746  0.00  0.00    +0.000 A 
ATOM      4  C   UNL     1       5.122   3.865  16.215  0.00  0.00    +0.000 A 
ATOM      5  C   UNL     1       4.029   4.013  17.072  0.00  0.00    +0.000 A 
ATOM      6  C   UNL     1       3.610   5.282  17.489  0.00  0.00    +0.000 A 
ATOM      7  C   UNL     1       4.300   6.406  17.016  0.00  0.00    +0.000 A 
ATOM      8  C   UNL     1       5.391   6.258  16.153  0.00  0.00    +0.000 A 
ENDBRANCH   1   6
BRANCH   1   9
ATOM      9  C   UNL     1       2.761   6.166  19.711  0.00  0.00    +0.000 C 
BRANCH   9  10
ATOM     10  N   UNL     1       2.222   5.458  20.876  0.00  0.00    +0.000 NA
ATOM     11  H   UNL     1       1.206   5.563  20.918  0.00  0.00    +0.000 HD
BRANCH  10  12
ATOM     12  C   UNL     1       2.565   4.015  20.823  0.00  0.00    +0.000 C 
BRANCH  12  13
ATOM     13  C   UNL     1       1.385   3.015  20.784  0.00  0.00    +0.000 C 
ATOM     14  F   UNL     1       1.018   2.603  22.017  0.00  0.00    +0.000 F 
ATOM     15  F   UNL     1       0.297   3.588  20.215  0.00  0.00    +0.000 F 
ATOM     16  F   UNL     1       1.695   1.920  20.055  0.00  0.00    +0.000 F 
ENDBRANCH  12  13
ENDBRANCH  10  12
ENDBRANCH   9  10
ENDBRANCH   1   9
TORSDOF 5
ENDMDL
MODEL 9
REMARK VINA RESULT:      -6.0      1.075      1.843
REMARK  Name = 
REMARK  6 active torsions:
REMARK  status: ('A' for Active; 'I' for Inactive)
REMARK    1  A    between atoms: C_1  and  C_2
REMARK    2  A    between atoms: C_5  and  C_6
REMARK    3  A    between atoms: C_6  and  C_7
REMARK    4  A    between atoms: C_7  and  N_8
REMARK    5  A    between atoms: N_8  and  C_9
REMARK    6  A    between atoms: C_9  and  C_10
REMARK                            x       y       z     vdW  Elec       q    Type
REMARK                         _______ _______ _______ _____ _____    ______ ____
ROOT
ATOM      1  C   UNL     1       4.276   6.494  17.056  0.00  0.00    +0.000 C 
ENDROOT
BRANCH   1   6
ATOM      2  C   UNL     1       1.018   3.273  20.672  0.00  0.00    +0.000 C 
ATOM      3  C   UNL     1       1.842   4.103  19.733  0.00  0.00    +0.000 A 
ATOM      4  C   UNL     1       2.013   3.725  18.398  0.00  0.00    +0.000 A 
ATOM      5  C   UNL     1       2.797   4.497  17.537  0.00  0.00    +0.000 A 
ATOM      6  C   UNL     1       3.414   5.671  17.988  0.00  0.00    +0.000 A 
ATOM      7  C   UNL     1       3.244   6.047  19.327  0.00  0.00    +0.000 A 
ATOM      8  C   UNL     1       2.465   5.270  20.190  0.00  0.00    +0.000 A 
ENDBRANCH   1   6
BRANCH   1   9
ATOM      9  C   UNL     1       5.159   5.625  16.147  0.00  0.00    +0.000 C 
BRANCH   9  10
ATOM     10  N   UNL     1       6.542   6.113  16.121  0.00  0.00    +0.000 NA
ATOM     11  H   UNL     1       6.683   6.739  15.325  0.00  0.00    +0.000 HD
BRANCH  10  12
ATOM     12  C   UNL     1       6.871   6.835  17.376  0.00  0.00    +0.000 C 
BRANCH  12  13
ATOM     13  C   UNL     1       7.522   6.009  18.510  0.00  0.00    +0.000 C 
ATOM     14  F   UNL     1       8.044   4.845  18.066  0.00  0.00    +0.000 F 
ATOM     15  F   UNL     1       8.533   6.707  19.084  0.00  0.00    +0.000 F 
ATOM     16  F   UNL     1       6.628   5.720  19.481  0.00  0.00    +0.000 F 
ENDBRANCH  12  13
ENDBRANCH  10  12
ENDBRANCH   9  10
ENDBRANCH   1   9
TORSDOF 5
ENDMDL
