MODEL 1
REMARK VINA RESULT:      -8.2      0.000      0.000
REMARK  Name = 
REMARK  5 active torsions:
REMARK  status: ('A' for Active; 'I' for Inactive)
REMARK    1  A    between atoms: C_5  and  C_6
REMARK    2  A    between atoms: N_7  and  N_8
REMARK    3  A    between atoms: C_11  and  N_12
REMARK    4  A    between atoms: N_12  and  N_13
REMARK    5  A    between atoms: C_14  and  C_15
REMARK                            x       y       z     vdW  Elec       q    Type
REMARK                         _______ _______ _______ _____ _____    ______ ____
ROOT
ATOM      1  N   UNL     1       6.335   6.877  16.394  0.00  0.00    +0.000 N 
ATOM      2  C   UNL     1       7.208   7.237  17.375  0.00  0.00    +0.000 A 
ATOM      3  C   UNL     1       7.721   8.551  17.483  0.00  0.00    +0.000 A 
ATOM      4  C   UNL     1       8.544   8.519  18.575  0.00  0.00    +0.000 A 
ATOM      5  O   UNL     1       8.541   7.257  19.090  0.00  0.00    +0.000 OA
ATOM      6  N   UNL     1       7.685   6.458  18.354  0.00  0.00    +0.000 NA
ATOM      7  H   UNL     1       6.106   7.564  15.680  0.00  0.00    +0.000 HD
ENDROOT
BRANCH   1   9
ATOM      8  C   UNL     1       4.377   6.157  17.256  0.00  0.00    +0.000 C 
ATOM      9  N   UNL     1       5.449   5.862  16.598  0.00  0.00    +0.000 NA
BRANCH   8  14
ATOM     10 CL   UNL     1       0.506   1.873  18.813  0.00  0.00    +0.000 Cl
ATOM     11  C   UNL     1       1.610   3.108  18.348  0.00  0.00    +0.000 A 
ATOM     12  C   UNL     1       2.648   2.810  17.466  0.00  0.00    +0.000 A 
ATOM     13  C   UNL     1       3.545   3.811  17.096  0.00  0.00    +0.000 A 
ATOM     14  C   UNL     1       3.404   5.106  17.611  0.00  0.00    +0.000 A 
ATOM     15  C   UNL     1       2.362   5.403  18.494  0.00  0.00    +0.000 A 
ATOM     16  C   UNL     1       1.463   4.397  18.860  0.00  0.00    +0.000 A 
ENDBRANCH   8  14
ENDBRANCH   1   9
BRANCH   4  17
ATOM     17  N   UNL     1       9.299   9.464  19.184  0.00  0.00    +0.000 N 
ATOM     18  H   UNL     1       9.661   9.277  20.116  0.00  0.00    +0.000 HD
BRANCH  17  19
ATOM     19  N   UNL     1       9.290  10.736  18.719  0.00  0.00    +0.000 NA
ATOM     20  C   UNL     1      10.399  11.397  18.764  0.00  0.00    +0.000 C 
BRANCH  20  21
ATOM     21  C   UNL     1      10.430  12.802  18.309  0.00  0.00    +0.000 A 
ATOM     22  C   UNL     1      11.296  13.180  17.273  0.00  0.00    +0.000 A 
ATOM     23  C   UNL     1      11.354  14.511  16.862  0.00  0.00    +0.000 A 
ATOM     24  C   UNL     1      10.547  15.459  17.487  0.00  0.00    +0.000 A 
ATOM     25 CL   UNL     1      10.642  17.107  17.005  0.00  0.00    +0.000 Cl
ATOM     26  C   UNL     1       9.669  15.084  18.507  0.00  0.00    +0.000 A 
ATOM     27  C   UNL     1       9.604  13.749  18.920  0.00  0.00    +0.000 A 
ENDBRANCH  20  21
ENDBRANCH  17  19
ENDBRANCH   4  17
TORSDOF 5
ENDMDL
MODEL 2
REMARK VINA RESULT:      -7.9      0.616      1.054
REMARK  Name = 
REMARK  5 active torsions:
REMARK  status: ('A' for Active; 'I' for Inactive)
REMARK    1  A    between atoms: C_5  and  C_6
REMARK    2  A    between atoms: N_7  and  N_8
REMARK    3  A    between atoms: C_11  and  N_12
REMARK    4  A    between atoms: N_12  and  N_13
REMARK    5  A    between atoms: C_14  and  C_15
REMARK                            x       y       z     vdW  Elec       q    Type
REMARK                         _______ _______ _______ _____ _____    ______ ____
ROOT
ATOM      1  N   UNL     1       6.308   6.993  16.327  0.00  0.00    +0.000 N 
ATOM      2  C   UNL     1       7.179   7.285  17.332  0.00  0.00    +0.000 A 
ATOM      3  C   UNL     1       7.700   8.587  17.523  0.00  0.00    +0.000 A 
ATOM      4  C   UNL     1       8.517   8.482  18.615  0.00  0.00    +0.000 A 
ATOM      5  O   UNL     1       8.503   7.190  19.050  0.00  0.00    +0.000 OA
ATOM      6  N   UNL     1       7.646   6.444  18.262  0.00  0.00    +0.000 NA
ATOM      7  H   UNL     1       6.087   7.724  15.656  0.00  0.00    +0.000 HD
ENDROOT
BRANCH   1   9
ATOM      8  C   UNL     1       4.567   6.076  17.433  0.00  0.00    +0.000 C 
ATOM      9  N   UNL     1       5.415   5.973  16.464  0.00  0.00    +0.000 NA
BRANCH   8  14
ATOM     10 CL   UNL     1       0.747   1.665  18.741  0.00  0.00    +0.000 Cl
ATOM     11  C   UNL     1       1.846   2.928  18.345  0.00  0.00    +0.000 A 
ATOM     12  C   UNL     1       3.205   2.644  18.211  0.00  0.00    +0.000 A 
ATOM     13  C   UNL     1       4.094   3.671  17.897  0.00  0.00    +0.000 A 
ATOM     14  C   UNL     1       3.624   4.978  17.722  0.00  0.00    +0.000 A 
ATOM     15  C   UNL     1       2.261   5.261  17.855  0.00  0.00    +0.000 A 
ATOM     16  C   UNL     1       1.372   4.228  18.167  0.00  0.00    +0.000 A 
ENDBRANCH   8  14
ENDBRANCH   1   9
BRANCH   4  17
ATOM     17  N   UNL     1       9.274   9.383  19.284  0.00  0.00    +0.000 N 
ATOM     18  H   UNL     1       9.451   9.236  20.275  0.00  0.00    +0.000 HD
BRANCH  17  19
ATOM     19  N   UNL     1       9.506  10.603  18.744  0.00  0.00    +0.000 NA
ATOM     20  C   UNL     1      10.521  11.269  19.184  0.00  0.00    +0.000 C 
BRANCH  20  21
ATOM     21  C   UNL     1      10.790  12.623  18.657  0.00  0.00    +0.000 A 
ATOM     22  C   UNL     1      10.799  13.721  19.528  0.00  0.00    +0.000 A 
ATOM     23  C   UNL     1      11.018  15.004  19.031  0.00  0.00    +0.000 A 
ATOM     24  C   UNL     1      11.227  15.187  17.666  0.00  0.00    +0.000 A 
ATOM     25 CL   UNL     1      11.464  16.774  17.046  0.00  0.00    +0.000 Cl
ATOM     26  C   UNL     1      11.237  14.094  16.796  0.00  0.00    +0.000 A 
ATOM     27  C   UNL     1      11.022  12.803  17.291  0.00  0.00    +0.000 A 
ENDBRANCH  20  21
ENDBRANCH  17  19
ENDBRANCH   4  17
TORSDOF 5
ENDMDL
MODEL 3
REMARK VINA RESULT:      -7.8      0.384      1.041
REMARK  Name = 
REMARK  5 active torsions:
REMARK  status: ('A' for Active; 'I' for Inactive)
REMARK    1  A    between atoms: C_5  and  C_6
REMARK    2  A    between atoms: N_7  and  N_8
REMARK    3  A    between atoms: C_11  and  N_12
REMARK    4  A    between atoms: N_12  and  N_13
REMARK    5  A    between atoms: C_14  and  C_15
REMARK                            x       y       z     vdW  Elec       q    Type
REMARK                         _______ _______ _______ _____ _____    ______ ____
ROOT
ATOM      1  N   UNL     1       6.156   7.007  16.235  0.00  0.00    +0.000 N 
ATOM      2  C   UNL     1       7.065   7.274  17.213  0.00  0.00    +0.000 A 
ATOM      3  C   UNL     1       7.656   8.552  17.364  0.00  0.00    +0.000 A 
ATOM      4  C   UNL     1       8.494   8.427  18.438  0.00  0.00    +0.000 A 
ATOM      5  O   UNL     1       8.425   7.146  18.901  0.00  0.00    +0.000 OA
ATOM      6  N   UNL     1       7.512   6.430  18.150  0.00  0.00    +0.000 NA
ATOM      7  H   UNL     1       5.955   7.734  15.554  0.00  0.00    +0.000 HD
ENDROOT
BRANCH   1   9
ATOM      8  C   UNL     1       4.477   6.140  17.470  0.00  0.00    +0.000 C 
ATOM      9  N   UNL     1       5.216   6.037  16.415  0.00  0.00    +0.000 NA
BRANCH   8  14
ATOM     10 CL   UNL     1       0.445   1.895  18.688  0.00  0.00    +0.000 Cl
ATOM     11  C   UNL     1       1.612   3.114  18.357  0.00  0.00    +0.000 A 
ATOM     12  C   UNL     1       1.404   4.414  18.818  0.00  0.00    +0.000 A 
ATOM     13  C   UNL     1       2.349   5.401  18.541  0.00  0.00    +0.000 A 
ATOM     14  C   UNL     1       3.497   5.088  17.803  0.00  0.00    +0.000 A 
ATOM     15  C   UNL     1       3.705   3.784  17.342  0.00  0.00    +0.000 A 
ATOM     16  C   UNL     1       2.757   2.796  17.624  0.00  0.00    +0.000 A 
ENDBRANCH   8  14
ENDBRANCH   1   9
BRANCH   4  17
ATOM     17  N   UNL     1       9.312   9.301  19.069  0.00  0.00    +0.000 N 
ATOM     18  H   UNL     1       9.806   8.995  19.905  0.00  0.00    +0.000 HD
BRANCH  17  19
ATOM     19  N   UNL     1       9.220  10.625  18.802  0.00  0.00    +0.000 NA
ATOM     20  C   UNL     1      10.193  11.175  18.155  0.00  0.00    +0.000 C 
BRANCH  20  21
ATOM     21  C   UNL     1      10.157  12.625  17.878  0.00  0.00    +0.000 A 
ATOM     22  C   UNL     1      11.250  13.242  17.253  0.00  0.00    +0.000 A 
ATOM     23  C   UNL     1      11.237  14.617  17.020  0.00  0.00    +0.000 A 
ATOM     24  C   UNL     1      10.132  15.369  17.411  0.00  0.00    +0.000 A 
ATOM     25 CL   UNL     1      10.127  17.070  17.155  0.00  0.00    +0.000 Cl
ATOM     26  C   UNL     1       9.032  14.756  18.017  0.00  0.00    +0.000 A 
ATOM     27  C   UNL     1       9.040  13.377  18.250  0.00  0.00    +0.000 A 
ENDBRANCH  20  21
ENDBRANCH  17  19
ENDBRANCH   4  17
TORSDOF 5
ENDMDL
MODEL 4
REMARK VINA RESULT:      -7.7      0.904      1.469
REMARK  Name = 
REMARK  5 active torsions:
REMARK  status: ('A' for Active; 'I' for Inactive)
REMARK    1  A    between atoms: C_5  and  C_6
REMARK    2  A    between atoms: N_7  and  N_8
REMARK    3  A    between atoms: C_11  and  N_12
REMARK    4  A    between atoms: N_12  and  N_13
REMARK    5  A    between atoms: C_14  and  C_15
REMARK                            x       y       z     vdW  Elec       q    Type
REMARK                         _______ _______ _______ _____ _____    ______ ____
ROOT
ATOM      1  N   UNL     1       6.374   7.006  16.437  0.00  0.00    +0.000 N 
ATOM      2  C   UNL     1       7.257   7.372  17.406  0.00  0.00    +0.000 A 
ATOM      3  C   UNL     1       7.762   8.690  17.508  0.00  0.00    +0.000 A 
ATOM      4  C   UNL     1       8.599   8.663  18.590  0.00  0.00    +0.000 A 
ATOM      5  O   UNL     1       8.611   7.400  19.104  0.00  0.00    +0.000 OA
ATOM      6  N   UNL     1       7.752   6.596  18.378  0.00  0.00    +0.000 NA
ATOM      7  H   UNL     1       6.131   7.691  15.726  0.00  0.00    +0.000 HD
ENDROOT
BRANCH   1   9
ATOM      8  C   UNL     1       4.451   6.263  17.356  0.00  0.00    +0.000 C 
ATOM      9  N   UNL     1       5.498   5.985  16.651  0.00  0.00    +0.000 NA
BRANCH   8  14
ATOM     10 CL   UNL     1       0.495   1.993  18.728  0.00  0.00    +0.000 Cl
ATOM     11  C   UNL     1       1.643   3.218  18.351  0.00  0.00    +0.000 A 
ATOM     12  C   UNL     1       1.527   4.478  18.937  0.00  0.00    +0.000 A 
ATOM     13  C   UNL     1       2.455   5.471  18.624  0.00  0.00    +0.000 A 
ATOM     14  C   UNL     1       3.493   5.202  17.723  0.00  0.00    +0.000 A 
ATOM     15  C   UNL     1       3.609   3.938  17.138  0.00  0.00    +0.000 A 
ATOM     16  C   UNL     1       2.679   2.944  17.456  0.00  0.00    +0.000 A 
ENDBRANCH   8  14
ENDBRANCH   1   9
BRANCH   4  17
ATOM     17  N   UNL     1       9.355   9.613  19.189  0.00  0.00    +0.000 N 
ATOM     18  H   UNL     1       9.966   9.342  19.956  0.00  0.00    +0.000 HD
BRANCH  17  19
ATOM     19  N   UNL     1       9.061  10.923  19.006  0.00  0.00    +0.000 NA
ATOM     20  C   UNL     1      10.048  11.755  18.952  0.00  0.00    +0.000 C 
BRANCH  20  21
ATOM     21  C   UNL     1       9.776  13.199  18.797  0.00  0.00    +0.000 A 
ATOM     22  C   UNL     1       8.578  13.623  18.205  0.00  0.00    +0.000 A 
ATOM     23  C   UNL     1       8.332  14.983  18.025  0.00  0.00    +0.000 A 
ATOM     24  C   UNL     1       9.282  15.914  18.438  0.00  0.00    +0.000 A 
ATOM     25 CL   UNL     1       8.995  17.591  18.186  0.00  0.00    +0.000 Cl
ATOM     26  C   UNL     1      10.469  15.497  19.046  0.00  0.00    +0.000 A 
ATOM     27  C   UNL     1      10.719  14.134  19.232  0.00  0.00    +0.000 A 
ENDBRANCH  20  21
ENDBRANCH  17  19
ENDBRANCH   4  17
TORSDOF 5
ENDMDL
MODEL 5
REMARK VINA RESULT:      -7.6      1.739     10.787
REMARK  Name = 
REMARK  5 active torsions:
REMARK  status: ('A' for Active; 'I' for Inactive)
REMARK    1  A    between atoms: C_5  and  C_6
REMARK    2  A    between atoms: N_7  and  N_8
REMARK    3  A    between atoms: C_11  and  N_12
REMARK    4  A    between atoms: N_12  and  N_13
REMARK    5  A    between atoms: C_14  and  C_15
REMARK                            x       y       z     vdW  Elec       q    Type
REMARK                         _______ _______ _______ _____ _____    ______ ____
ROOT
ATOM      1  N   UNL     1       8.962   8.687  19.059  0.00  0.00    +0.000 N 
ATOM      2  C   UNL     1       8.229   7.904  18.220  0.00  0.00    +0.000 A 
ATOM      3  C   UNL     1       7.877   6.573  18.547  0.00  0.00    +0.000 A 
ATOM      4  C   UNL     1       7.151   6.128  17.476  0.00  0.00    +0.000 A 
ATOM      5  O   UNL     1       7.079   7.126  16.550  0.00  0.00    +0.000 OA
ATOM      6  N   UNL     1       7.733   8.248  17.025  0.00  0.00    +0.000 NA
ATOM      7  H   UNL     1       9.322   8.270  19.913  0.00  0.00    +0.000 HD
ENDROOT
BRANCH   1   9
ATOM      8  C   UNL     1       9.757  10.701  18.421  0.00  0.00    +0.000 C 
ATOM      9  N   UNL     1       8.827  10.043  19.030  0.00  0.00    +0.000 NA
BRANCH   8  14
ATOM     10 CL   UNL     1       9.612  16.679  18.334  0.00  0.00    +0.000 Cl
ATOM     11  C   UNL     1       9.672  14.960  18.369  0.00  0.00    +0.000 A 
ATOM     12  C   UNL     1      10.478  14.278  17.458  0.00  0.00    +0.000 A 
ATOM     13  C   UNL     1      10.518  12.884  17.485  0.00  0.00    +0.000 A 
ATOM     14  C   UNL     1       9.751  12.177  18.418  0.00  0.00    +0.000 A 
ATOM     15  C   UNL     1       8.944  12.862  19.332  0.00  0.00    +0.000 A 
ATOM     16  C   UNL     1       8.908  14.259  19.304  0.00  0.00    +0.000 A 
ENDBRANCH   8  14
ENDBRANCH   1   9
BRANCH   4  17
ATOM     17  N   UNL     1       6.535   4.953  17.209  0.00  0.00    +0.000 N 
ATOM     18  H   UNL     1       6.476   4.638  16.244  0.00  0.00    +0.000 HD
BRANCH  17  19
ATOM     19  N   UNL     1       5.735   4.383  18.142  0.00  0.00    +0.000 NA
ATOM     20  C   UNL     1       4.475   4.665  18.102  0.00  0.00    +0.000 C 
BRANCH  20  21
ATOM     21  C   UNL     1       3.569   4.103  19.124  0.00  0.00    +0.000 A 
ATOM     22  C   UNL     1       3.001   4.944  20.091  0.00  0.00    +0.000 A 
ATOM     23  C   UNL     1       2.173   4.414  21.078  0.00  0.00    +0.000 A 
ATOM     24  C   UNL     1       1.914   3.045  21.096  0.00  0.00    +0.000 A 
ATOM     25 CL   UNL     1       0.919   2.384  22.334  0.00  0.00    +0.000 Cl
ATOM     26  C   UNL     1       2.462   2.205  20.124  0.00  0.00    +0.000 A 
ATOM     27  C   UNL     1       3.291   2.733  19.129  0.00  0.00    +0.000 A 
ENDBRANCH  20  21
ENDBRANCH  17  19
ENDBRANCH   4  17
TORSDOF 5
ENDMDL
MODEL 6
REMARK VINA RESULT:      -7.6      0.929      1.103
REMARK  Name = 
REMARK  5 active torsions:
REMARK  status: ('A' for Active; 'I' for Inactive)
REMARK    1  A    between atoms: C_5  and  C_6
REMARK    2  A    between atoms: N_7  and  N_8
REMARK    3  A    between atoms: C_11  and  N_12
REMARK    4  A    between atoms: N_12  and  N_13
REMARK    5  A    between atoms: C_14  and  C_15
REMARK                            x       y       z     vdW  Elec       q    Type
REMARK                         _______ _______ _______ _____ _____    ______ ____
ROOT
ATOM      1  N   UNL     1       6.291   7.042  16.355  0.00  0.00    +0.000 N 
ATOM      2  C   UNL     1       7.179   7.354  17.339  0.00  0.00    +0.000 A 
ATOM      3  C   UNL     1       7.704   8.660  17.494  0.00  0.00    +0.000 A 
ATOM      4  C   UNL     1       8.540   8.576  18.574  0.00  0.00    +0.000 A 
ATOM      5  O   UNL     1       8.532   7.294  19.037  0.00  0.00    +0.000 OA
ATOM      6  N   UNL     1       7.661   6.533  18.279  0.00  0.00    +0.000 NA
ATOM      7  H   UNL     1       6.059   7.759  15.673  0.00  0.00    +0.000 HD
ENDROOT
BRANCH   1   9
ATOM      8  C   UNL     1       4.426   6.249  17.347  0.00  0.00    +0.000 C 
ATOM      9  N   UNL     1       5.400   6.027  16.528  0.00  0.00    +0.000 NA
BRANCH   8  14
ATOM     10 CL   UNL     1       0.593   1.893  18.798  0.00  0.00    +0.000 Cl
ATOM     11  C   UNL     1       1.687   3.147  18.362  0.00  0.00    +0.000 A 
ATOM     12  C   UNL     1       2.791   2.855  17.562  0.00  0.00    +0.000 A 
ATOM     13  C   UNL     1       3.679   3.872  17.216  0.00  0.00    +0.000 A 
ATOM     14  C   UNL     1       3.464   5.178  17.674  0.00  0.00    +0.000 A 
ATOM     15  C   UNL     1       2.356   5.470  18.476  0.00  0.00    +0.000 A 
ATOM     16  C   UNL     1       1.466   4.448  18.818  0.00  0.00    +0.000 A 
ENDBRANCH   8  14
ENDBRANCH   1   9
BRANCH   4  17
ATOM     17  N   UNL     1       9.309   9.490  19.211  0.00  0.00    +0.000 N 
ATOM     18  H   UNL     1       9.663   9.271  20.139  0.00  0.00    +0.000 HD
BRANCH  17  19
ATOM     19  N   UNL     1       9.327  10.774  18.781  0.00  0.00    +0.000 NA
ATOM     20  C   UNL     1       9.542  11.696  19.660  0.00  0.00    +0.000 C 
BRANCH  20  21
ATOM     21  C   UNL     1       9.528  13.115  19.247  0.00  0.00    +0.000 A 
ATOM     22  C   UNL     1       8.449  13.614  18.505  0.00  0.00    +0.000 A 
ATOM     23  C   UNL     1       8.447  14.943  18.083  0.00  0.00    +0.000 A 
ATOM     24  C   UNL     1       9.523  15.767  18.404  0.00  0.00    +0.000 A 
ATOM     25 CL   UNL     1       9.538  17.398  17.856  0.00  0.00    +0.000 Cl
ATOM     26  C   UNL     1      10.592  15.279  19.160  0.00  0.00    +0.000 A 
ATOM     27  C   UNL     1      10.597  13.948  19.588  0.00  0.00    +0.000 A 
ENDBRANCH  20  21
ENDBRANCH  17  19
ENDBRANCH   4  17
TORSDOF 5
ENDMDL
MODEL 7
REMARK VINA RESULT:      -7.5      8.017     10.834
REMARK  Name = 
REMARK  5 active torsions:
REMARK  status: ('A' for Active; 'I' for Inactive)
REMARK    1  A    between atoms: C_5  and  C_6
REMARK    2  A    between atoms: N_7  and  N_8
REMARK    3  A    between atoms: C_11  and  N_12
REMARK    4  A    between atoms: N_12  and  N_13
REMARK    5  A    between atoms: C_14  and  C_15
REMARK                            x       y       z     vdW  Elec       q    Type
REMARK                         _______ _______ _______ _____ _____    ______ ____
ROOT
ATOM      1  N   UNL     1       2.040   7.332  20.434  0.00  0.00    +0.000 N 
ATOM      2  C   UNL     1       1.358   8.500  20.585  0.00  0.00    +0.000 A 
ATOM      3  C   UNL     1       1.016   9.015  21.859  0.00  0.00    +0.000 A 
ATOM      4  C   UNL     1       0.355  10.184  21.600  0.00  0.00    +0.000 A 
ATOM      5  O   UNL     1       0.287  10.360  20.250  0.00  0.00    +0.000 OA
ATOM      6  N   UNL     1       0.936   9.318  19.613  0.00  0.00    +0.000 NA
ATOM      7  H   UNL     1       2.244   6.784  21.266  0.00  0.00    +0.000 HD
ENDROOT
BRANCH   1   9
ATOM      8  C   UNL     1       2.842   5.930  18.858  0.00  0.00    +0.000 C 
ATOM      9  N   UNL     1       2.825   7.129  19.340  0.00  0.00    +0.000 NA
BRANCH   8  14
ATOM     10 CL   UNL     1       6.564   4.514  14.396  0.00  0.00    +0.000 Cl
ATOM     11  C   UNL     1       5.479   4.927  15.666  0.00  0.00    +0.000 A 
ATOM     12  C   UNL     1       5.321   6.263  16.032  0.00  0.00    +0.000 A 
ATOM     13  C   UNL     1       4.446   6.594  17.066  0.00  0.00    +0.000 A 
ATOM     14  C   UNL     1       3.735   5.588  17.733  0.00  0.00    +0.000 A 
ATOM     15  C   UNL     1       3.894   4.249  17.364  0.00  0.00    +0.000 A 
ATOM     16  C   UNL     1       4.770   3.922  16.325  0.00  0.00    +0.000 A 
ENDBRANCH   8  14
ENDBRANCH   1   9
BRANCH   4  17
ATOM     17  N   UNL     1      -0.196  11.124  22.404  0.00  0.00    +0.000 N 
ATOM     18  H   UNL     1       0.341  11.467  23.196  0.00  0.00    +0.000 HD
BRANCH  17  19
ATOM     19  N   UNL     1      -1.531  11.351  22.359  0.00  0.00    +0.000 NA
ATOM     20  C   UNL     1      -2.023  12.192  23.207  0.00  0.00    +0.000 C 
BRANCH  20  21
ATOM     21  C   UNL     1      -3.479  12.441  23.226  0.00  0.00    +0.000 A 
ATOM     22  C   UNL     1      -4.159  12.689  22.025  0.00  0.00    +0.000 A 
ATOM     23  C   UNL     1      -5.527  12.958  22.041  0.00  0.00    +0.000 A 
ATOM     24  C   UNL     1      -6.210  12.978  23.254  0.00  0.00    +0.000 A 
ATOM     25 CL   UNL     1      -7.890  13.344  23.279  0.00  0.00    +0.000 Cl
ATOM     26  C   UNL     1      -5.540  12.713  24.452  0.00  0.00    +0.000 A 
ATOM     27  C   UNL     1      -4.168  12.439  24.441  0.00  0.00    +0.000 A 
ENDBRANCH  20  21
ENDBRANCH  17  19
ENDBRANCH   4  17
TORSDOF 5
ENDMDL
MODEL 8
REMARK VINA RESULT:      -7.4      3.227      3.761
REMARK  Name = 
REMARK  5 active torsions:
REMARK  status: ('A' for Active; 'I' for Inactive)
REMARK    1  A    between atoms: C_5  and  C_6
REMARK    2  A    between atoms: N_7  and  N_8
REMARK    3  A    between atoms: C_11  and  N_12
REMARK    4  A    between atoms: N_12  and  N_13
REMARK    5  A    between atoms: C_14  and  C_15
REMARK                            x       y       z     vdW  Elec       q    Type
REMARK                         _______ _______ _______ _____ _____    ______ ____
ROOT
ATOM      1  N   UNL     1       6.641   7.332  16.661  0.00  0.00    +0.000 N 
ATOM      2  C   UNL     1       7.514   7.808  17.591  0.00  0.00    +0.000 A 
ATOM      3  C   UNL     1       7.927   9.162  17.614  0.00  0.00    +0.000 A 
ATOM      4  C   UNL     1       8.784   9.250  18.676  0.00  0.00    +0.000 A 
ATOM      5  O   UNL     1       8.895   8.020  19.254  0.00  0.00    +0.000 OA
ATOM      6  N   UNL     1       8.081   7.121  18.590  0.00  0.00    +0.000 NA
ATOM      7  H   UNL     1       6.336   7.961  15.922  0.00  0.00    +0.000 HD
ENDROOT
BRANCH   1   9
ATOM      8  C   UNL     1       4.588   6.515  17.122  0.00  0.00    +0.000 C 
ATOM      9  N   UNL     1       5.843   6.265  16.947  0.00  0.00    +0.000 NA
BRANCH   8  14
ATOM     10 CL   UNL     1       0.901   2.154  18.899  0.00  0.00    +0.000 Cl
ATOM     11  C   UNL     1       1.953   3.409  18.370  0.00  0.00    +0.000 A 
ATOM     12  C   UNL     1       3.030   3.104  17.540  0.00  0.00    +0.000 A 
ATOM     13  C   UNL     1       3.885   4.122  17.118  0.00  0.00    +0.000 A 
ATOM     14  C   UNL     1       3.661   5.442  17.530  0.00  0.00    +0.000 A 
ATOM     15  C   UNL     1       2.578   5.747  18.361  0.00  0.00    +0.000 A 
ATOM     16  C   UNL     1       1.723   4.724  18.779  0.00  0.00    +0.000 A 
ENDBRANCH   8  14
ENDBRANCH   1   9
BRANCH   4  17
ATOM     17  N   UNL     1       9.482  10.280  19.209  0.00  0.00    +0.000 N 
ATOM     18  H   UNL     1      10.335  10.586  18.747  0.00  0.00    +0.000 HD
BRANCH  17  19
ATOM     19  N   UNL     1       9.246  10.666  20.486  0.00  0.00    +0.000 NA
ATOM     20  C   UNL     1       8.907  11.897  20.685  0.00  0.00    +0.000 C 
BRANCH  20  21
ATOM     21  C   UNL     1       8.681  12.377  22.064  0.00  0.00    +0.000 A 
ATOM     22  C   UNL     1       8.920  13.721  22.382  0.00  0.00    +0.000 A 
ATOM     23  C   UNL     1       8.741  14.171  23.689  0.00  0.00    +0.000 A 
ATOM     24  C   UNL     1       8.322  13.278  24.673  0.00  0.00    +0.000 A 
ATOM     25 CL   UNL     1       8.133  13.824  26.293  0.00  0.00    +0.000 Cl
ATOM     26  C   UNL     1       8.064  11.942  24.357  0.00  0.00    +0.000 A 
ATOM     27  C   UNL     1       8.240  11.486  23.046  0.00  0.00    +0.000 A 
ENDBRANCH  20  21
ENDBRANCH  17  19
ENDBRANCH   4  17
TORSDOF 5
ENDMDL
MODEL 9
REMARK VINA RESULT:      -7.3      7.982     10.764
REMARK  Name = 
REMARK  5 active torsions:
REMARK  status: ('A' for Active; 'I' for Inactive)
REMARK    1  A    between atoms: C_5  and  C_6
REMARK    2  A    between atoms: N_7  and  N_8
REMARK    3  A    between atoms: C_11  and  N_12
REMARK    4  A    between atoms: N_12  and  N_13
REMARK    5  A    between atoms: C_14  and  C_15
REMARK                            x       y       z     vdW  Elec       q    Type
REMARK                         _______ _______ _______ _____ _____    ______ ____
ROOT
ATOM      1  N   UNL     1       1.853   7.280  20.476  0.00  0.00    +0.000 N 
ATOM      2  C   UNL     1       1.227   8.483  20.601  0.00  0.00    +0.000 A 
ATOM      3  C   UNL     1       1.038   9.107  21.857  0.00  0.00    +0.000 A 
ATOM      4  C   UNL     1       0.389  10.278  21.574  0.00  0.00    +0.000 A 
ATOM      5  O   UNL     1       0.185  10.351  20.228  0.00  0.00    +0.000 OA
ATOM      6  N   UNL     1       0.731   9.239  19.614  0.00  0.00    +0.000 NA
ATOM      7  H   UNL     1       2.127   6.791  21.324  0.00  0.00    +0.000 HD
ENDROOT
BRANCH   1   9
ATOM      8  C   UNL     1       3.049   5.788  19.276  0.00  0.00    +0.000 C 
ATOM      9  N   UNL     1       2.512   6.963  19.327  0.00  0.00    +0.000 NA
BRANCH   8  14
ATOM     10 CL   UNL     1       6.239   4.180  14.480  0.00  0.00    +0.000 Cl
ATOM     11  C   UNL     1       5.337   4.639  15.872  0.00  0.00    +0.000 A 
ATOM     12  C   UNL     1       4.798   3.657  16.701  0.00  0.00    +0.000 A 
ATOM     13  C   UNL     1       4.062   4.032  17.824  0.00  0.00    +0.000 A 
ATOM     14  C   UNL     1       3.864   5.388  18.113  0.00  0.00    +0.000 A 
ATOM     15  C   UNL     1       4.407   6.372  17.282  0.00  0.00    +0.000 A 
ATOM     16  C   UNL     1       5.147   5.992  16.158  0.00  0.00    +0.000 A 
ENDBRANCH   8  14
ENDBRANCH   1   9
BRANCH   4  17
ATOM     17  N   UNL     1      -0.045  11.298  22.351  0.00  0.00    +0.000 N 
ATOM     18  H   UNL     1       0.501  11.558  23.169  0.00  0.00    +0.000 HD
BRANCH  17  19
ATOM     19  N   UNL     1      -1.323  11.732  22.242  0.00  0.00    +0.000 NA
ATOM     20  C   UNL     1      -1.995  11.893  23.333  0.00  0.00    +0.000 C 
BRANCH  20  21
ATOM     21  C   UNL     1      -3.407  12.324  23.263  0.00  0.00    +0.000 A 
ATOM     22  C   UNL     1      -4.190  12.333  24.426  0.00  0.00    +0.000 A 
ATOM     23  C   UNL     1      -5.532  12.706  24.360  0.00  0.00    +0.000 A 
ATOM     24  C   UNL     1      -6.085  13.069  23.134  0.00  0.00    +0.000 A 
ATOM     25 CL   UNL     1      -7.749  13.497  23.045  0.00  0.00    +0.000 Cl
ATOM     26  C   UNL     1      -5.303  13.079  21.976  0.00  0.00    +0.000 A 
ATOM     27  C   UNL     1      -3.956  12.709  22.038  0.00  0.00    +0.000 A 
ENDBRANCH  20  21
ENDBRANCH  17  19
ENDBRANCH   4  17
TORSDOF 5
ENDMDL
