MODEL 1
REMARK VINA RESULT:      -6.8      0.000      0.000
REMARK  Name = 
REMARK  8 active torsions:
REMARK  status: ('A' for Active; 'I' for Inactive)
REMARK    1  A    between atoms: C_1  and  C_2
REMARK    2  A    between atoms: C_2  and  O_3
REMARK    3  A    between atoms: O_3  and  C_4
REMARK    4  A    between atoms: C_7  and  N_8
REMARK    5  A    between atoms: C_9  and  C_11
REMARK    6  A    between atoms: C_11  and  C_12
REMARK    7  A    between atoms: C_12  and  C_13
REMARK    8  A    between atoms: C_16  and  C_17
REMARK                            x       y       z     vdW  Elec       q    Type
REMARK                         _______ _______ _______ _____ _____    ______ ____
ROOT
ATOM      1  N   UNL     1       4.044   5.684  19.127  0.00  0.00    +0.000 N 
ATOM      2  C   UNL     1       2.779   6.247  19.074  0.00  0.00    +0.000 C 
ATOM      3  O   UNL     1       2.223   6.708  18.082  0.00  0.00    +0.000 OA
ATOM      4  H   UNL     1       4.351   5.301  20.012  0.00  0.00    +0.000 HD
ENDROOT
BRANCH   1   8
ATOM      5  C   UNL     1       6.848   5.392  15.971  0.00  0.00    +0.000 A 
ATOM      6  C   UNL     1       5.692   4.623  15.940  0.00  0.00    +0.000 A 
ATOM      7  C   UNL     1       4.747   4.715  16.965  0.00  0.00    +0.000 A 
ATOM      8  C   UNL     1       4.956   5.561  18.052  0.00  0.00    +0.000 A 
ATOM      9  C   UNL     1       6.131   6.325  18.090  0.00  0.00    +0.000 A 
ATOM     10  C   UNL     1       7.079   6.235  17.059  0.00  0.00    +0.000 A 
BRANCH   5  11
ATOM     11  O   UNL     1       7.679   5.218  14.903  0.00  0.00    +0.000 OA
BRANCH  11  13
ATOM     12  C   UNL     1       7.829   5.306  12.532  0.00  0.00    +0.000 C 
ATOM     13  C   UNL     1       7.082   4.711  13.711  0.00  0.00    +0.000 C 
ENDBRANCH  11  13
ENDBRANCH   5  11
ENDBRANCH   1   8
BRANCH   2  14
ATOM     14  C   UNL     1       2.059   6.259  20.406  0.00  0.00    +0.000 C 
BRANCH  14  15
ATOM     15  C   UNL     1       2.152   4.908  21.097  0.00  0.00    +0.000 C 
BRANCH  15  16
ATOM     16  C   UNL     1       1.909   3.796  20.149  0.00  0.00    +0.000 A 
ATOM     17  C   UNL     1       0.770   3.255  19.593  0.00  0.00    +0.000 A 
ATOM     18  C   UNL     1       1.199   2.184  18.773  0.00  0.00    +0.000 A 
ATOM     19  C   UNL     1       2.573   2.141  18.877  0.00  0.00    +0.000 A 
ATOM     20  C   UNL     1       3.612   1.275  18.288  0.00  0.00    +0.000 C 
ATOM     21  O   UNL     1       3.011   3.124  19.712  0.00  0.00    +0.000 OA
ENDBRANCH  15  16
ENDBRANCH  14  15
ENDBRANCH   2  14
TORSDOF 6
ENDMDL
MODEL 2
REMARK VINA RESULT:      -6.7      3.845      7.808
REMARK  Name = 
REMARK  8 active torsions:
REMARK  status: ('A' for Active; 'I' for Inactive)
REMARK    1  A    between atoms: C_1  and  C_2
REMARK    2  A    between atoms: C_2  and  O_3
REMARK    3  A    between atoms: O_3  and  C_4
REMARK    4  A    between atoms: C_7  and  N_8
REMARK    5  A    between atoms: C_9  and  C_11
REMARK    6  A    between atoms: C_11  and  C_12
REMARK    7  A    between atoms: C_12  and  C_13
REMARK    8  A    between atoms: C_16  and  C_17
REMARK                            x       y       z     vdW  Elec       q    Type
REMARK                         _______ _______ _______ _____ _____    ______ ____
ROOT
ATOM      1  N   UNL     1       5.488   6.996  17.206  0.00  0.00    +0.000 N 
ATOM      2  C   UNL     1       6.749   6.923  17.775  0.00  0.00    +0.000 C 
ATOM      3  O   UNL     1       7.185   6.014  18.474  0.00  0.00    +0.000 OA
ATOM      4  H   UNL     1       5.286   7.790  16.611  0.00  0.00    +0.000 HD
ENDROOT
BRANCH   1   8
ATOM      5  C   UNL     1       2.296   4.258  17.675  0.00  0.00    +0.000 A 
ATOM      6  C   UNL     1       3.472   3.848  17.061  0.00  0.00    +0.000 A 
ATOM      7  C   UNL     1       4.542   4.733  16.909  0.00  0.00    +0.000 A 
ATOM      8  C   UNL     1       4.444   6.051  17.346  0.00  0.00    +0.000 A 
ATOM      9  C   UNL     1       3.250   6.468  17.952  0.00  0.00    +0.000 A 
ATOM     10  C   UNL     1       2.175   5.579  18.108  0.00  0.00    +0.000 A 
BRANCH   5  11
ATOM     11  O   UNL     1       1.335   3.293  17.773  0.00  0.00    +0.000 OA
BRANCH  11  13
ATOM     12  C   UNL     1       1.141   2.961  20.119  0.00  0.00    +0.000 C 
ATOM     13  C   UNL     1       1.519   2.318  18.797  0.00  0.00    +0.000 C 
ENDBRANCH  11  13
ENDBRANCH   5  11
ENDBRANCH   1   8
BRANCH   2  14
ATOM     14  C   UNL     1       7.632   8.112  17.461  0.00  0.00    +0.000 C 
BRANCH  14  15
ATOM     15  C   UNL     1       8.625   8.373  18.582  0.00  0.00    +0.000 C 
BRANCH  15  16
ATOM     16  C   UNL     1       8.918   9.819  18.722  0.00  0.00    +0.000 A 
ATOM     17  C   UNL     1       8.843  10.890  17.858  0.00  0.00    +0.000 A 
ATOM     18  C   UNL     1       9.284  12.020  18.588  0.00  0.00    +0.000 A 
ATOM     19  C   UNL     1       9.596  11.568  19.851  0.00  0.00    +0.000 A 
ATOM     20  C   UNL     1      10.105  12.226  21.070  0.00  0.00    +0.000 C 
ATOM     21  O   UNL     1       9.371  10.228  19.940  0.00  0.00    +0.000 OA
ENDBRANCH  15  16
ENDBRANCH  14  15
ENDBRANCH   2  14
TORSDOF 6
ENDMDL
MODEL 3
REMARK VINA RESULT:      -6.6      2.529      4.300
REMARK  Name = 
REMARK  8 active torsions:
REMARK  status: ('A' for Active; 'I' for Inactive)
REMARK    1  A    between atoms: C_1  and  C_2
REMARK    2  A    between atoms: C_2  and  O_3
REMARK    3  A    between atoms: O_3  and  C_4
REMARK    4  A    between atoms: C_7  and  N_8
REMARK    5  A    between atoms: C_9  and  C_11
REMARK    6  A    between atoms: C_11  and  C_12
REMARK    7  A    between atoms: C_12  and  C_13
REMARK    8  A    between atoms: C_16  and  C_17
REMARK                            x       y       z     vdW  Elec       q    Type
REMARK                         _______ _______ _______ _____ _____    ______ ____
ROOT
ATOM      1  N   UNL     1       6.785   5.683  15.893  0.00  0.00    +0.000 N 
ATOM      2  C   UNL     1       7.486   5.279  17.018  0.00  0.00    +0.000 C 
ATOM      3  O   UNL     1       8.086   4.218  17.165  0.00  0.00    +0.000 OA
ATOM      4  H   UNL     1       6.380   6.610  15.902  0.00  0.00    +0.000 HD
ENDROOT
BRANCH   1   8
ATOM      5  C   UNL     1       6.327   3.500  12.298  0.00  0.00    +0.000 A 
ATOM      6  C   UNL     1       5.393   3.357  13.316  0.00  0.00    +0.000 A 
ATOM      7  C   UNL     1       5.519   4.078  14.505  0.00  0.00    +0.000 A 
ATOM      8  C   UNL     1       6.597   4.938  14.706  0.00  0.00    +0.000 A 
ATOM      9  C   UNL     1       7.547   5.070  13.683  0.00  0.00    +0.000 A 
ATOM     10  C   UNL     1       7.420   4.347  12.487  0.00  0.00    +0.000 A 
BRANCH   5  11
ATOM     11  O   UNL     1       6.080   2.749  11.185  0.00  0.00    +0.000 OA
BRANCH  11  13
ATOM     12  C   UNL     1       6.140   0.373  11.190  0.00  0.00    +0.000 C 
ATOM     13  C   UNL     1       6.947   1.638  10.965  0.00  0.00    +0.000 C 
ENDBRANCH  11  13
ENDBRANCH   5  11
ENDBRANCH   1   8
BRANCH   2  14
ATOM     14  C   UNL     1       7.478   6.292  18.142  0.00  0.00    +0.000 C 
BRANCH  14  15
ATOM     15  C   UNL     1       6.959   5.681  19.434  0.00  0.00    +0.000 C 
BRANCH  15  16
ATOM     16  C   UNL     1       5.599   5.120  19.261  0.00  0.00    +0.000 A 
ATOM     17  C   UNL     1       4.362   5.683  19.035  0.00  0.00    +0.000 A 
ATOM     18  C   UNL     1       3.441   4.610  18.985  0.00  0.00    +0.000 A 
ATOM     19  C   UNL     1       4.174   3.459  19.181  0.00  0.00    +0.000 A 
ATOM     20  C   UNL     1       3.823   2.028  19.245  0.00  0.00    +0.000 C 
ATOM     21  O   UNL     1       5.491   3.765  19.345  0.00  0.00    +0.000 OA
ENDBRANCH  15  16
ENDBRANCH  14  15
ENDBRANCH   2  14
TORSDOF 6
ENDMDL
MODEL 4
REMARK VINA RESULT:      -6.6      2.488      4.316
REMARK  Name = 
REMARK  8 active torsions:
REMARK  status: ('A' for Active; 'I' for Inactive)
REMARK    1  A    between atoms: C_1  and  C_2
REMARK    2  A    between atoms: C_2  and  O_3
REMARK    3  A    between atoms: O_3  and  C_4
REMARK    4  A    between atoms: C_7  and  N_8
REMARK    5  A    between atoms: C_9  and  C_11
REMARK    6  A    between atoms: C_11  and  C_12
REMARK    7  A    between atoms: C_12  and  C_13
REMARK    8  A    between atoms: C_16  and  C_17
REMARK                            x       y       z     vdW  Elec       q    Type
REMARK                         _______ _______ _______ _____ _____    ______ ____
ROOT
ATOM      1  N   UNL     1       6.789   5.660  15.948  0.00  0.00    +0.000 N 
ATOM      2  C   UNL     1       7.488   5.250  17.071  0.00  0.00    +0.000 C 
ATOM      3  O   UNL     1       8.131   4.212  17.196  0.00  0.00    +0.000 OA
ATOM      4  H   UNL     1       6.344   6.569  15.978  0.00  0.00    +0.000 HD
ENDROOT
BRANCH   1   8
ATOM      5  C   UNL     1       6.267   3.478  12.360  0.00  0.00    +0.000 A 
ATOM      6  C   UNL     1       7.355   4.329  12.498  0.00  0.00    +0.000 A 
ATOM      7  C   UNL     1       7.553   5.048  13.679  0.00  0.00    +0.000 A 
ATOM      8  C   UNL     1       6.650   4.946  14.735  0.00  0.00    +0.000 A 
ATOM      9  C   UNL     1       5.542   4.098  14.588  0.00  0.00    +0.000 A 
ATOM     10  C   UNL     1       5.345   3.373  13.403  0.00  0.00    +0.000 A 
BRANCH   5  11
ATOM     11  O   UNL     1       6.199   2.825  11.164  0.00  0.00    +0.000 OA
BRANCH  11  13
ATOM     12  C   UNL     1       6.184   0.448  11.179  0.00  0.00    +0.000 C 
ATOM     13  C   UNL     1       7.045   1.687  11.013  0.00  0.00    +0.000 C 
ENDBRANCH  11  13
ENDBRANCH   5  11
ENDBRANCH   1   8
BRANCH   2  14
ATOM     14  C   UNL     1       7.421   6.227  18.225  0.00  0.00    +0.000 C 
BRANCH  14  15
ATOM     15  C   UNL     1       6.817   5.581  19.462  0.00  0.00    +0.000 C 
BRANCH  15  16
ATOM     16  C   UNL     1       5.469   5.031  19.183  0.00  0.00    +0.000 A 
ATOM     17  C   UNL     1       4.259   5.604  18.861  0.00  0.00    +0.000 A 
ATOM     18  C   UNL     1       3.335   4.539  18.740  0.00  0.00    +0.000 A 
ATOM     19  C   UNL     1       4.041   3.382  18.993  0.00  0.00    +0.000 A 
ATOM     20  C   UNL     1       3.674   1.954  19.030  0.00  0.00    +0.000 C 
ATOM     21  O   UNL     1       5.344   3.677  19.260  0.00  0.00    +0.000 OA
ENDBRANCH  15  16
ENDBRANCH  14  15
ENDBRANCH   2  14
TORSDOF 6
ENDMDL
MODEL 5
REMARK VINA RESULT:      -6.6      2.834      5.853
REMARK  Name = 
REMARK  8 active torsions:
REMARK  status: ('A' for Active; 'I' for Inactive)
REMARK    1  A    between atoms: C_1  and  C_2
REMARK    2  A    between atoms: C_2  and  O_3
REMARK    3  A    between atoms: O_3  and  C_4
REMARK    4  A    between atoms: C_7  and  N_8
REMARK    5  A    between atoms: C_9  and  C_11
REMARK    6  A    between atoms: C_11  and  C_12
REMARK    7  A    between atoms: C_12  and  C_13
REMARK    8  A    between atoms: C_16  and  C_17
REMARK                            x       y       z     vdW  Elec       q    Type
REMARK                         _______ _______ _______ _____ _____    ______ ____
ROOT
ATOM      1  N   UNL     1       2.821   5.854  20.196  0.00  0.00    +0.000 N 
ATOM      2  C   UNL     1       2.281   4.601  19.956  0.00  0.00    +0.000 C 
ATOM      3  O   UNL     1       1.265   4.351  19.314  0.00  0.00    +0.000 OA
ATOM      4  H   UNL     1       3.695   5.898  20.705  0.00  0.00    +0.000 HD
ENDROOT
BRANCH   1   8
ATOM      5  C   UNL     1       1.271   9.544  18.822  0.00  0.00    +0.000 A 
ATOM      6  C   UNL     1       1.044   9.145  20.133  0.00  0.00    +0.000 A 
ATOM      7  C   UNL     1       1.558   7.937  20.609  0.00  0.00    +0.000 A 
ATOM      8  C   UNL     1       2.289   7.095  19.774  0.00  0.00    +0.000 A 
ATOM      9  C   UNL     1       2.504   7.491  18.447  0.00  0.00    +0.000 A 
ATOM     10  C   UNL     1       1.990   8.707  17.968  0.00  0.00    +0.000 A 
BRANCH   5  11
ATOM     11  O   UNL     1       0.726  10.749  18.488  0.00  0.00    +0.000 OA
BRANCH  11  13
ATOM     12  C   UNL     1       2.363  12.457  18.251  0.00  0.00    +0.000 C 
ATOM     13  C   UNL     1       1.271  11.894  19.142  0.00  0.00    +0.000 C 
ENDBRANCH  11  13
ENDBRANCH   5  11
ENDBRANCH   1   8
BRANCH   2  14
ATOM     14  C   UNL     1       3.072   3.465  20.569  0.00  0.00    +0.000 C 
BRANCH  14  15
ATOM     15  C   UNL     1       3.768   2.636  19.500  0.00  0.00    +0.000 C 
BRANCH  15  16
ATOM     16  C   UNL     1       4.599   3.482  18.612  0.00  0.00    +0.000 A 
ATOM     17  C   UNL     1       4.517   3.827  17.281  0.00  0.00    +0.000 A 
ATOM     18  C   UNL     1       5.634   4.655  17.016  0.00  0.00    +0.000 A 
ATOM     19  C   UNL     1       6.325   4.766  18.203  0.00  0.00    +0.000 A 
ATOM     20  C   UNL     1       7.559   5.471  18.600  0.00  0.00    +0.000 C 
ATOM     21  O   UNL     1       5.696   4.056  19.181  0.00  0.00    +0.000 OA
ENDBRANCH  15  16
ENDBRANCH  14  15
ENDBRANCH   2  14
TORSDOF 6
ENDMDL
MODEL 6
REMARK VINA RESULT:      -6.6      2.780      5.717
REMARK  Name = 
REMARK  8 active torsions:
REMARK  status: ('A' for Active; 'I' for Inactive)
REMARK    1  A    between atoms: C_1  and  C_2
REMARK    2  A    between atoms: C_2  and  O_3
REMARK    3  A    between atoms: O_3  and  C_4
REMARK    4  A    between atoms: C_7  and  N_8
REMARK    5  A    between atoms: C_9  and  C_11
REMARK    6  A    between atoms: C_11  and  C_12
REMARK    7  A    between atoms: C_12  and  C_13
REMARK    8  A    between atoms: C_16  and  C_17
REMARK                            x       y       z     vdW  Elec       q    Type
REMARK                         _______ _______ _______ _____ _____    ______ ____
ROOT
ATOM      1  N   UNL     1       2.747   5.713  20.366  0.00  0.00    +0.000 N 
ATOM      2  C   UNL     1       2.007   4.558  20.552  0.00  0.00    +0.000 C 
ATOM      3  O   UNL     1       0.826   4.389  20.261  0.00  0.00    +0.000 OA
ATOM      4  H   UNL     1       3.728   5.687  20.613  0.00  0.00    +0.000 HD
ENDROOT
BRANCH   1   8
ATOM      5  C   UNL     1       1.304   9.405  18.883  0.00  0.00    +0.000 A 
ATOM      6  C   UNL     1       2.006   8.550  18.042  0.00  0.00    +0.000 A 
ATOM      7  C   UNL     1       2.479   7.321  18.509  0.00  0.00    +0.000 A 
ATOM      8  C   UNL     1       2.279   6.937  19.833  0.00  0.00    +0.000 A 
ATOM      9  C   UNL     1       1.585   7.808  20.685  0.00  0.00    +0.000 A 
ATOM     10  C   UNL     1       1.107   9.042  20.216  0.00  0.00    +0.000 A 
BRANCH   5  11
ATOM     11  O   UNL     1       0.887  10.565  18.300  0.00  0.00    +0.000 OA
BRANCH  11  13
ATOM     12  C   UNL     1       2.010  12.616  18.729  0.00  0.00    +0.000 C 
ATOM     13  C   UNL     1       0.855  11.720  19.136  0.00  0.00    +0.000 C 
ENDBRANCH  11  13
ENDBRANCH   5  11
ENDBRANCH   1   8
BRANCH   2  14
ATOM     14  C   UNL     1       2.789   3.423  21.177  0.00  0.00    +0.000 C 
BRANCH  14  15
ATOM     15  C   UNL     1       3.323   2.471  20.117  0.00  0.00    +0.000 C 
BRANCH  15  16
ATOM     16  C   UNL     1       4.067   3.197  19.061  0.00  0.00    +0.000 A 
ATOM     17  C   UNL     1       3.894   3.332  17.701  0.00  0.00    +0.000 A 
ATOM     18  C   UNL     1       4.960   4.144  17.244  0.00  0.00    +0.000 A 
ATOM     19  C   UNL     1       5.713   4.457  18.354  0.00  0.00    +0.000 A 
ATOM     20  C   UNL     1       6.938   5.252  18.562  0.00  0.00    +0.000 C 
ATOM     21  O   UNL     1       5.171   3.885  19.466  0.00  0.00    +0.000 OA
ENDBRANCH  15  16
ENDBRANCH  14  15
ENDBRANCH   2  14
TORSDOF 6
ENDMDL
MODEL 7
REMARK VINA RESULT:      -6.6      2.634      5.328
REMARK  Name = 
REMARK  8 active torsions:
REMARK  status: ('A' for Active; 'I' for Inactive)
REMARK    1  A    between atoms: C_1  and  C_2
REMARK    2  A    between atoms: C_2  and  O_3
REMARK    3  A    between atoms: O_3  and  C_4
REMARK    4  A    between atoms: C_7  and  N_8
REMARK    5  A    between atoms: C_9  and  C_11
REMARK    6  A    between atoms: C_11  and  C_12
REMARK    7  A    between atoms: C_12  and  C_13
REMARK    8  A    between atoms: C_16  and  C_17
REMARK                            x       y       z     vdW  Elec       q    Type
REMARK                         _______ _______ _______ _____ _____    ______ ____
ROOT
ATOM      1  N   UNL     1       2.391   5.552  20.813  0.00  0.00    +0.000 N 
ATOM      2  C   UNL     1       1.594   4.418  20.825  0.00  0.00    +0.000 C 
ATOM      3  O   UNL     1       0.530   4.264  20.233  0.00  0.00    +0.000 OA
ATOM      4  H   UNL     1       3.269   5.513  21.315  0.00  0.00    +0.000 HD
ENDROOT
BRANCH   1   8
ATOM      5  C   UNL     1       1.625   9.139  18.704  0.00  0.00    +0.000 A 
ATOM      6  C   UNL     1       1.164   8.993  20.007  0.00  0.00    +0.000 A 
ATOM      7  C   UNL     1       1.418   7.821  20.724  0.00  0.00    +0.000 A 
ATOM      8  C   UNL     1       2.117   6.766  20.142  0.00  0.00    +0.000 A 
ATOM      9  C   UNL     1       2.567   6.910  18.822  0.00  0.00    +0.000 A 
ATOM     10  C   UNL     1       2.315   8.087  18.101  0.00  0.00    +0.000 A 
BRANCH   5  11
ATOM     11  O   UNL     1       1.321  10.335  18.122  0.00  0.00    +0.000 OA
BRANCH  11  13
ATOM     12  C   UNL     1       2.408  12.446  18.250  0.00  0.00    +0.000 C 
ATOM     13  C   UNL     1       1.453  11.493  18.945  0.00  0.00    +0.000 C 
ENDBRANCH  11  13
ENDBRANCH   5  11
ENDBRANCH   1   8
BRANCH   2  14
ATOM     14  C   UNL     1       2.149   3.289  21.666  0.00  0.00    +0.000 C 
BRANCH  14  15
ATOM     15  C   UNL     1       3.378   2.670  21.019  0.00  0.00    +0.000 C 
BRANCH  15  16
ATOM     16  C   UNL     1       3.278   2.684  19.541  0.00  0.00    +0.000 A 
ATOM     17  C   UNL     1       2.574   1.926  18.631  0.00  0.00    +0.000 A 
ATOM     18  C   UNL     1       2.922   2.420  17.351  0.00  0.00    +0.000 A 
ATOM     19  C   UNL     1       3.814   3.449  17.560  0.00  0.00    +0.000 A 
ATOM     20  C   UNL     1       4.545   4.362  16.661  0.00  0.00    +0.000 C 
ATOM     21  O   UNL     1       4.031   3.617  18.895  0.00  0.00    +0.000 OA
ENDBRANCH  15  16
ENDBRANCH  14  15
ENDBRANCH   2  14
TORSDOF 6
ENDMDL
MODEL 8
REMARK VINA RESULT:      -6.6      2.727      6.044
REMARK  Name = 
REMARK  8 active torsions:
REMARK  status: ('A' for Active; 'I' for Inactive)
REMARK    1  A    between atoms: C_1  and  C_2
REMARK    2  A    between atoms: C_2  and  O_3
REMARK    3  A    between atoms: O_3  and  C_4
REMARK    4  A    between atoms: C_7  and  N_8
REMARK    5  A    between atoms: C_9  and  C_11
REMARK    6  A    between atoms: C_11  and  C_12
REMARK    7  A    between atoms: C_12  and  C_13
REMARK    8  A    between atoms: C_16  and  C_17
REMARK                            x       y       z     vdW  Elec       q    Type
REMARK                         _______ _______ _______ _____ _____    ______ ____
ROOT
ATOM      1  N   UNL     1       2.833   5.594  20.209  0.00  0.00    +0.000 N 
ATOM      2  C   UNL     1       2.195   4.369  20.101  0.00  0.00    +0.000 C 
ATOM      3  O   UNL     1       1.085   4.161  19.619  0.00  0.00    +0.000 OA
ATOM      4  H   UNL     1       3.771   5.602  20.588  0.00  0.00    +0.000 HD
ENDROOT
BRANCH   1   8
ATOM      5  C   UNL     1       1.327   9.331  18.915  0.00  0.00    +0.000 A 
ATOM      6  C   UNL     1       1.117   8.919  20.224  0.00  0.00    +0.000 A 
ATOM      7  C   UNL     1       1.618   7.694  20.675  0.00  0.00    +0.000 A 
ATOM      8  C   UNL     1       2.316   6.850  19.814  0.00  0.00    +0.000 A 
ATOM      9  C   UNL     1       2.514   7.261  18.488  0.00  0.00    +0.000 A 
ATOM     10  C   UNL     1       2.014   8.492  18.036  0.00  0.00    +0.000 A 
BRANCH   5  11
ATOM     11  O   UNL     1       0.799  10.551  18.608  0.00  0.00    +0.000 OA
BRANCH  11  13
ATOM     12  C   UNL     1      -1.199  11.642  19.293  0.00  0.00    +0.000 C 
ATOM     13  C   UNL     1      -0.607  10.592  18.372  0.00  0.00    +0.000 C 
ENDBRANCH  11  13
ENDBRANCH   5  11
ENDBRANCH   1   8
BRANCH   2  14
ATOM     14  C   UNL     1       3.000   3.209  20.644  0.00  0.00    +0.000 C 
BRANCH  14  15
ATOM     15  C   UNL     1       3.749   2.488  19.533  0.00  0.00    +0.000 C 
BRANCH  15  16
ATOM     16  C   UNL     1       4.535   3.434  18.706  0.00  0.00    +0.000 A 
ATOM     17  C   UNL     1       4.471   3.817  17.384  0.00  0.00    +0.000 A 
ATOM     18  C   UNL     1       5.521   4.747  17.190  0.00  0.00    +0.000 A 
ATOM     19  C   UNL     1       6.156   4.875  18.406  0.00  0.00    +0.000 A 
ATOM     20  C   UNL     1       7.308   5.669  18.874  0.00  0.00    +0.000 C 
ATOM     21  O   UNL     1       5.556   4.079  19.335  0.00  0.00    +0.000 OA
ENDBRANCH  15  16
ENDBRANCH  14  15
ENDBRANCH   2  14
TORSDOF 6
ENDMDL
MODEL 9
REMARK VINA RESULT:      -6.5      3.820      7.925
REMARK  Name = 
REMARK  8 active torsions:
REMARK  status: ('A' for Active; 'I' for Inactive)
REMARK    1  A    between atoms: C_1  and  C_2
REMARK    2  A    between atoms: C_2  and  O_3
REMARK    3  A    between atoms: O_3  and  C_4
REMARK    4  A    between atoms: C_7  and  N_8
REMARK    5  A    between atoms: C_9  and  C_11
REMARK    6  A    between atoms: C_11  and  C_12
REMARK    7  A    between atoms: C_12  and  C_13
REMARK    8  A    between atoms: C_16  and  C_17
REMARK                            x       y       z     vdW  Elec       q    Type
REMARK                         _______ _______ _______ _____ _____    ______ ____
ROOT
ATOM      1  N   UNL     1       6.134   6.546  18.394  0.00  0.00    +0.000 N 
ATOM      2  C   UNL     1       7.198   6.818  17.549  0.00  0.00    +0.000 C 
ATOM      3  O   UNL     1       7.375   6.360  16.424  0.00  0.00    +0.000 OA
ATOM      4  H   UNL     1       6.099   7.039  19.277  0.00  0.00    +0.000 HD
ENDROOT
BRANCH   1   8
ATOM      5  C   UNL     1       3.005   3.803  17.625  0.00  0.00    +0.000 A 
ATOM      6  C   UNL     1       2.707   5.132  17.897  0.00  0.00    +0.000 A 
ATOM      7  C   UNL     1       3.726   6.056  18.141  0.00  0.00    +0.000 A 
ATOM      8  C   UNL     1       5.061   5.660  18.140  0.00  0.00    +0.000 A 
ATOM      9  C   UNL     1       5.360   4.315  17.880  0.00  0.00    +0.000 A 
ATOM     10  C   UNL     1       4.337   3.387  17.632  0.00  0.00    +0.000 A 
BRANCH   5  11
ATOM     11  O   UNL     1       1.920   3.010  17.392  0.00  0.00    +0.000 OA
BRANCH  11  13
ATOM     12  C   UNL     1       1.677   2.041  19.549  0.00  0.00    +0.000 C 
ATOM     13  C   UNL     1       0.998   2.864  18.470  0.00  0.00    +0.000 C 
ENDBRANCH  11  13
ENDBRANCH   5  11
ENDBRANCH   1   8
BRANCH   2  14
ATOM     14  C   UNL     1       8.205   7.791  18.125  0.00  0.00    +0.000 C 
BRANCH  14  15
ATOM     15  C   UNL     1       7.978   9.198  17.596  0.00  0.00    +0.000 C 
BRANCH  15  16
ATOM     16  C   UNL     1       8.765  10.197  18.357  0.00  0.00    +0.000 A 
ATOM     17  C   UNL     1       9.460  10.151  19.546  0.00  0.00    +0.000 A 
ATOM     18  C   UNL     1       9.986  11.450  19.748  0.00  0.00    +0.000 A 
ATOM     19  C   UNL     1       9.582  12.205  18.668  0.00  0.00    +0.000 A 
ATOM     20  C   UNL     1       9.786  13.613  18.277  0.00  0.00    +0.000 C 
ATOM     21  O   UNL     1       8.840  11.445  17.815  0.00  0.00    +0.000 OA
ENDBRANCH  15  16
ENDBRANCH  14  15
ENDBRANCH   2  14
TORSDOF 6
ENDMDL
