MODEL 1
REMARK VINA RESULT:      -7.5      0.000      0.000
REMARK  Name = 
REMARK  9 active torsions:
REMARK  status: ('A' for Active; 'I' for Inactive)
REMARK    1  A    between atoms: C_1  and  C_2
REMARK    2  A    between atoms: C_4  and  O_5
REMARK    3  A    between atoms: O_5  and  C_6
REMARK    4  A    between atoms: C_6  and  C_7
REMARK    5  A    between atoms: N_9  and  C_10
REMARK    6  A    between atoms: C_10  and  C_11
REMARK    7  A    between atoms: C_11  and  C_12
REMARK    8  A    between atoms: C_12  and  N_13
REMARK    9  A    between atoms: C_20  and  C_21
REMARK                            x       y       z     vdW  Elec       q    Type
REMARK                         _______ _______ _______ _____ _____    ______ ____
ROOT
ATOM      1  O   UNL     1       4.603   3.137  17.686  0.00  0.00    +0.000 OA
ENDROOT
BRANCH   1   5
ATOM      2  C   UNL     1       6.060   3.563  12.965  0.00  0.00    +0.000 C 
ATOM      3  C   UNL     1       6.050   4.030  14.391  0.00  0.00    +0.000 A 
ATOM      4  C   UNL     1       5.307   3.362  15.372  0.00  0.00    +0.000 A 
ATOM      5  C   UNL     1       5.302   3.794  16.713  0.00  0.00    +0.000 A 
ATOM      6  C   UNL     1       6.049   4.931  17.104  0.00  0.00    +0.000 A 
ATOM      7  C   UNL     1       6.142   5.516  18.469  0.00  0.00    +0.000 A 
ATOM      8  C   UNL     1       5.436   4.992  19.686  0.00  0.00    +0.000 C 
ATOM      9  C   UNL     1       6.913   6.600  18.654  0.00  0.00    +0.000 A 
ATOM     10  C   UNL     1       7.676   7.264  17.597  0.00  0.00    +0.000 A 
ATOM     11  O   UNL     1       8.357   8.256  17.835  0.00  0.00    +0.000 OA
ATOM     12  O   UNL     1       7.575   6.716  16.337  0.00  0.00    +0.000 OA
ATOM     13  C   UNL     1       6.783   5.576  16.091  0.00  0.00    +0.000 A 
ATOM     14  C   UNL     1       6.794   5.145  14.761  0.00  0.00    +0.000 A 
ENDBRANCH   1   5
BRANCH   1  15
ATOM     15  C   UNL     1       3.655   2.135  17.347  0.00  0.00    +0.000 C 
BRANCH  15  16
ATOM     16  C   UNL     1       2.455   2.336  18.272  0.00  0.00    +0.000 C 
ATOM     17  O   UNL     1       1.298   2.300  17.860  0.00  0.00    +0.000 OA
ATOM     18  N   UNL     1       2.775   2.587  19.593  0.00  0.00    +0.000 N 
ATOM     19  H   UNL     1       3.750   2.656  19.861  0.00  0.00    +0.000 HD
BRANCH  18  20
ATOM     20  C   UNL     1       1.761   2.842  20.601  0.00  0.00    +0.000 C 
BRANCH  20  21
ATOM     21  C   UNL     1       1.047   4.179  20.394  0.00  0.00    +0.000 C 
BRANCH  21  22
ATOM     22  C   UNL     1       1.889   5.363  20.866  0.00  0.00    +0.000 C 
BRANCH  22  23
ATOM     23  N   UNL     1       2.150   6.332  19.815  0.00  0.00    +0.000 N 
ATOM     24  C   UNL     1       2.379   5.951  18.445  0.00  0.00    +0.000 C 
ATOM     25  C   UNL     1       2.850   7.242  17.803  0.00  0.00    +0.000 C 
ATOM     26  C   UNL     1       2.114   8.323  18.585  0.00  0.00    +0.000 C 
ATOM     27  C   UNL     1       1.954   7.701  19.951  0.00  0.00    +0.000 C 
ATOM     28  O   UNL     1       1.647   8.294  20.972  0.00  0.00    +0.000 OA
ENDBRANCH  22  23
ENDBRANCH  21  22
ENDBRANCH  20  21
ENDBRANCH  18  20
ENDBRANCH  15  16
ENDBRANCH   1  15
TORSDOF 7
ENDMDL
MODEL 2
REMARK VINA RESULT:      -7.2      3.454      6.445
REMARK  Name = 
REMARK  9 active torsions:
REMARK  status: ('A' for Active; 'I' for Inactive)
REMARK    1  A    between atoms: C_1  and  C_2
REMARK    2  A    between atoms: C_4  and  O_5
REMARK    3  A    between atoms: O_5  and  C_6
REMARK    4  A    between atoms: C_6  and  C_7
REMARK    5  A    between atoms: N_9  and  C_10
REMARK    6  A    between atoms: C_10  and  C_11
REMARK    7  A    between atoms: C_11  and  C_12
REMARK    8  A    between atoms: C_12  and  N_13
REMARK    9  A    between atoms: C_20  and  C_21
REMARK                            x       y       z     vdW  Elec       q    Type
REMARK                         _______ _______ _______ _____ _____    ______ ____
ROOT
ATOM      1  O   UNL     1       2.036   7.184  20.149  0.00  0.00    +0.000 OA
ENDROOT
BRANCH   1   5
ATOM      2  C   UNL     1       1.590   2.474  21.639  0.00  0.00    +0.000 C 
ATOM      3  C   UNL     1       2.103   3.515  20.687  0.00  0.00    +0.000 A 
ATOM      4  C   UNL     1       1.807   4.873  20.863  0.00  0.00    +0.000 A 
ATOM      5  C   UNL     1       2.293   5.854  19.976  0.00  0.00    +0.000 A 
ATOM      6  C   UNL     1       3.095   5.485  18.868  0.00  0.00    +0.000 A 
ATOM      7  C   UNL     1       3.675   6.392  17.842  0.00  0.00    +0.000 A 
ATOM      8  C   UNL     1       3.498   7.883  17.803  0.00  0.00    +0.000 C 
ATOM      9  C   UNL     1       4.422   5.861  16.860  0.00  0.00    +0.000 A 
ATOM     10  C   UNL     1       4.708   4.432  16.718  0.00  0.00    +0.000 A 
ATOM     11  O   UNL     1       5.395   4.013  15.793  0.00  0.00    +0.000 OA
ATOM     12  O   UNL     1       4.158   3.604  17.672  0.00  0.00    +0.000 OA
ATOM     13  C   UNL     1       3.370   4.113  18.724  0.00  0.00    +0.000 A 
ATOM     14  C   UNL     1       2.893   3.139  19.607  0.00  0.00    +0.000 A 
ENDBRANCH   1   5
BRANCH   1  15
ATOM     15  C   UNL     1       0.954   7.612  20.964  0.00  0.00    +0.000 C 
BRANCH  15  16
ATOM     16  C   UNL     1       1.110   9.122  21.143  0.00  0.00    +0.000 C 
ATOM     17  O   UNL     1       1.515   9.617  22.193  0.00  0.00    +0.000 OA
ATOM     18  N   UNL     1       0.738   9.879  20.049  0.00  0.00    +0.000 N 
ATOM     19  H   UNL     1       0.363   9.414  19.231  0.00  0.00    +0.000 HD
BRANCH  18  20
ATOM     20  C   UNL     1       0.784  11.331  20.059  0.00  0.00    +0.000 C 
BRANCH  20  21
ATOM     21  C   UNL     1      -0.603  11.963  20.189  0.00  0.00    +0.000 C 
BRANCH  21  22
ATOM     22  C   UNL     1      -1.169  12.396  18.837  0.00  0.00    +0.000 C 
BRANCH  22  23
ATOM     23  N   UNL     1      -2.159  11.471  18.312  0.00  0.00    +0.000 N 
ATOM     24  C   UNL     1      -3.559  11.797  18.222  0.00  0.00    +0.000 C 
ATOM     25  C   UNL     1      -4.200  10.467  17.873  0.00  0.00    +0.000 C 
ATOM     26  C   UNL     1      -3.132   9.758  17.049  0.00  0.00    +0.000 C 
ATOM     27  C   UNL     1      -1.847  10.309  17.616  0.00  0.00    +0.000 C 
ATOM     28  O   UNL     1      -0.733   9.844  17.437  0.00  0.00    +0.000 OA
ENDBRANCH  22  23
ENDBRANCH  21  22
ENDBRANCH  20  21
ENDBRANCH  18  20
ENDBRANCH  15  16
ENDBRANCH   1  15
TORSDOF 7
ENDMDL
MODEL 3
REMARK VINA RESULT:      -7.2      1.269      1.738
REMARK  Name = 
REMARK  9 active torsions:
REMARK  status: ('A' for Active; 'I' for Inactive)
REMARK    1  A    between atoms: C_1  and  C_2
REMARK    2  A    between atoms: C_4  and  O_5
REMARK    3  A    between atoms: O_5  and  C_6
REMARK    4  A    between atoms: C_6  and  C_7
REMARK    5  A    between atoms: N_9  and  C_10
REMARK    6  A    between atoms: C_10  and  C_11
REMARK    7  A    between atoms: C_11  and  C_12
REMARK    8  A    between atoms: C_12  and  N_13
REMARK    9  A    between atoms: C_20  and  C_21
REMARK                            x       y       z     vdW  Elec       q    Type
REMARK                         _______ _______ _______ _____ _____    ______ ____
ROOT
ATOM      1  O   UNL     1       4.455   2.990  17.389  0.00  0.00    +0.000 OA
ENDROOT
BRANCH   1   5
ATOM      2  C   UNL     1       6.131   3.620  12.764  0.00  0.00    +0.000 C 
ATOM      3  C   UNL     1       6.068   4.014  14.211  0.00  0.00    +0.000 A 
ATOM      4  C   UNL     1       5.266   3.315  15.123  0.00  0.00    +0.000 A 
ATOM      5  C   UNL     1       5.211   3.678  16.484  0.00  0.00    +0.000 A 
ATOM      6  C   UNL     1       5.966   4.775  16.965  0.00  0.00    +0.000 A 
ATOM      7  C   UNL     1       6.011   5.287  18.361  0.00  0.00    +0.000 A 
ATOM      8  C   UNL     1       5.239   4.720  19.517  0.00  0.00    +0.000 C 
ATOM      9  C   UNL     1       6.797   6.341  18.636  0.00  0.00    +0.000 A 
ATOM     10  C   UNL     1       7.621   7.039  17.649  0.00  0.00    +0.000 A 
ATOM     11  O   UNL     1       8.313   8.000  17.968  0.00  0.00    +0.000 OA
ATOM     12  O   UNL     1       7.564   6.558  16.359  0.00  0.00    +0.000 OA
ATOM     13  C   UNL     1       6.758   5.452  16.020  0.00  0.00    +0.000 A 
ATOM     14  C   UNL     1       6.819   5.090  14.671  0.00  0.00    +0.000 A 
ENDBRANCH   1   5
BRANCH   1  15
ATOM     15  C   UNL     1       3.064   2.796  17.174  0.00  0.00    +0.000 C 
BRANCH  15  16
ATOM     16  C   UNL     1       2.384   2.959  18.533  0.00  0.00    +0.000 C 
ATOM     17  O   UNL     1       2.274   2.025  19.325  0.00  0.00    +0.000 OA
ATOM     18  N   UNL     1       1.883   4.222  18.786  0.00  0.00    +0.000 N 
ATOM     19  H   UNL     1       1.959   4.935  18.071  0.00  0.00    +0.000 HD
BRANCH  18  20
ATOM     20  C   UNL     1       1.170   4.542  20.010  0.00  0.00    +0.000 C 
BRANCH  20  21
ATOM     21  C   UNL     1       1.765   5.748  20.739  0.00  0.00    +0.000 C 
BRANCH  21  22
ATOM     22  C   UNL     1       2.251   6.826  19.772  0.00  0.00    +0.000 C 
BRANCH  22  23
ATOM     23  N   UNL     1       1.542   8.087  19.923  0.00  0.00    +0.000 N 
ATOM     24  C   UNL     1       1.017   8.537  21.185  0.00  0.00    +0.000 C 
ATOM     25  C   UNL     1       0.164   9.730  20.796  0.00  0.00    +0.000 C 
ATOM     26  C   UNL     1       0.882  10.306  19.581  0.00  0.00    +0.000 C 
ATOM     27  C   UNL     1       1.520   9.087  18.959  0.00  0.00    +0.000 C 
ATOM     28  O   UNL     1       1.986   9.025  17.833  0.00  0.00    +0.000 OA
ENDBRANCH  22  23
ENDBRANCH  21  22
ENDBRANCH  20  21
ENDBRANCH  18  20
ENDBRANCH  15  16
ENDBRANCH   1  15
TORSDOF 7
ENDMDL
MODEL 4
REMARK VINA RESULT:      -7.2      3.632      7.115
REMARK  Name = 
REMARK  9 active torsions:
REMARK  status: ('A' for Active; 'I' for Inactive)
REMARK    1  A    between atoms: C_1  and  C_2
REMARK    2  A    between atoms: C_4  and  O_5
REMARK    3  A    between atoms: O_5  and  C_6
REMARK    4  A    between atoms: C_6  and  C_7
REMARK    5  A    between atoms: N_9  and  C_10
REMARK    6  A    between atoms: C_10  and  C_11
REMARK    7  A    between atoms: C_11  and  C_12
REMARK    8  A    between atoms: C_12  and  N_13
REMARK    9  A    between atoms: C_20  and  C_21
REMARK                            x       y       z     vdW  Elec       q    Type
REMARK                         _______ _______ _______ _____ _____    ______ ____
ROOT
ATOM      1  O   UNL     1       4.706   4.655  16.935  0.00  0.00    +0.000 OA
ENDROOT
BRANCH   1   5
ATOM      2  C   UNL     1       2.338   8.823  18.208  0.00  0.00    +0.000 C 
ATOM      3  C   UNL     1       2.712   7.390  18.451  0.00  0.00    +0.000 A 
ATOM      4  C   UNL     1       3.529   6.687  17.555  0.00  0.00    +0.000 A 
ATOM      5  C   UNL     1       3.889   5.345  17.785  0.00  0.00    +0.000 A 
ATOM      6  C   UNL     1       3.421   4.663  18.935  0.00  0.00    +0.000 A 
ATOM      7  C   UNL     1       3.703   3.253  19.315  0.00  0.00    +0.000 A 
ATOM      8  C   UNL     1       4.539   2.291  18.521  0.00  0.00    +0.000 C 
ATOM      9  C   UNL     1       3.177   2.776  20.455  0.00  0.00    +0.000 A 
ATOM     10  C   UNL     1       2.329   3.549  21.363  0.00  0.00    +0.000 A 
ATOM     11  O   UNL     1       1.878   3.049  22.388  0.00  0.00    +0.000 OA
ATOM     12  O   UNL     1       2.073   4.852  20.995  0.00  0.00    +0.000 OA
ATOM     13  C   UNL     1       2.604   5.401  19.810  0.00  0.00    +0.000 A 
ATOM     14  C   UNL     1       2.251   6.735  19.587  0.00  0.00    +0.000 A 
ENDBRANCH   1   5
BRANCH   1  15
ATOM     15  C   UNL     1       5.781   5.308  16.274  0.00  0.00    +0.000 C 
BRANCH  15  16
ATOM     16  C   UNL     1       6.784   5.705  17.356  0.00  0.00    +0.000 C 
ATOM     17  O   UNL     1       7.144   4.923  18.232  0.00  0.00    +0.000 OA
ATOM     18  N   UNL     1       7.228   7.012  17.286  0.00  0.00    +0.000 N 
ATOM     19  H   UNL     1       6.854   7.624  16.570  0.00  0.00    +0.000 HD
BRANCH  18  20
ATOM     20  C   UNL     1       8.152   7.570  18.259  0.00  0.00    +0.000 C 
BRANCH  20  21
ATOM     21  C   UNL     1       8.342   9.079  18.092  0.00  0.00    +0.000 C 
BRANCH  21  22
ATOM     22  C   UNL     1       8.954   9.724  19.335  0.00  0.00    +0.000 C 
BRANCH  22  23
ATOM     23  N   UNL     1       9.854  10.822  19.020  0.00  0.00    +0.000 N 
ATOM     24  C   UNL     1      10.195  11.186  17.670  0.00  0.00    +0.000 C 
ATOM     25  C   UNL     1      11.327  12.178  17.857  0.00  0.00    +0.000 C 
ATOM     26  C   UNL     1      10.995  12.859  19.180  0.00  0.00    +0.000 C 
ATOM     27  C   UNL     1      10.266  11.778  19.940  0.00  0.00    +0.000 C 
ATOM     28  O   UNL     1      10.032  11.785  21.138  0.00  0.00    +0.000 OA
ENDBRANCH  22  23
ENDBRANCH  21  22
ENDBRANCH  20  21
ENDBRANCH  18  20
ENDBRANCH  15  16
ENDBRANCH   1  15
TORSDOF 7
ENDMDL
MODEL 5
REMARK VINA RESULT:      -7.2      3.641      7.278
REMARK  Name = 
REMARK  9 active torsions:
REMARK  status: ('A' for Active; 'I' for Inactive)
REMARK    1  A    between atoms: C_1  and  C_2
REMARK    2  A    between atoms: C_4  and  O_5
REMARK    3  A    between atoms: O_5  and  C_6
REMARK    4  A    between atoms: C_6  and  C_7
REMARK    5  A    between atoms: N_9  and  C_10
REMARK    6  A    between atoms: C_10  and  C_11
REMARK    7  A    between atoms: C_11  and  C_12
REMARK    8  A    between atoms: C_12  and  N_13
REMARK    9  A    between atoms: C_20  and  C_21
REMARK                            x       y       z     vdW  Elec       q    Type
REMARK                         _______ _______ _______ _____ _____    ______ ____
ROOT
ATOM      1  O   UNL     1       3.909   5.503  17.084  0.00  0.00    +0.000 OA
ENDROOT
BRANCH   1   5
ATOM      2  C   UNL     1       1.569   9.083  19.595  0.00  0.00    +0.000 C 
ATOM      3  C   UNL     1       2.022   7.661  19.436  0.00  0.00    +0.000 A 
ATOM      4  C   UNL     1       2.746   7.248  18.310  0.00  0.00    +0.000 A 
ATOM      5  C   UNL     1       3.180   5.915  18.163  0.00  0.00    +0.000 A 
ATOM      6  C   UNL     1       2.884   4.950  19.156  0.00  0.00    +0.000 A 
ATOM      7  C   UNL     1       3.261   3.511  19.145  0.00  0.00    +0.000 A 
ATOM      8  C   UNL     1       4.027   2.823  18.052  0.00  0.00    +0.000 C 
ATOM      9  C   UNL     1       2.899   2.743  20.186  0.00  0.00    +0.000 A 
ATOM     10  C   UNL     1       2.144   3.220  21.345  0.00  0.00    +0.000 A 
ATOM     11  O   UNL     1       1.841   2.462  22.260  0.00  0.00    +0.000 OA
ATOM     12  O   UNL     1       1.796   4.553  21.337  0.00  0.00    +0.000 OA
ATOM     13  C   UNL     1       2.156   5.403  20.271  0.00  0.00    +0.000 A 
ATOM     14  C   UNL     1       1.729   6.726  20.422  0.00  0.00    +0.000 A 
ENDBRANCH   1   5
BRANCH   1  15
ATOM     15  C   UNL     1       4.738   6.416  16.378  0.00  0.00    +0.000 C 
BRANCH  15  16
ATOM     16  C   UNL     1       6.083   6.437  17.103  0.00  0.00    +0.000 C 
ATOM     17  O   UNL     1       6.606   5.415  17.540  0.00  0.00    +0.000 OA
ATOM     18  N   UNL     1       6.645   7.691  17.250  0.00  0.00    +0.000 N 
ATOM     19  H   UNL     1       6.140   8.502  16.913  0.00  0.00    +0.000 HD
BRANCH  18  20
ATOM     20  C   UNL     1       7.901   7.900  17.950  0.00  0.00    +0.000 C 
BRANCH  20  21
ATOM     21  C   UNL     1       8.427   9.329  17.801  0.00  0.00    +0.000 C 
BRANCH  21  22
ATOM     22  C   UNL     1       9.054   9.851  19.093  0.00  0.00    +0.000 C 
BRANCH  22  23
ATOM     23  N   UNL     1       9.285  11.286  19.074  0.00  0.00    +0.000 N 
ATOM     24  C   UNL     1       9.097  12.088  17.893  0.00  0.00    +0.000 C 
ATOM     25  C   UNL     1       9.697  13.424  18.287  0.00  0.00    +0.000 C 
ATOM     26  C   UNL     1       9.435  13.510  19.786  0.00  0.00    +0.000 C 
ATOM     27  C   UNL     1       9.452  12.063  20.214  0.00  0.00    +0.000 C 
ATOM     28  O   UNL     1       9.535  11.661  21.363  0.00  0.00    +0.000 OA
ENDBRANCH  22  23
ENDBRANCH  21  22
ENDBRANCH  20  21
ENDBRANCH  18  20
ENDBRANCH  15  16
ENDBRANCH   1  15
TORSDOF 7
ENDMDL
MODEL 6
REMARK VINA RESULT:      -7.1      3.817      6.636
REMARK  Name = 
REMARK  9 active torsions:
REMARK  status: ('A' for Active; 'I' for Inactive)
REMARK    1  A    between atoms: C_1  and  C_2
REMARK    2  A    between atoms: C_4  and  O_5
REMARK    3  A    between atoms: O_5  and  C_6
REMARK    4  A    between atoms: C_6  and  C_7
REMARK    5  A    between atoms: N_9  and  C_10
REMARK    6  A    between atoms: C_10  and  C_11
REMARK    7  A    between atoms: C_11  and  C_12
REMARK    8  A    between atoms: C_12  and  N_13
REMARK    9  A    between atoms: C_20  and  C_21
REMARK                            x       y       z     vdW  Elec       q    Type
REMARK                         _______ _______ _______ _____ _____    ______ ____
ROOT
ATOM      1  O   UNL     1       1.737   7.366  20.099  0.00  0.00    +0.000 OA
ENDROOT
BRANCH   1   5
ATOM      2  C   UNL     1       1.882   2.673  21.697  0.00  0.00    +0.000 C 
ATOM      3  C   UNL     1       2.277   3.752  20.731  0.00  0.00    +0.000 A 
ATOM      4  C   UNL     1       1.798   5.062  20.865  0.00  0.00    +0.000 A 
ATOM      5  C   UNL     1       2.174   6.079  19.965  0.00  0.00    +0.000 A 
ATOM      6  C   UNL     1       3.047   5.796  18.887  0.00  0.00    +0.000 A 
ATOM      7  C   UNL     1       3.529   6.750  17.852  0.00  0.00    +0.000 A 
ATOM      8  C   UNL     1       3.156   8.202  17.770  0.00  0.00    +0.000 C 
ATOM      9  C   UNL     1       4.367   6.301  16.903  0.00  0.00    +0.000 A 
ATOM     10  C   UNL     1       4.843   4.921  16.804  0.00  0.00    +0.000 A 
ATOM     11  O   UNL     1       5.605   4.577  15.906  0.00  0.00    +0.000 OA
ATOM     12  O   UNL     1       4.383   4.048  17.765  0.00  0.00    +0.000 OA
ATOM     13  C   UNL     1       3.506   4.470  18.785  0.00  0.00    +0.000 A 
ATOM     14  C   UNL     1       3.139   3.461  19.680  0.00  0.00    +0.000 A 
ENDBRANCH   1   5
BRANCH   1  15
ATOM     15  C   UNL     1       1.219   7.831  21.337  0.00  0.00    +0.000 C 
BRANCH  15  16
ATOM     16  C   UNL     1       1.046   9.343  21.200  0.00  0.00    +0.000 C 
ATOM     17  O   UNL     1       1.106  10.098  22.168  0.00  0.00    +0.000 OA
ATOM     18  N   UNL     1       0.792   9.786  19.916  0.00  0.00    +0.000 N 
ATOM     19  H   UNL     1       0.703   9.109  19.168  0.00  0.00    +0.000 HD
BRANCH  18  20
ATOM     20  C   UNL     1       0.562  11.188  19.610  0.00  0.00    +0.000 C 
BRANCH  20  21
ATOM     21  C   UNL     1      -0.410  11.384  18.445  0.00  0.00    +0.000 C 
BRANCH  21  22
ATOM     22  C   UNL     1      -1.473  10.288  18.388  0.00  0.00    +0.000 C 
BRANCH  22  23
ATOM     23  N   UNL     1      -2.756  10.764  17.898  0.00  0.00    +0.000 N 
ATOM     24  C   UNL     1      -3.597  11.652  18.657  0.00  0.00    +0.000 C 
ATOM     25  C   UNL     1      -4.895  11.649  17.872  0.00  0.00    +0.000 C 
ATOM     26  C   UNL     1      -4.444  11.450  16.430  0.00  0.00    +0.000 C 
ATOM     27  C   UNL     1      -3.182  10.636  16.582  0.00  0.00    +0.000 C 
ATOM     28  O   UNL     1      -2.615  10.030  15.688  0.00  0.00    +0.000 OA
ENDBRANCH  22  23
ENDBRANCH  21  22
ENDBRANCH  20  21
ENDBRANCH  18  20
ENDBRANCH  15  16
ENDBRANCH   1  15
TORSDOF 7
ENDMDL
MODEL 7
REMARK VINA RESULT:      -7.0      3.573      7.070
REMARK  Name = 
REMARK  9 active torsions:
REMARK  status: ('A' for Active; 'I' for Inactive)
REMARK    1  A    between atoms: C_1  and  C_2
REMARK    2  A    between atoms: C_4  and  O_5
REMARK    3  A    between atoms: O_5  and  C_6
REMARK    4  A    between atoms: C_6  and  C_7
REMARK    5  A    between atoms: N_9  and  C_10
REMARK    6  A    between atoms: C_10  and  C_11
REMARK    7  A    between atoms: C_11  and  C_12
REMARK    8  A    between atoms: C_12  and  N_13
REMARK    9  A    between atoms: C_20  and  C_21
REMARK                            x       y       z     vdW  Elec       q    Type
REMARK                         _______ _______ _______ _____ _____    ______ ____
ROOT
ATOM      1  O   UNL     1       4.371   6.258  16.797  0.00  0.00    +0.000 OA
ENDROOT
BRANCH   1   5
ATOM      2  C   UNL     1       4.161   2.193  19.631  0.00  0.00    +0.000 C 
ATOM      3  C   UNL     1       3.785   3.615  19.331  0.00  0.00    +0.000 A 
ATOM      4  C   UNL     1       4.278   4.277  18.199  0.00  0.00    +0.000 A 
ATOM      5  C   UNL     1       3.920   5.609  17.911  0.00  0.00    +0.000 A 
ATOM      6  C   UNL     1       3.051   6.321  18.773  0.00  0.00    +0.000 A 
ATOM      7  C   UNL     1       2.587   7.725  18.615  0.00  0.00    +0.000 A 
ATOM      8  C   UNL     1       2.977   8.646  17.495  0.00  0.00    +0.000 C 
ATOM      9  C   UNL     1       1.750   8.235  19.534  0.00  0.00    +0.000 A 
ATOM     10  C   UNL     1       1.258   7.503  20.702  0.00  0.00    +0.000 A 
ATOM     11  O   UNL     1       0.498   8.031  21.506  0.00  0.00    +0.000 OA
ATOM     12  O   UNL     1       1.702   6.206  20.839  0.00  0.00    +0.000 OA
ATOM     13  C   UNL     1       2.577   5.623  19.899  0.00  0.00    +0.000 A 
ATOM     14  C   UNL     1       2.926   4.300  20.184  0.00  0.00    +0.000 A 
ENDBRANCH   1   5
BRANCH   1  15
ATOM     15  C   UNL     1       5.451   5.732  16.039  0.00  0.00    +0.000 C 
BRANCH  15  16
ATOM     16  C   UNL     1       6.729   6.060  16.809  0.00  0.00    +0.000 C 
ATOM     17  O   UNL     1       7.571   5.204  17.073  0.00  0.00    +0.000 OA
ATOM     18  N   UNL     1       6.848   7.378  17.206  0.00  0.00    +0.000 N 
ATOM     19  H   UNL     1       6.095   8.025  17.002  0.00  0.00    +0.000 HD
BRANCH  18  20
ATOM     20  C   UNL     1       7.979   7.856  17.982  0.00  0.00    +0.000 C 
BRANCH  20  21
ATOM     21  C   UNL     1       8.203   9.361  17.832  0.00  0.00    +0.000 C 
BRANCH  21  22
ATOM     22  C   UNL     1       9.015   9.943  18.988  0.00  0.00    +0.000 C 
BRANCH  22  23
ATOM     23  N   UNL     1       9.446  11.310  18.750  0.00  0.00    +0.000 N 
ATOM     24  C   UNL     1       8.843  12.153  17.749  0.00  0.00    +0.000 C 
ATOM     25  C   UNL     1       9.775  13.349  17.700  0.00  0.00    +0.000 C 
ATOM     26  C   UNL     1      10.297  13.457  19.128  0.00  0.00    +0.000 C 
ATOM     27  C   UNL     1      10.277  12.025  19.603  0.00  0.00    +0.000 C 
ATOM     28  O   UNL     1      10.843  11.597  20.596  0.00  0.00    +0.000 OA
ENDBRANCH  22  23
ENDBRANCH  21  22
ENDBRANCH  20  21
ENDBRANCH  18  20
ENDBRANCH  15  16
ENDBRANCH   1  15
TORSDOF 7
ENDMDL
MODEL 8
REMARK VINA RESULT:      -7.0      4.853      7.266
REMARK  Name = 
REMARK  9 active torsions:
REMARK  status: ('A' for Active; 'I' for Inactive)
REMARK    1  A    between atoms: C_1  and  C_2
REMARK    2  A    between atoms: C_4  and  O_5
REMARK    3  A    between atoms: O_5  and  C_6
REMARK    4  A    between atoms: C_6  and  C_7
REMARK    5  A    between atoms: N_9  and  C_10
REMARK    6  A    between atoms: C_10  and  C_11
REMARK    7  A    between atoms: C_11  and  C_12
REMARK    8  A    between atoms: C_12  and  N_13
REMARK    9  A    between atoms: C_20  and  C_21
REMARK                            x       y       z     vdW  Elec       q    Type
REMARK                         _______ _______ _______ _____ _____    ______ ____
ROOT
ATOM      1  O   UNL     1       1.933   7.179  19.773  0.00  0.00    +0.000 OA
ENDROOT
BRANCH   1   5
ATOM      2  C   UNL     1       1.478   2.638  21.714  0.00  0.00    +0.000 C 
ATOM      3  C   UNL     1       2.042   3.591  20.701  0.00  0.00    +0.000 A 
ATOM      4  C   UNL     1       1.701   4.950  20.708  0.00  0.00    +0.000 A 
ATOM      5  C   UNL     1       2.235   5.847  19.763  0.00  0.00    +0.000 A 
ATOM      6  C   UNL     1       3.133   5.391  18.767  0.00  0.00    +0.000 A 
ATOM      7  C   UNL     1       3.775   6.206  17.700  0.00  0.00    +0.000 A 
ATOM      8  C   UNL     1       3.566   7.677  17.489  0.00  0.00    +0.000 C 
ATOM      9  C   UNL     1       4.612   5.599  16.843  0.00  0.00    +0.000 A 
ATOM     10  C   UNL     1       4.942   4.174  16.876  0.00  0.00    +0.000 A 
ATOM     11  O   UNL     1       5.712   3.683  16.057  0.00  0.00    +0.000 OA
ATOM     12  O   UNL     1       4.335   3.432  17.865  0.00  0.00    +0.000 OA
ATOM     13  C   UNL     1       3.451   4.021  18.792  0.00  0.00    +0.000 A 
ATOM     14  C   UNL     1       2.927   3.130  19.733  0.00  0.00    +0.000 A 
ENDBRANCH   1   5
BRANCH   1  15
ATOM     15  C   UNL     1       1.470   7.808  20.960  0.00  0.00    +0.000 C 
BRANCH  15  16
ATOM     16  C   UNL     1       0.847   9.138  20.538  0.00  0.00    +0.000 C 
ATOM     17  O   UNL     1       1.068   9.643  19.439  0.00  0.00    +0.000 OA
ATOM     18  N   UNL     1       0.044   9.734  21.492  0.00  0.00    +0.000 N 
ATOM     19  H   UNL     1      -0.057   9.293  22.398  0.00  0.00    +0.000 HD
BRANCH  18  20
ATOM     20  C   UNL     1      -0.595  11.020  21.273  0.00  0.00    +0.000 C 
BRANCH  20  21
ATOM     21  C   UNL     1      -0.763  11.821  22.566  0.00  0.00    +0.000 C 
BRANCH  21  22
ATOM     22  C   UNL     1      -2.117  11.573  23.227  0.00  0.00    +0.000 C 
BRANCH  22  23
ATOM     23  N   UNL     1      -2.904  12.786  23.384  0.00  0.00    +0.000 N 
ATOM     24  C   UNL     1      -2.641  13.986  22.634  0.00  0.00    +0.000 C 
ATOM     25  C   UNL     1      -3.522  15.016  23.315  0.00  0.00    +0.000 C 
ATOM     26  C   UNL     1      -4.718  14.205  23.797  0.00  0.00    +0.000 C 
ATOM     27  C   UNL     1      -4.120  12.843  24.055  0.00  0.00    +0.000 C 
ATOM     28  O   UNL     1      -4.646  11.942  24.687  0.00  0.00    +0.000 OA
ENDBRANCH  22  23
ENDBRANCH  21  22
ENDBRANCH  20  21
ENDBRANCH  18  20
ENDBRANCH  15  16
ENDBRANCH   1  15
TORSDOF 7
ENDMDL
MODEL 9
REMARK VINA RESULT:      -7.0      3.293      6.066
REMARK  Name = 
REMARK  9 active torsions:
REMARK  status: ('A' for Active; 'I' for Inactive)
REMARK    1  A    between atoms: C_1  and  C_2
REMARK    2  A    between atoms: C_4  and  O_5
REMARK    3  A    between atoms: O_5  and  C_6
REMARK    4  A    between atoms: C_6  and  C_7
REMARK    5  A    between atoms: N_9  and  C_10
REMARK    6  A    between atoms: C_10  and  C_11
REMARK    7  A    between atoms: C_11  and  C_12
REMARK    8  A    between atoms: C_12  and  N_13
REMARK    9  A    between atoms: C_20  and  C_21
REMARK                            x       y       z     vdW  Elec       q    Type
REMARK                         _______ _______ _______ _____ _____    ______ ____
ROOT
ATOM      1  O   UNL     1       2.479   7.327  18.274  0.00  0.00    +0.000 OA
ENDROOT
BRANCH   1   5
ATOM      2  C   UNL     1       5.624   4.362  15.843  0.00  0.00    +0.000 C 
ATOM      3  C   UNL     1       4.721   4.661  17.004  0.00  0.00    +0.000 A 
ATOM      4  C   UNL     1       4.032   5.877  17.098  0.00  0.00    +0.000 A 
ATOM      5  C   UNL     1       3.178   6.158  18.182  0.00  0.00    +0.000 A 
ATOM      6  C   UNL     1       3.000   5.210  19.219  0.00  0.00    +0.000 A 
ATOM      7  C   UNL     1       2.144   5.356  20.428  0.00  0.00    +0.000 A 
ATOM      8  C   UNL     1       1.316   6.562  20.763  0.00  0.00    +0.000 C 
ATOM      9  C   UNL     1       2.092   4.341  21.306  0.00  0.00    +0.000 A 
ATOM     10  C   UNL     1       2.829   3.085  21.165  0.00  0.00    +0.000 A 
ATOM     11  O   UNL     1       2.739   2.199  22.009  0.00  0.00    +0.000 OA
ATOM     12  O   UNL     1       3.621   2.966  20.044  0.00  0.00    +0.000 OA
ATOM     13  C   UNL     1       3.708   4.001  19.090  0.00  0.00    +0.000 A 
ATOM     14  C   UNL     1       4.552   3.718  18.012  0.00  0.00    +0.000 A 
ENDBRANCH   1   5
BRANCH   1  15
ATOM     15  C   UNL     1       2.929   8.495  17.601  0.00  0.00    +0.000 C 
BRANCH  15  16
ATOM     16  C   UNL     1       1.894   9.585  17.876  0.00  0.00    +0.000 C 
ATOM     17  O   UNL     1       0.692   9.341  17.949  0.00  0.00    +0.000 OA
ATOM     18  N   UNL     1       2.411  10.860  18.006  0.00  0.00    +0.000 N 
ATOM     19  H   UNL     1       3.407  11.004  17.883  0.00  0.00    +0.000 HD
BRANCH  18  20
ATOM     20  C   UNL     1       1.567  12.021  18.228  0.00  0.00    +0.000 C 
BRANCH  20  21
ATOM     21  C   UNL     1       1.348  12.314  19.713  0.00  0.00    +0.000 C 
BRANCH  21  22
ATOM     22  C   UNL     1      -0.122  12.199  20.114  0.00  0.00    +0.000 C 
BRANCH  22  23
ATOM     23  N   UNL     1      -0.344  11.257  21.199  0.00  0.00    +0.000 N 
ATOM     24  C   UNL     1       0.503  10.114  21.422  0.00  0.00    +0.000 C 
ATOM     25  C   UNL     1      -0.260   9.320  22.466  0.00  0.00    +0.000 C 
ATOM     26  C   UNL     1      -0.979  10.391  23.278  0.00  0.00    +0.000 C 
ATOM     27  C   UNL     1      -1.205  11.487  22.265  0.00  0.00    +0.000 C 
ATOM     28  O   UNL     1      -1.964  12.432  22.397  0.00  0.00    +0.000 OA
ENDBRANCH  22  23
ENDBRANCH  21  22
ENDBRANCH  20  21
ENDBRANCH  18  20
ENDBRANCH  15  16
ENDBRANCH   1  15
TORSDOF 7
ENDMDL
