MODEL 1
REMARK VINA RESULT:      -6.2      0.000      0.000
REMARK  Name = 
REMARK  12 active torsions:
REMARK  status: ('A' for Active; 'I' for Inactive)
REMARK    1  A    between atoms: C_1  and  C_2
REMARK    2  A    between atoms: C_2  and  N_3
REMARK    3  A    between atoms: N_3  and  C_4
REMARK    4  A    between atoms: N_3  and  C_6
REMARK    5  A    between atoms: C_4  and  C_5
REMARK    6  A    between atoms: C_6  and  C_7
REMARK    7  A    between atoms: C_7  and  N_8
REMARK    8  A    between atoms: C_9  and  C_11
REMARK    9  A    between atoms: C_15  and  N_16
REMARK   10  A    between atoms: C_18  and  O_19
REMARK   11  A    between atoms: O_19  and  C_20
REMARK   12  A    between atoms: C_20  and  C_21
REMARK                            x       y       z     vdW  Elec       q    Type
REMARK                         _______ _______ _______ _____ _____    ______ ____
ROOT
ATOM      1  C   UNL     1       2.882   6.499  18.962  0.00  0.00    +0.000 A 
ATOM      2  C   UNL     1       2.714   7.730  18.313  0.00  0.00    +0.000 A 
ATOM      3  C   UNL     1       1.894   8.715  18.866  0.00  0.00    +0.000 A 
ATOM      4 CL   UNL     1       1.688  10.195  18.004  0.00  0.00    +0.000 Cl
ATOM      5  C   UNL     1       1.269   8.517  20.112  0.00  0.00    +0.000 A 
ATOM      6  C   UNL     1       1.427   7.277  20.748  0.00  0.00    +0.000 A 
ATOM      7  C   UNL     1       2.222   6.269  20.181  0.00  0.00    +0.000 A 
ENDROOT
BRANCH   1   9
ATOM      8  N   UNL     1       4.993   5.254  18.815  0.00  0.00    +0.000 N 
ATOM      9  C   UNL     1       3.751   5.502  18.269  0.00  0.00    +0.000 C 
ATOM     10  O   UNL     1       3.327   4.923  17.272  0.00  0.00    +0.000 OA
ATOM     11  H   UNL     1       5.332   5.846  19.561  0.00  0.00    +0.000 HD
BRANCH   8  12
ATOM     12  C   UNL     1       5.921   4.324  18.179  0.00  0.00    +0.000 C 
BRANCH  12  13
ATOM     13  C   UNL     1       7.254   4.975  17.729  0.00  0.00    +0.000 C 
BRANCH  13  14
ATOM     14  N   UNL     1       7.163   5.935  16.607  0.00  0.00    +0.000 NA
BRANCH  14  16
ATOM     15  C   UNL     1       6.962   4.607  14.459  0.00  0.00    +0.000 C 
ATOM     16  C   UNL     1       6.276   5.433  15.543  0.00  0.00    +0.000 C 
ENDBRANCH  14  16
BRANCH  14  17
ATOM     17  C   UNL     1       6.821   7.290  17.077  0.00  0.00    +0.000 C 
ATOM     18  C   UNL     1       7.941   8.091  17.741  0.00  0.00    +0.000 C 
ENDBRANCH  14  17
ENDBRANCH  13  14
ENDBRANCH  12  13
ENDBRANCH   8  12
ENDBRANCH   1   9
BRANCH   5  19
ATOM     19  N   UNL     1       0.323   9.429  20.617  0.00  0.00    +0.000 N 
ATOM     20  H   UNL     1      -0.583   8.996  20.793  0.00  0.00    +0.000 HD
ATOM     21  H   UNL     1       0.248  10.299  20.102  0.00  0.00    +0.000 HD
ENDBRANCH   5  19
BRANCH   7  22
ATOM     22  O   UNL     1       2.448   5.076  20.798  0.00  0.00    +0.000 OA
BRANCH  22  23
ATOM     23  C   UNL     1       1.407   4.097  20.760  0.00  0.00    +0.000 C 
BRANCH  23  24
ATOM     24  C   UNL     1       2.091   2.775  20.694  0.00  0.00    +0.000 C 
ATOM     25  C   UNL     1       2.385   2.170  19.343  0.00  0.00    +0.000 C 
ATOM     26  O   UNL     1       3.413   2.761  20.151  0.00  0.00    +0.000 OA
ENDBRANCH  23  24
ENDBRANCH  22  23
ENDBRANCH   7  22
TORSDOF 10
ENDMDL
MODEL 2
REMARK VINA RESULT:      -6.2      3.097      6.620
REMARK  Name = 
REMARK  12 active torsions:
REMARK  status: ('A' for Active; 'I' for Inactive)
REMARK    1  A    between atoms: C_1  and  C_2
REMARK    2  A    between atoms: C_2  and  N_3
REMARK    3  A    between atoms: N_3  and  C_4
REMARK    4  A    between atoms: N_3  and  C_6
REMARK    5  A    between atoms: C_4  and  C_5
REMARK    6  A    between atoms: C_6  and  C_7
REMARK    7  A    between atoms: C_7  and  N_8
REMARK    8  A    between atoms: C_9  and  C_11
REMARK    9  A    between atoms: C_15  and  N_16
REMARK   10  A    between atoms: C_18  and  O_19
REMARK   11  A    between atoms: O_19  and  C_20
REMARK   12  A    between atoms: C_20  and  C_21
REMARK                            x       y       z     vdW  Elec       q    Type
REMARK                         _______ _______ _______ _____ _____    ______ ____
ROOT
ATOM      1  C   UNL     1       5.423   4.320  15.856  0.00  0.00    +0.000 A 
ATOM      2  C   UNL     1       5.499   3.581  14.667  0.00  0.00    +0.000 A 
ATOM      3  C   UNL     1       6.365   3.973  13.646  0.00  0.00    +0.000 A 
ATOM      4 CL   UNL     1       6.388   3.053  12.186  0.00  0.00    +0.000 Cl
ATOM      5  C   UNL     1       7.223   5.078  13.812  0.00  0.00    +0.000 A 
ATOM      6  C   UNL     1       7.130   5.822  14.996  0.00  0.00    +0.000 A 
ATOM      7  C   UNL     1       6.236   5.454  16.014  0.00  0.00    +0.000 A 
ENDROOT
BRANCH   1   9
ATOM      8  N   UNL     1       4.925   3.499  18.116  0.00  0.00    +0.000 N 
ATOM      9  C   UNL     1       4.439   3.836  16.871  0.00  0.00    +0.000 C 
ATOM     10  O   UNL     1       3.248   3.786  16.577  0.00  0.00    +0.000 OA
ATOM     11  H   UNL     1       5.924   3.445  18.259  0.00  0.00    +0.000 HD
BRANCH   8  12
ATOM     12  C   UNL     1       4.038   2.980  19.153  0.00  0.00    +0.000 C 
BRANCH  12  13
ATOM     13  C   UNL     1       3.484   4.066  20.110  0.00  0.00    +0.000 C 
BRANCH  13  14
ATOM     14  N   UNL     1       2.209   4.699  19.707  0.00  0.00    +0.000 NA
BRANCH  14  16
ATOM     15  C   UNL     1       1.351   2.911  21.284  0.00  0.00    +0.000 C 
ATOM     16  C   UNL     1       1.086   4.208  20.523  0.00  0.00    +0.000 C 
ENDBRANCH  14  16
BRANCH  14  17
ATOM     17  C   UNL     1       2.320   6.169  19.669  0.00  0.00    +0.000 C 
ATOM     18  C   UNL     1       2.980   6.777  18.432  0.00  0.00    +0.000 C 
ENDBRANCH  14  17
ENDBRANCH  13  14
ENDBRANCH  12  13
ENDBRANCH   8  12
ENDBRANCH   1   9
BRANCH   5  19
ATOM     19  N   UNL     1       7.994   5.581  12.747  0.00  0.00    +0.000 N 
ATOM     20  H   UNL     1       7.459   6.190  12.129  0.00  0.00    +0.000 HD
ATOM     21  H   UNL     1       8.533   4.886  12.241  0.00  0.00    +0.000 HD
ENDBRANCH   5  19
BRANCH   7  22
ATOM     22  O   UNL     1       6.161   6.117  17.202  0.00  0.00    +0.000 OA
BRANCH  22  23
ATOM     23  C   UNL     1       7.387   6.501  17.830  0.00  0.00    +0.000 C 
BRANCH  23  24
ATOM     24  C   UNL     1       7.774   5.357  18.703  0.00  0.00    +0.000 C 
ATOM     25  C   UNL     1       8.213   5.633  20.120  0.00  0.00    +0.000 C 
ATOM     26  O   UNL     1       6.923   5.081  19.817  0.00  0.00    +0.000 OA
ENDBRANCH  23  24
ENDBRANCH  22  23
ENDBRANCH   7  22
TORSDOF 10
ENDMDL
MODEL 3
REMARK VINA RESULT:      -6.1      3.005      6.770
REMARK  Name = 
REMARK  12 active torsions:
REMARK  status: ('A' for Active; 'I' for Inactive)
REMARK    1  A    between atoms: C_1  and  C_2
REMARK    2  A    between atoms: C_2  and  N_3
REMARK    3  A    between atoms: N_3  and  C_4
REMARK    4  A    between atoms: N_3  and  C_6
REMARK    5  A    between atoms: C_4  and  C_5
REMARK    6  A    between atoms: C_6  and  C_7
REMARK    7  A    between atoms: C_7  and  N_8
REMARK    8  A    between atoms: C_9  and  C_11
REMARK    9  A    between atoms: C_15  and  N_16
REMARK   10  A    between atoms: C_18  and  O_19
REMARK   11  A    between atoms: O_19  and  C_20
REMARK   12  A    between atoms: C_20  and  C_21
REMARK                            x       y       z     vdW  Elec       q    Type
REMARK                         _______ _______ _______ _____ _____    ______ ____
ROOT
ATOM      1  C   UNL     1       2.678   5.708  18.641  0.00  0.00    +0.000 A 
ATOM      2  C   UNL     1       2.008   4.800  19.474  0.00  0.00    +0.000 A 
ATOM      3  C   UNL     1       2.187   3.426  19.311  0.00  0.00    +0.000 A 
ATOM      4 CL   UNL     1       1.305   2.352  20.334  0.00  0.00    +0.000 Cl
ATOM      5  C   UNL     1       3.090   2.925  18.352  0.00  0.00    +0.000 A 
ATOM      6  C   UNL     1       3.744   3.837  17.512  0.00  0.00    +0.000 A 
ATOM      7  C   UNL     1       3.542   5.219  17.647  0.00  0.00    +0.000 A 
ENDROOT
BRANCH   1   9
ATOM      8  N   UNL     1       2.250   7.962  17.767  0.00  0.00    +0.000 N 
ATOM      9  C   UNL     1       2.389   7.154  18.875  0.00  0.00    +0.000 C 
ATOM     10  O   UNL     1       2.259   7.563  20.026  0.00  0.00    +0.000 OA
ATOM     11  H   UNL     1       2.488   7.595  16.855  0.00  0.00    +0.000 HD
BRANCH   8  12
ATOM     12  C   UNL     1       2.007   9.394  17.907  0.00  0.00    +0.000 C 
BRANCH  12  13
ATOM     13  C   UNL     1       0.513   9.765  18.085  0.00  0.00    +0.000 C 
BRANCH  13  14
ATOM     14  N   UNL     1       0.239  11.055  18.756  0.00  0.00    +0.000 NA
BRANCH  14  16
ATOM     15  C   UNL     1      -1.976  10.597  17.614  0.00  0.00    +0.000 C 
ATOM     16  C   UNL     1      -1.107  11.554  18.426  0.00  0.00    +0.000 C 
ENDBRANCH  14  16
BRANCH  14  17
ATOM     17  C   UNL     1       0.508  10.982  20.204  0.00  0.00    +0.000 C 
ATOM     18  C   UNL     1      -0.155   9.839  20.971  0.00  0.00    +0.000 C 
ENDBRANCH  14  17
ENDBRANCH  13  14
ENDBRANCH  12  13
ENDBRANCH   8  12
ENDBRANCH   1   9
BRANCH   5  19
ATOM     19  N   UNL     1       3.176   1.549  18.068  0.00  0.00    +0.000 N 
ATOM     20  H   UNL     1       3.684   1.357  17.205  0.00  0.00    +0.000 HD
ATOM     21  H   UNL     1       2.300   1.042  18.128  0.00  0.00    +0.000 HD
ENDBRANCH   5  19
BRANCH   7  22
ATOM     22  O   UNL     1       4.206   6.137  16.890  0.00  0.00    +0.000 OA
BRANCH  22  23
ATOM     23  C   UNL     1       5.590   5.902  16.619  0.00  0.00    +0.000 C 
BRANCH  23  24
ATOM     24  C   UNL     1       6.332   6.988  17.320  0.00  0.00    +0.000 C 
ATOM     25  C   UNL     1       7.591   6.643  18.077  0.00  0.00    +0.000 C 
ATOM     26  O   UNL     1       7.626   7.316  16.810  0.00  0.00    +0.000 OA
ENDBRANCH  23  24
ENDBRANCH  22  23
ENDBRANCH   7  22
TORSDOF 10
ENDMDL
MODEL 4
REMARK VINA RESULT:      -6.1      2.855      6.616
REMARK  Name = 
REMARK  12 active torsions:
REMARK  status: ('A' for Active; 'I' for Inactive)
REMARK    1  A    between atoms: C_1  and  C_2
REMARK    2  A    between atoms: C_2  and  N_3
REMARK    3  A    between atoms: N_3  and  C_4
REMARK    4  A    between atoms: N_3  and  C_6
REMARK    5  A    between atoms: C_4  and  C_5
REMARK    6  A    between atoms: C_6  and  C_7
REMARK    7  A    between atoms: C_7  and  N_8
REMARK    8  A    between atoms: C_9  and  C_11
REMARK    9  A    between atoms: C_15  and  N_16
REMARK   10  A    between atoms: C_18  and  O_19
REMARK   11  A    between atoms: O_19  and  C_20
REMARK   12  A    between atoms: C_20  and  C_21
REMARK                            x       y       z     vdW  Elec       q    Type
REMARK                         _______ _______ _______ _____ _____    ______ ____
ROOT
ATOM      1  C   UNL     1       2.887   5.540  18.704  0.00  0.00    +0.000 A 
ATOM      2  C   UNL     1       1.850   4.612  18.877  0.00  0.00    +0.000 A 
ATOM      3  C   UNL     1       2.075   3.252  18.663  0.00  0.00    +0.000 A 
ATOM      4 CL   UNL     1       0.752   2.159  18.848  0.00  0.00    +0.000 Cl
ATOM      5  C   UNL     1       3.359   2.777  18.333  0.00  0.00    +0.000 A 
ATOM      6  C   UNL     1       4.387   3.710  18.145  0.00  0.00    +0.000 A 
ATOM      7  C   UNL     1       4.160   5.083  18.323  0.00  0.00    +0.000 A 
ENDROOT
BRANCH   1   9
ATOM      8  N   UNL     1       2.505   7.798  17.818  0.00  0.00    +0.000 N 
ATOM      9  C   UNL     1       2.533   6.974  18.923  0.00  0.00    +0.000 C 
ATOM     10  O   UNL     1       2.254   7.359  20.056  0.00  0.00    +0.000 OA
ATOM     11  H   UNL     1       2.861   7.453  16.936  0.00  0.00    +0.000 HD
BRANCH   8  12
ATOM     12  C   UNL     1       2.209   9.221  17.948  0.00  0.00    +0.000 C 
BRANCH  12  13
ATOM     13  C   UNL     1       0.694   9.550  17.959  0.00  0.00    +0.000 C 
BRANCH  13  14
ATOM     14  N   UNL     1       0.296  10.756  18.718  0.00  0.00    +0.000 NA
BRANCH  14  16
ATOM     15  C   UNL     1      -1.872  10.136  17.564  0.00  0.00    +0.000 C 
ATOM     16  C   UNL     1      -1.120  11.089  18.489  0.00  0.00    +0.000 C 
ENDBRANCH  14  16
BRANCH  14  17
ATOM     17  C   UNL     1       0.659  10.646  20.143  0.00  0.00    +0.000 C 
ATOM     18  C   UNL     1      -0.178   9.691  20.995  0.00  0.00    +0.000 C 
ENDBRANCH  14  17
ENDBRANCH  13  14
ENDBRANCH  12  13
ENDBRANCH   8  12
ENDBRANCH   1   9
BRANCH   5  19
ATOM     19  N   UNL     1       3.577   1.435  17.967  0.00  0.00    +0.000 N 
ATOM     20  H   UNL     1       3.724   0.827  18.772  0.00  0.00    +0.000 HD
ATOM     21  H   UNL     1       4.270   1.295  17.240  0.00  0.00    +0.000 HD
ENDBRANCH   5  19
BRANCH   7  22
ATOM     22  O   UNL     1       5.149   6.014  18.210  0.00  0.00    +0.000 OA
BRANCH  22  23
ATOM     23  C   UNL     1       6.502   5.552  18.209  0.00  0.00    +0.000 C 
BRANCH  23  24
ATOM     24  C   UNL     1       7.078   5.980  16.903  0.00  0.00    +0.000 C 
ATOM     25  C   UNL     1       7.021   5.032  15.731  0.00  0.00    +0.000 C 
ATOM     26  O   UNL     1       6.159   6.175  15.827  0.00  0.00    +0.000 OA
ENDBRANCH  23  24
ENDBRANCH  22  23
ENDBRANCH   7  22
TORSDOF 10
ENDMDL
MODEL 5
REMARK VINA RESULT:      -6.0      3.112      6.916
REMARK  Name = 
REMARK  12 active torsions:
REMARK  status: ('A' for Active; 'I' for Inactive)
REMARK    1  A    between atoms: C_1  and  C_2
REMARK    2  A    between atoms: C_2  and  N_3
REMARK    3  A    between atoms: N_3  and  C_4
REMARK    4  A    between atoms: N_3  and  C_6
REMARK    5  A    between atoms: C_4  and  C_5
REMARK    6  A    between atoms: C_6  and  C_7
REMARK    7  A    between atoms: C_7  and  N_8
REMARK    8  A    between atoms: C_9  and  C_11
REMARK    9  A    between atoms: C_15  and  N_16
REMARK   10  A    between atoms: C_18  and  O_19
REMARK   11  A    between atoms: O_19  and  C_20
REMARK   12  A    between atoms: C_20  and  C_21
REMARK                            x       y       z     vdW  Elec       q    Type
REMARK                         _______ _______ _______ _____ _____    ______ ____
ROOT
ATOM      1  C   UNL     1       5.368   4.031  16.014  0.00  0.00    +0.000 A 
ATOM      2  C   UNL     1       5.271   3.527  14.709  0.00  0.00    +0.000 A 
ATOM      3  C   UNL     1       6.142   3.970  13.714  0.00  0.00    +0.000 A 
ATOM      4 CL   UNL     1       5.951   3.348  12.115  0.00  0.00    +0.000 Cl
ATOM      5  C   UNL     1       7.173   4.882  14.011  0.00  0.00    +0.000 A 
ATOM      6  C   UNL     1       7.254   5.396  15.313  0.00  0.00    +0.000 A 
ATOM      7  C   UNL     1       6.359   4.981  16.311  0.00  0.00    +0.000 A 
ENDROOT
BRANCH   1   9
ATOM      8  N   UNL     1       4.845   3.001  18.181  0.00  0.00    +0.000 N 
ATOM      9  C   UNL     1       4.366   3.518  16.996  0.00  0.00    +0.000 C 
ATOM     10  O   UNL     1       3.169   3.600  16.732  0.00  0.00    +0.000 OA
ATOM     11  H   UNL     1       5.838   2.849  18.288  0.00  0.00    +0.000 HD
BRANCH   8  12
ATOM     12  C   UNL     1       3.937   2.442  19.178  0.00  0.00    +0.000 C 
BRANCH  12  13
ATOM     13  C   UNL     1       3.399   3.482  20.193  0.00  0.00    +0.000 C 
BRANCH  13  14
ATOM     14  N   UNL     1       2.141   4.166  19.820  0.00  0.00    +0.000 NA
BRANCH  14  16
ATOM     15  C   UNL     1       1.330   2.693  21.715  0.00  0.00    +0.000 C 
ATOM     16  C   UNL     1       0.986   3.583  20.523  0.00  0.00    +0.000 C 
ENDBRANCH  14  16
BRANCH  14  17
ATOM     17  C   UNL     1       2.253   5.629  19.968  0.00  0.00    +0.000 C 
ATOM     18  C   UNL     1       3.114   6.361  18.940  0.00  0.00    +0.000 C 
ENDBRANCH  14  17
ENDBRANCH  13  14
ENDBRANCH  12  13
ENDBRANCH   8  12
ENDBRANCH   1   9
BRANCH   5  19
ATOM     19  N   UNL     1       7.965   5.456  12.999  0.00  0.00    +0.000 N 
ATOM     20  H   UNL     1       8.277   6.398  13.231  0.00  0.00    +0.000 HD
ATOM     21  H   UNL     1       7.580   5.390  12.063  0.00  0.00    +0.000 HD
ENDBRANCH   5  19
BRANCH   7  22
ATOM     22  O   UNL     1       6.446   5.411  17.601  0.00  0.00    +0.000 OA
BRANCH  22  23
ATOM     23  C   UNL     1       7.643   6.082  18.002  0.00  0.00    +0.000 C 
BRANCH  23  24
ATOM     24  C   UNL     1       7.279   7.521  18.137  0.00  0.00    +0.000 C 
ATOM     25  C   UNL     1       8.378   8.552  18.191  0.00  0.00    +0.000 C 
ATOM     26  O   UNL     1       7.568   8.366  17.022  0.00  0.00    +0.000 OA
ENDBRANCH  23  24
ENDBRANCH  22  23
ENDBRANCH   7  22
TORSDOF 10
ENDMDL
MODEL 6
REMARK VINA RESULT:      -6.0      1.120      1.331
REMARK  Name = 
REMARK  12 active torsions:
REMARK  status: ('A' for Active; 'I' for Inactive)
REMARK    1  A    between atoms: C_1  and  C_2
REMARK    2  A    between atoms: C_2  and  N_3
REMARK    3  A    between atoms: N_3  and  C_4
REMARK    4  A    between atoms: N_3  and  C_6
REMARK    5  A    between atoms: C_4  and  C_5
REMARK    6  A    between atoms: C_6  and  C_7
REMARK    7  A    between atoms: C_7  and  N_8
REMARK    8  A    between atoms: C_9  and  C_11
REMARK    9  A    between atoms: C_15  and  N_16
REMARK   10  A    between atoms: C_18  and  O_19
REMARK   11  A    between atoms: O_19  and  C_20
REMARK   12  A    between atoms: C_20  and  C_21
REMARK                            x       y       z     vdW  Elec       q    Type
REMARK                         _______ _______ _______ _____ _____    ______ ____
ROOT
ATOM      1  C   UNL     1       2.634   7.292  18.704  0.00  0.00    +0.000 A 
ATOM      2  C   UNL     1       2.136   8.543  18.312  0.00  0.00    +0.000 A 
ATOM      3  C   UNL     1       1.282   9.259  19.152  0.00  0.00    +0.000 A 
ATOM      4 CL   UNL     1       0.665  10.773  18.602  0.00  0.00    +0.000 Cl
ATOM      5  C   UNL     1       0.954   8.771  20.432  0.00  0.00    +0.000 A 
ATOM      6  C   UNL     1       1.441   7.513  20.811  0.00  0.00    +0.000 A 
ATOM      7  C   UNL     1       2.272   6.771  19.957  0.00  0.00    +0.000 A 
ENDROOT
BRANCH   1   9
ATOM      8  N   UNL     1       3.374   5.226  17.602  0.00  0.00    +0.000 N 
ATOM      9  C   UNL     1       3.511   6.593  17.718  0.00  0.00    +0.000 C 
ATOM     10  O   UNL     1       4.290   7.251  17.033  0.00  0.00    +0.000 OA
ATOM     11  H   UNL     1       2.806   4.728  18.275  0.00  0.00    +0.000 HD
BRANCH   8  12
ATOM     12  C   UNL     1       4.219   4.460  16.692  0.00  0.00    +0.000 C 
BRANCH  12  13
ATOM     13  C   UNL     1       5.510   3.906  17.348  0.00  0.00    +0.000 C 
BRANCH  13  14
ATOM     14  N   UNL     1       6.784   4.486  16.868  0.00  0.00    +0.000 NA
BRANCH  14  16
ATOM     15  C   UNL     1       6.886   4.466  14.337  0.00  0.00    +0.000 C 
ATOM     16  C   UNL     1       6.591   5.241  15.619  0.00  0.00    +0.000 C 
ENDBRANCH  14  16
BRANCH  14  17
ATOM     17  C   UNL     1       7.466   5.251  17.928  0.00  0.00    +0.000 C 
ATOM     18  C   UNL     1       7.570   6.763  17.726  0.00  0.00    +0.000 C 
ENDBRANCH  14  17
ENDBRANCH  13  14
ENDBRANCH  12  13
ENDBRANCH   8  12
ENDBRANCH   1   9
BRANCH   5  19
ATOM     19  N   UNL     1      -0.018   9.398  21.233  0.00  0.00    +0.000 N 
ATOM     20  H   UNL     1       0.390   9.978  21.966  0.00  0.00    +0.000 HD
ATOM     21  H   UNL     1      -0.748   8.786  21.580  0.00  0.00    +0.000 HD
ENDBRANCH   5  19
BRANCH   7  22
ATOM     22  O   UNL     1       2.814   5.573  20.315  0.00  0.00    +0.000 OA
BRANCH  22  23
ATOM     23  C   UNL     1       2.020   4.696  21.117  0.00  0.00    +0.000 C 
BRANCH  23  24
ATOM     24  C   UNL     1       2.518   3.320  20.833  0.00  0.00    +0.000 C 
ATOM     25  C   UNL     1       1.620   2.352  20.105  0.00  0.00    +0.000 C 
ATOM     26  O   UNL     1       2.735   2.985  19.461  0.00  0.00    +0.000 OA
ENDBRANCH  23  24
ENDBRANCH  22  23
ENDBRANCH   7  22
TORSDOF 10
ENDMDL
MODEL 7
REMARK VINA RESULT:      -5.9      2.544      6.323
REMARK  Name = 
REMARK  12 active torsions:
REMARK  status: ('A' for Active; 'I' for Inactive)
REMARK    1  A    between atoms: C_1  and  C_2
REMARK    2  A    between atoms: C_2  and  N_3
REMARK    3  A    between atoms: N_3  and  C_4
REMARK    4  A    between atoms: N_3  and  C_6
REMARK    5  A    between atoms: C_4  and  C_5
REMARK    6  A    between atoms: C_6  and  C_7
REMARK    7  A    between atoms: C_7  and  N_8
REMARK    8  A    between atoms: C_9  and  C_11
REMARK    9  A    between atoms: C_15  and  N_16
REMARK   10  A    between atoms: C_18  and  O_19
REMARK   11  A    between atoms: O_19  and  C_20
REMARK   12  A    between atoms: C_20  and  C_21
REMARK                            x       y       z     vdW  Elec       q    Type
REMARK                         _______ _______ _______ _____ _____    ______ ____
ROOT
ATOM      1  C   UNL     1       3.243   6.156  18.138  0.00  0.00    +0.000 A 
ATOM      2  C   UNL     1       4.511   6.572  17.707  0.00  0.00    +0.000 A 
ATOM      3  C   UNL     1       5.367   5.678  17.063  0.00  0.00    +0.000 A 
ATOM      4 CL   UNL     1       6.932   6.231  16.593  0.00  0.00    +0.000 Cl
ATOM      5  C   UNL     1       4.953   4.362  16.777  0.00  0.00    +0.000 A 
ATOM      6  C   UNL     1       3.692   3.947  17.225  0.00  0.00    +0.000 A 
ATOM      7  C   UNL     1       2.839   4.831  17.905  0.00  0.00    +0.000 A 
ENDROOT
BRANCH   1   9
ATOM      8  N   UNL     1       2.199   6.995  20.196  0.00  0.00    +0.000 N 
ATOM      9  C   UNL     1       2.418   7.179  18.847  0.00  0.00    +0.000 C 
ATOM     10  O   UNL     1       1.996   8.150  18.223  0.00  0.00    +0.000 OA
ATOM     11  H   UNL     1       2.467   6.120  20.625  0.00  0.00    +0.000 HD
BRANCH   8  12
ATOM     12  C   UNL     1       1.371   7.926  20.956  0.00  0.00    +0.000 C 
BRANCH  12  13
ATOM     13  C   UNL     1       1.187   9.306  20.275  0.00  0.00    +0.000 C 
BRANCH  13  14
ATOM     14  N   UNL     1      -0.075  10.017  20.578  0.00  0.00    +0.000 NA
BRANCH  14  16
ATOM     15  C   UNL     1      -0.731  10.054  23.024  0.00  0.00    +0.000 C 
ATOM     16  C   UNL     1       0.006  10.724  21.868  0.00  0.00    +0.000 C 
ENDBRANCH  14  16
BRANCH  14  17
ATOM     17  C   UNL     1      -0.498  10.874  19.455  0.00  0.00    +0.000 C 
ATOM     18  C   UNL     1      -1.529  10.286  18.492  0.00  0.00    +0.000 C 
ENDBRANCH  14  17
ENDBRANCH  13  14
ENDBRANCH  12  13
ENDBRANCH   8  12
ENDBRANCH   1   9
BRANCH   5  19
ATOM     19  N   UNL     1       5.848   3.402  16.266  0.00  0.00    +0.000 N 
ATOM     20  H   UNL     1       6.417   2.970  16.993  0.00  0.00    +0.000 HD
ATOM     21  H   UNL     1       6.395   3.707  15.469  0.00  0.00    +0.000 HD
ENDBRANCH   5  19
BRANCH   7  22
ATOM     22  O   UNL     1       1.582   4.482  18.301  0.00  0.00    +0.000 OA
BRANCH  22  23
ATOM     23  C   UNL     1       1.415   3.220  18.951  0.00  0.00    +0.000 C 
BRANCH  23  24
ATOM     24  C   UNL     1       0.954   3.531  20.333  0.00  0.00    +0.000 C 
ATOM     25  C   UNL     1       1.558   2.779  21.493  0.00  0.00    +0.000 C 
ATOM     26  O   UNL     1       1.905   4.141  21.207  0.00  0.00    +0.000 OA
ENDBRANCH  23  24
ENDBRANCH  22  23
ENDBRANCH   7  22
TORSDOF 10
ENDMDL
MODEL 8
REMARK VINA RESULT:      -5.9      3.012      6.683
REMARK  Name = 
REMARK  12 active torsions:
REMARK  status: ('A' for Active; 'I' for Inactive)
REMARK    1  A    between atoms: C_1  and  C_2
REMARK    2  A    between atoms: C_2  and  N_3
REMARK    3  A    between atoms: N_3  and  C_4
REMARK    4  A    between atoms: N_3  and  C_6
REMARK    5  A    between atoms: C_4  and  C_5
REMARK    6  A    between atoms: C_6  and  C_7
REMARK    7  A    between atoms: C_7  and  N_8
REMARK    8  A    between atoms: C_9  and  C_11
REMARK    9  A    between atoms: C_15  and  N_16
REMARK   10  A    between atoms: C_18  and  O_19
REMARK   11  A    between atoms: O_19  and  C_20
REMARK   12  A    between atoms: C_20  and  C_21
REMARK                            x       y       z     vdW  Elec       q    Type
REMARK                         _______ _______ _______ _____ _____    ______ ____
ROOT
ATOM      1  C   UNL     1       2.593   5.784  18.762  0.00  0.00    +0.000 A 
ATOM      2  C   UNL     1       1.929   4.899  19.624  0.00  0.00    +0.000 A 
ATOM      3  C   UNL     1       2.084   3.520  19.479  0.00  0.00    +0.000 A 
ATOM      4 CL   UNL     1       1.209   2.477  20.539  0.00  0.00    +0.000 Cl
ATOM      5  C   UNL     1       2.956   2.991  18.508  0.00  0.00    +0.000 A 
ATOM      6  C   UNL     1       3.604   3.879  17.639  0.00  0.00    +0.000 A 
ATOM      7  C   UNL     1       3.426   5.266  17.756  0.00  0.00    +0.000 A 
ENDROOT
BRANCH   1   9
ATOM      8  N   UNL     1       2.203   8.035  17.862  0.00  0.00    +0.000 N 
ATOM      9  C   UNL     1       2.333   7.238  18.980  0.00  0.00    +0.000 C 
ATOM     10  O   UNL     1       2.215   7.663  20.126  0.00  0.00    +0.000 OA
ATOM     11  H   UNL     1       2.430   7.652  16.954  0.00  0.00    +0.000 HD
BRANCH   8  12
ATOM     12  C   UNL     1       1.987   9.473  17.985  0.00  0.00    +0.000 C 
BRANCH  12  13
ATOM     13  C   UNL     1       0.508   9.870  18.223  0.00  0.00    +0.000 C 
BRANCH  13  14
ATOM     14  N   UNL     1       0.270  11.267  18.649  0.00  0.00    +0.000 NA
BRANCH  14  16
ATOM     15  C   UNL     1      -0.324  10.286  20.908  0.00  0.00    +0.000 C 
ATOM     16  C   UNL     1      -0.612  11.324  19.827  0.00  0.00    +0.000 C 
ENDBRANCH  14  16
BRANCH  14  17
ATOM     17  C   UNL     1       1.533  12.008  18.813  0.00  0.00    +0.000 C 
ATOM     18  C   UNL     1       1.456  13.531  18.710  0.00  0.00    +0.000 C 
ENDBRANCH  14  17
ENDBRANCH  13  14
ENDBRANCH  12  13
ENDBRANCH   8  12
ENDBRANCH   1   9
BRANCH   5  19
ATOM     19  N   UNL     1       3.015   1.609  18.243  0.00  0.00    +0.000 N 
ATOM     20  H   UNL     1       3.250   1.405  17.273  0.00  0.00    +0.000 HD
ATOM     21  H   UNL     1       2.219   1.075  18.574  0.00  0.00    +0.000 HD
ENDBRANCH   5  19
BRANCH   7  22
ATOM     22  O   UNL     1       4.086   6.162  16.969  0.00  0.00    +0.000 OA
BRANCH  22  23
ATOM     23  C   UNL     1       5.404   5.821  16.532  0.00  0.00    +0.000 C 
BRANCH  23  24
ATOM     24  C   UNL     1       6.313   6.823  17.155  0.00  0.00    +0.000 C 
ATOM     25  C   UNL     1       7.483   6.340  17.975  0.00  0.00    +0.000 C 
ATOM     26  O   UNL     1       7.651   6.877  16.655  0.00  0.00    +0.000 OA
ENDBRANCH  23  24
ENDBRANCH  22  23
ENDBRANCH   7  22
TORSDOF 10
ENDMDL
MODEL 9
REMARK VINA RESULT:      -5.9      2.933      6.764
REMARK  Name = 
REMARK  12 active torsions:
REMARK  status: ('A' for Active; 'I' for Inactive)
REMARK    1  A    between atoms: C_1  and  C_2
REMARK    2  A    between atoms: C_2  and  N_3
REMARK    3  A    between atoms: N_3  and  C_4
REMARK    4  A    between atoms: N_3  and  C_6
REMARK    5  A    between atoms: C_4  and  C_5
REMARK    6  A    between atoms: C_6  and  C_7
REMARK    7  A    between atoms: C_7  and  N_8
REMARK    8  A    between atoms: C_9  and  C_11
REMARK    9  A    between atoms: C_15  and  N_16
REMARK   10  A    between atoms: C_18  and  O_19
REMARK   11  A    between atoms: O_19  and  C_20
REMARK   12  A    between atoms: C_20  and  C_21
REMARK                            x       y       z     vdW  Elec       q    Type
REMARK                         _______ _______ _______ _____ _____    ______ ____
ROOT
ATOM      1  C   UNL     1       2.515   5.763  18.975  0.00  0.00    +0.000 A 
ATOM      2  C   UNL     1       1.937   4.950  19.960  0.00  0.00    +0.000 A 
ATOM      3  C   UNL     1       2.070   3.563  19.899  0.00  0.00    +0.000 A 
ATOM      4 CL   UNL     1       1.302   2.608  21.114  0.00  0.00    +0.000 Cl
ATOM      5  C   UNL     1       2.837   2.955  18.887  0.00  0.00    +0.000 A 
ATOM      6  C   UNL     1       3.399   3.771  17.895  0.00  0.00    +0.000 A 
ATOM      7  C   UNL     1       3.240   5.166  17.930  0.00  0.00    +0.000 A 
ENDROOT
BRANCH   1   9
ATOM      8  N   UNL     1       2.271   7.984  17.957  0.00  0.00    +0.000 N 
ATOM      9  C   UNL     1       2.285   7.232  19.112  0.00  0.00    +0.000 C 
ATOM     10  O   UNL     1       2.089   7.708  20.227  0.00  0.00    +0.000 OA
ATOM     11  H   UNL     1       2.558   7.558  17.086  0.00  0.00    +0.000 HD
BRANCH   8  12
ATOM     12  C   UNL     1       2.092   9.432  18.005  0.00  0.00    +0.000 C 
BRANCH  12  13
ATOM     13  C   UNL     1       0.625   9.892  17.813  0.00  0.00    +0.000 C 
BRANCH  13  14
ATOM     14  N   UNL     1      -0.149  10.131  19.051  0.00  0.00    +0.000 NA
BRANCH  14  16
ATOM     15  C   UNL     1       0.613  10.623  21.416  0.00  0.00    +0.000 C 
ATOM     16  C   UNL     1       0.557  11.056  19.954  0.00  0.00    +0.000 C 
ENDBRANCH  14  16
BRANCH  14  17
ATOM     17  C   UNL     1      -1.538  10.530  18.756  0.00  0.00    +0.000 C 
ATOM     18  C   UNL     1      -2.133  10.028  17.441  0.00  0.00    +0.000 C 
ENDBRANCH  14  17
ENDBRANCH  13  14
ENDBRANCH  12  13
ENDBRANCH   8  12
ENDBRANCH   1   9
BRANCH   5  19
ATOM     19  N   UNL     1       2.862   1.558  18.718  0.00  0.00    +0.000 N 
ATOM     20  H   UNL     1       3.493   1.264  17.973  0.00  0.00    +0.000 HD
ATOM     21  H   UNL     1       1.952   1.117  18.656  0.00  0.00    +0.000 HD
ENDBRANCH   5  19
BRANCH   7  22
ATOM     22  O   UNL     1       3.822   5.995  17.019  0.00  0.00    +0.000 OA
BRANCH  22  23
ATOM     23  C   UNL     1       5.190   5.757  16.679  0.00  0.00    +0.000 C 
BRANCH  23  24
ATOM     24  C   UNL     1       5.988   6.700  17.513  0.00  0.00    +0.000 C 
ATOM     25  C   UNL     1       7.464   6.448  17.693  0.00  0.00    +0.000 C 
ATOM     26  O   UNL     1       6.970   7.486  16.835  0.00  0.00    +0.000 OA
ENDBRANCH  23  24
ENDBRANCH  22  23
ENDBRANCH   7  22
TORSDOF 10
ENDMDL
