MODEL 1
REMARK VINA RESULT:      -8.8      0.000      0.000
REMARK  Name = 
REMARK  5 active torsions:
REMARK  status: ('A' for Active; 'I' for Inactive)
REMARK    1  A    between atoms: C_1  and  N_2
REMARK    2  A    between atoms: N_5  and  C_6
REMARK    3  A    between atoms: C_6  and  C_7
REMARK    4  A    between atoms: C_11  and  C_12
REMARK    5  A    between atoms: C_24  and  C_25
REMARK                            x       y       z     vdW  Elec       q    Type
REMARK                         _______ _______ _______ _____ _____    ______ ____
ROOT
ATOM      1  C   UNL     1       2.430   6.828  19.620  0.00  0.00    +0.000 C 
ATOM      2  O   UNL     1       1.909   6.713  20.716  0.00  0.00    +0.000 OA
ATOM      3  N   UNL     1       3.483   6.033  19.168  0.00  0.00    +0.000 N 
ATOM      4  N   UNL     1       4.080   6.270  17.966  0.00  0.00    +0.000 NA
ATOM      5  C   UNL     1       4.830   5.254  17.698  0.00  0.00    +0.000 C 
ATOM      6  C   UNL     1       4.827   4.169  18.747  0.00  0.00    +0.000 C 
ATOM      7  C   UNL     1       3.907   4.777  19.799  0.00  0.00    +0.000 C 
ENDROOT
BRANCH   5   8
ATOM      8  C   UNL     1       5.650   5.139  16.471  0.00  0.00    +0.000 A 
ATOM      9  C   UNL     1       5.182   4.374  15.472  0.00  0.00    +0.000 A 
ATOM     10  C   UNL     1       5.925   4.282  14.223  0.00  0.00    +0.000 A 
ATOM     11  C   UNL     1       5.485   3.512  13.140  0.00  0.00    +0.000 A 
ATOM     12  C   UNL     1       6.229   3.483  11.956  0.00  0.00    +0.000 A 
ATOM     13  C   UNL     1       7.410   4.218  11.844  0.00  0.00    +0.000 A 
ATOM     14  C   UNL     1       7.857   4.983  12.920  0.00  0.00    +0.000 A 
ATOM     15  C   UNL     1       7.110   5.002  14.093  0.00  0.00    +0.000 A 
ATOM     16  O   UNL     1       7.602   5.781  15.150  0.00  0.00    +0.000 OA
ATOM     17  C   UNL     1       6.937   5.874  16.355  0.00  0.00    +0.000 A 
ATOM     18  O   UNL     1       7.393   6.546  17.273  0.00  0.00    +0.000 OA
ENDBRANCH   5   8
BRANCH   7  19
ATOM     19  C   UNL     1       2.748   3.854  20.129  0.00  0.00    +0.000 A 
ATOM     20  C   UNL     1       1.879   3.422  19.114  0.00  0.00    +0.000 A 
ATOM     21  C   UNL     1       0.803   2.580  19.410  0.00  0.00    +0.000 A 
ATOM     22  C   UNL     1       0.582   2.162  20.721  0.00  0.00    +0.000 A 
ATOM     23  C   UNL     1       1.449   2.568  21.733  0.00  0.00    +0.000 A 
ATOM     24  C   UNL     1       2.527   3.400  21.441  0.00  0.00    +0.000 A 
ENDBRANCH   7  19
BRANCH   1  25
ATOM     25  C   UNL     1       1.919   7.851  18.557  0.00  0.00    +0.000 C 
BRANCH  25  30
ATOM     26  C   UNL     1      -2.003  10.819  18.844  0.00  0.00    +0.000 C 
ATOM     27  N   UNL     1      -0.563  10.684  19.020  0.00  0.00    +0.000 NA
ATOM     28  C   UNL     1       0.126  10.379  17.751  0.00  0.00    +0.000 C 
ATOM     29  C   UNL     1       1.658  10.212  17.946  0.00  0.00    +0.000 C 
ATOM     30  N   UNL     1       2.078   9.262  19.004  0.00  0.00    +0.000 NA
ATOM     31  C   UNL     1       1.288   9.563  20.226  0.00  0.00    +0.000 C 
ATOM     32  C   UNL     1      -0.240   9.650  20.013  0.00  0.00    +0.000 C 
ENDBRANCH  25  30
ENDBRANCH   1  25
TORSDOF 4
ENDMDL
MODEL 2
REMARK VINA RESULT:      -8.5      0.800      1.331
REMARK  Name = 
REMARK  5 active torsions:
REMARK  status: ('A' for Active; 'I' for Inactive)
REMARK    1  A    between atoms: C_1  and  N_2
REMARK    2  A    between atoms: N_5  and  C_6
REMARK    3  A    between atoms: C_6  and  C_7
REMARK    4  A    between atoms: C_11  and  C_12
REMARK    5  A    between atoms: C_24  and  C_25
REMARK                            x       y       z     vdW  Elec       q    Type
REMARK                         _______ _______ _______ _____ _____    ______ ____
ROOT
ATOM      1  C   UNL     1       2.638   7.012  19.667  0.00  0.00    +0.000 C 
ATOM      2  O   UNL     1       2.105   6.897  20.758  0.00  0.00    +0.000 OA
ATOM      3  N   UNL     1       3.621   6.151  19.182  0.00  0.00    +0.000 N 
ATOM      4  N   UNL     1       4.241   6.386  17.990  0.00  0.00    +0.000 NA
ATOM      5  C   UNL     1       4.903   5.322  17.680  0.00  0.00    +0.000 C 
ATOM      6  C   UNL     1       4.806   4.199  18.683  0.00  0.00    +0.000 C 
ATOM      7  C   UNL     1       3.936   4.839  19.760  0.00  0.00    +0.000 C 
ENDROOT
BRANCH   5   8
ATOM      8  C   UNL     1       5.714   5.190  16.449  0.00  0.00    +0.000 A 
ATOM      9  C   UNL     1       5.224   4.436  15.453  0.00  0.00    +0.000 A 
ATOM     10  C   UNL     1       5.959   4.327  14.200  0.00  0.00    +0.000 A 
ATOM     11  C   UNL     1       5.496   3.568  13.119  0.00  0.00    +0.000 A 
ATOM     12  C   UNL     1       6.233   3.522  11.931  0.00  0.00    +0.000 A 
ATOM     13  C   UNL     1       7.430   4.231  11.813  0.00  0.00    +0.000 A 
ATOM     14  C   UNL     1       7.900   4.985  12.887  0.00  0.00    +0.000 A 
ATOM     15  C   UNL     1       7.159   5.020  14.064  0.00  0.00    +0.000 A 
ATOM     16  O   UNL     1       7.674   5.788  15.119  0.00  0.00    +0.000 OA
ATOM     17  C   UNL     1       7.017   5.896  16.327  0.00  0.00    +0.000 A 
ATOM     18  O   UNL     1       7.492   6.557  17.243  0.00  0.00    +0.000 OA
ENDBRANCH   5   8
BRANCH   7  19
ATOM     19  C   UNL     1       2.703   4.004  20.052  0.00  0.00    +0.000 A 
ATOM     20  C   UNL     1       1.840   3.631  19.009  0.00  0.00    +0.000 A 
ATOM     21  C   UNL     1       0.696   2.871  19.269  0.00  0.00    +0.000 A 
ATOM     22  C   UNL     1       0.401   2.477  20.573  0.00  0.00    +0.000 A 
ATOM     23  C   UNL     1       1.260   2.824  21.613  0.00  0.00    +0.000 A 
ATOM     24  C   UNL     1       2.404   3.573  21.357  0.00  0.00    +0.000 A 
ENDBRANCH   7  19
BRANCH   1  25
ATOM     25  C   UNL     1       2.218   8.118  18.648  0.00  0.00    +0.000 C 
BRANCH  25  30
ATOM     26  C   UNL     1       1.681  12.759  20.212  0.00  0.00    +0.000 C 
ATOM     27  N   UNL     1       1.021  11.510  19.856  0.00  0.00    +0.000 NA
ATOM     28  C   UNL     1       1.413  10.400  20.745  0.00  0.00    +0.000 C 
ATOM     29  C   UNL     1       0.725   9.065  20.348  0.00  0.00    +0.000 C 
ATOM     30  N   UNL     1       0.861   8.662  18.927  0.00  0.00    +0.000 NA
ATOM     31  C   UNL     1       0.539   9.843  18.087  0.00  0.00    +0.000 C 
ATOM     32  C   UNL     1       1.294  11.139  18.460  0.00  0.00    +0.000 C 
ENDBRANCH  25  30
ENDBRANCH   1  25
TORSDOF 4
ENDMDL
MODEL 3
REMARK VINA RESULT:      -7.7      5.626      9.959
REMARK  Name = 
REMARK  5 active torsions:
REMARK  status: ('A' for Active; 'I' for Inactive)
REMARK    1  A    between atoms: C_1  and  N_2
REMARK    2  A    between atoms: N_5  and  C_6
REMARK    3  A    between atoms: C_6  and  C_7
REMARK    4  A    between atoms: C_11  and  C_12
REMARK    5  A    between atoms: C_24  and  C_25
REMARK                            x       y       z     vdW  Elec       q    Type
REMARK                         _______ _______ _______ _____ _____    ______ ____
ROOT
ATOM      1  C   UNL     1      -0.802  15.280  23.056  0.00  0.00    +0.000 C 
ATOM      2  O   UNL     1      -1.527  16.057  23.654  0.00  0.00    +0.000 OA
ATOM      3  N   UNL     1      -0.999  13.900  23.018  0.00  0.00    +0.000 N 
ATOM      4  N   UNL     1      -0.102  13.076  22.405  0.00  0.00    +0.000 NA
ATOM      5  C   UNL     1      -0.651  11.912  22.304  0.00  0.00    +0.000 C 
ATOM      6  C   UNL     1      -2.045  11.815  22.874  0.00  0.00    +0.000 C 
ATOM      7  C   UNL     1      -2.239  13.225  23.421  0.00  0.00    +0.000 C 
ENDROOT
BRANCH   5   8
ATOM      8  C   UNL     1       0.015  10.740  21.692  0.00  0.00    +0.000 A 
ATOM      9  C   UNL     1       0.192  10.742  20.362  0.00  0.00    +0.000 A 
ATOM     10  C   UNL     1       0.897   9.639  19.724  0.00  0.00    +0.000 A 
ATOM     11  C   UNL     1       1.125   9.587  18.345  0.00  0.00    +0.000 A 
ATOM     12  C   UNL     1       1.832   8.514  17.793  0.00  0.00    +0.000 A 
ATOM     13  C   UNL     1       2.316   7.491  18.610  0.00  0.00    +0.000 A 
ATOM     14  C   UNL     1       2.089   7.533  19.984  0.00  0.00    +0.000 A 
ATOM     15  C   UNL     1       1.382   8.604  20.521  0.00  0.00    +0.000 A 
ATOM     16  O   UNL     1       1.174   8.600  21.908  0.00  0.00    +0.000 OA
ATOM     17  C   UNL     1       0.491   9.617  22.542  0.00  0.00    +0.000 A 
ATOM     18  O   UNL     1       0.303   9.586  23.753  0.00  0.00    +0.000 OA
ENDBRANCH   5   8
BRANCH   7  19
ATOM     19  C   UNL     1      -3.486  13.879  22.853  0.00  0.00    +0.000 A 
ATOM     20  C   UNL     1      -4.491  14.348  23.714  0.00  0.00    +0.000 A 
ATOM     21  C   UNL     1      -5.647  14.941  23.200  0.00  0.00    +0.000 A 
ATOM     22  C   UNL     1      -5.813  15.071  21.823  0.00  0.00    +0.000 A 
ATOM     23  C   UNL     1      -4.814  14.628  20.959  0.00  0.00    +0.000 A 
ATOM     24  C   UNL     1      -3.657  14.044  21.468  0.00  0.00    +0.000 A 
ENDBRANCH   7  19
BRANCH   1  25
ATOM     25  C   UNL     1       0.406  15.762  22.194  0.00  0.00    +0.000 C 
BRANCH  25  30
ATOM     26  C   UNL     1       2.973  15.297  18.014  0.00  0.00    +0.000 C 
ATOM     27  N   UNL     1       1.831  15.909  18.680  0.00  0.00    +0.000 NA
ATOM     28  C   UNL     1       2.241  16.800  19.782  0.00  0.00    +0.000 C 
ATOM     29  C   UNL     1       1.019  17.432  20.504  0.00  0.00    +0.000 C 
ATOM     30  N   UNL     1      -0.025  16.485  20.965  0.00  0.00    +0.000 NA
ATOM     31  C   UNL     1      -0.330  15.562  19.842  0.00  0.00    +0.000 C 
ATOM     32  C   UNL     1       0.902  14.892  19.192  0.00  0.00    +0.000 C 
ENDBRANCH  25  30
ENDBRANCH   1  25
TORSDOF 4
ENDMDL
MODEL 4
REMARK VINA RESULT:      -7.7      3.363      7.121
REMARK  Name = 
REMARK  5 active torsions:
REMARK  status: ('A' for Active; 'I' for Inactive)
REMARK    1  A    between atoms: C_1  and  N_2
REMARK    2  A    between atoms: N_5  and  C_6
REMARK    3  A    between atoms: C_6  and  C_7
REMARK    4  A    between atoms: C_11  and  C_12
REMARK    5  A    between atoms: C_24  and  C_25
REMARK                            x       y       z     vdW  Elec       q    Type
REMARK                         _______ _______ _______ _____ _____    ______ ____
ROOT
ATOM      1  C   UNL     1       0.361  12.745  18.862  0.00  0.00    +0.000 C 
ATOM      2  O   UNL     1      -0.585  13.492  19.049  0.00  0.00    +0.000 OA
ATOM      3  N   UNL     1       0.332  11.373  19.104  0.00  0.00    +0.000 N 
ATOM      4  N   UNL     1       1.450  10.606  18.958  0.00  0.00    +0.000 NA
ATOM      5  C   UNL     1       1.081   9.369  18.999  0.00  0.00    +0.000 C 
ATOM      6  C   UNL     1      -0.399   9.155  19.195  0.00  0.00    +0.000 C 
ATOM      7  C   UNL     1      -0.893  10.592  19.322  0.00  0.00    +0.000 C 
ENDROOT
BRANCH   5   8
ATOM      8  C   UNL     1       2.017   8.229  18.877  0.00  0.00    +0.000 A 
ATOM      9  C   UNL     1       2.768   8.149  17.768  0.00  0.00    +0.000 A 
ATOM     10  C   UNL     1       3.747   7.079  17.632  0.00  0.00    +0.000 A 
ATOM     11  C   UNL     1       4.568   6.947  16.507  0.00  0.00    +0.000 A 
ATOM     12  C   UNL     1       5.509   5.913  16.446  0.00  0.00    +0.000 A 
ATOM     13  C   UNL     1       5.636   5.008  17.502  0.00  0.00    +0.000 A 
ATOM     14  C   UNL     1       4.817   5.130  18.623  0.00  0.00    +0.000 A 
ATOM     15  C   UNL     1       3.884   6.161  18.671  0.00  0.00    +0.000 A 
ATOM     16  O   UNL     1       3.080   6.241  19.818  0.00  0.00    +0.000 OA
ATOM     17  C   UNL     1       2.128   7.227  19.970  0.00  0.00    +0.000 A 
ATOM     18  O   UNL     1       1.422   7.268  20.971  0.00  0.00    +0.000 OA
ENDBRANCH   5   8
BRANCH   7  19
ATOM     19  C   UNL     1      -1.984  10.899  18.312  0.00  0.00    +0.000 A 
ATOM     20  C   UNL     1      -1.814  10.554  16.962  0.00  0.00    +0.000 A 
ATOM     21  C   UNL     1      -2.808  10.842  16.023  0.00  0.00    +0.000 A 
ATOM     22  C   UNL     1      -3.981  11.479  16.422  0.00  0.00    +0.000 A 
ATOM     23  C   UNL     1      -4.170  11.810  17.762  0.00  0.00    +0.000 A 
ATOM     24  C   UNL     1      -3.186  11.516  18.701  0.00  0.00    +0.000 A 
ENDBRANCH   7  19
BRANCH   1  25
ATOM     25  C   UNL     1       1.709  13.243  18.253  0.00  0.00    +0.000 C 
BRANCH  25  30
ATOM     26  C   UNL     1       6.058  14.886  19.884  0.00  0.00    +0.000 C 
ATOM     27  N   UNL     1       4.705  15.230  19.466  0.00  0.00    +0.000 NA
ATOM     28  C   UNL     1       3.682  14.641  20.352  0.00  0.00    +0.000 C 
ATOM     29  C   UNL     1       2.241  14.991  19.890  0.00  0.00    +0.000 C 
ATOM     30  N   UNL     1       1.926  14.700  18.470  0.00  0.00    +0.000 NA
ATOM     31  C   UNL     1       3.033  15.239  17.638  0.00  0.00    +0.000 C 
ATOM     32  C   UNL     1       4.451  14.813  18.080  0.00  0.00    +0.000 C 
ENDBRANCH  25  30
ENDBRANCH   1  25
TORSDOF 4
ENDMDL
MODEL 5
REMARK VINA RESULT:      -7.7      5.240     10.859
REMARK  Name = 
REMARK  5 active torsions:
REMARK  status: ('A' for Active; 'I' for Inactive)
REMARK    1  A    between atoms: C_1  and  N_2
REMARK    2  A    between atoms: N_5  and  C_6
REMARK    3  A    between atoms: C_6  and  C_7
REMARK    4  A    between atoms: C_11  and  C_12
REMARK    5  A    between atoms: C_24  and  C_25
REMARK                            x       y       z     vdW  Elec       q    Type
REMARK                         _______ _______ _______ _____ _____    ______ ____
ROOT
ATOM      1  C   UNL     1       1.955  12.530  19.107  0.00  0.00    +0.000 C 
ATOM      2  O   UNL     1       2.653  12.106  18.201  0.00  0.00    +0.000 OA
ATOM      3  N   UNL     1       0.645  12.118  19.342  0.00  0.00    +0.000 N 
ATOM      4  N   UNL     1      -0.113  12.695  20.318  0.00  0.00    +0.000 NA
ATOM      5  C   UNL     1      -1.164  11.964  20.478  0.00  0.00    +0.000 C 
ATOM      6  C   UNL     1      -1.241  10.757  19.576  0.00  0.00    +0.000 C 
ATOM      7  C   UNL     1       0.028  10.926  18.747  0.00  0.00    +0.000 C 
ENDROOT
BRANCH   5   8
ATOM      8  C   UNL     1      -2.236  12.268  21.453  0.00  0.00    +0.000 A 
ATOM      9  C   UNL     1      -3.356  12.849  20.994  0.00  0.00    +0.000 A 
ATOM     10  C   UNL     1      -4.461  13.110  21.907  0.00  0.00    +0.000 A 
ATOM     11  C   UNL     1      -5.658  13.701  21.489  0.00  0.00    +0.000 A 
ATOM     12  C   UNL     1      -6.695  13.903  22.407  0.00  0.00    +0.000 A 
ATOM     13  C   UNL     1      -6.544  13.518  23.740  0.00  0.00    +0.000 A 
ATOM     14  C   UNL     1      -5.352  12.933  24.164  0.00  0.00    +0.000 A 
ATOM     15  C   UNL     1      -4.328  12.740  23.243  0.00  0.00    +0.000 A 
ATOM     16  O   UNL     1      -3.146  12.153  23.717  0.00  0.00    +0.000 OA
ATOM     17  C   UNL     1      -2.071  11.912  22.886  0.00  0.00    +0.000 A 
ATOM     18  O   UNL     1      -1.040  11.415  23.324  0.00  0.00    +0.000 OA
ENDBRANCH   5   8
BRANCH   7  19
ATOM     19  C   UNL     1       0.913   9.695  18.822  0.00  0.00    +0.000 A 
ATOM     20  C   UNL     1       1.557   9.217  17.669  0.00  0.00    +0.000 A 
ATOM     21  C   UNL     1       2.365   8.079  17.727  0.00  0.00    +0.000 A 
ATOM     22  C   UNL     1       2.539   7.405  18.934  0.00  0.00    +0.000 A 
ATOM     23  C   UNL     1       1.921   7.881  20.089  0.00  0.00    +0.000 A 
ATOM     24  C   UNL     1       1.122   9.019  20.037  0.00  0.00    +0.000 A 
ENDBRANCH   7  19
BRANCH   1  25
ATOM     25  C   UNL     1       2.489  13.549  20.163  0.00  0.00    +0.000 C 
BRANCH  25  30
ATOM     26  C   UNL     1       0.261  17.854  21.042  0.00  0.00    +0.000 C 
ATOM     27  N   UNL     1       1.338  17.160  20.349  0.00  0.00    +0.000 NA
ATOM     28  C   UNL     1       0.828  16.173  19.378  0.00  0.00    +0.000 C 
ATOM     29  C   UNL     1       1.979  15.418  18.657  0.00  0.00    +0.000 C 
ATOM     30  N   UNL     1       3.001  14.799  19.537  0.00  0.00    +0.000 NA
ATOM     31  C   UNL     1       3.408  15.813  20.544  0.00  0.00    +0.000 C 
ATOM     32  C   UNL     1       2.242  16.494  21.296  0.00  0.00    +0.000 C 
ENDBRANCH  25  30
ENDBRANCH   1  25
TORSDOF 4
ENDMDL
MODEL 6
REMARK VINA RESULT:      -7.7      5.111     10.899
REMARK  Name = 
REMARK  5 active torsions:
REMARK  status: ('A' for Active; 'I' for Inactive)
REMARK    1  A    between atoms: C_1  and  N_2
REMARK    2  A    between atoms: N_5  and  C_6
REMARK    3  A    between atoms: C_6  and  C_7
REMARK    4  A    between atoms: C_11  and  C_12
REMARK    5  A    between atoms: C_24  and  C_25
REMARK                            x       y       z     vdW  Elec       q    Type
REMARK                         _______ _______ _______ _____ _____    ______ ____
ROOT
ATOM      1  C   UNL     1       1.984  12.357  18.840  0.00  0.00    +0.000 C 
ATOM      2  O   UNL     1       2.654  11.878  17.940  0.00  0.00    +0.000 OA
ATOM      3  N   UNL     1       0.691  11.942  19.156  0.00  0.00    +0.000 N 
ATOM      4  N   UNL     1      -0.039  12.577  20.118  0.00  0.00    +0.000 NA
ATOM      5  C   UNL     1      -1.071  11.843  20.370  0.00  0.00    +0.000 C 
ATOM      6  C   UNL     1      -1.160  10.573  19.561  0.00  0.00    +0.000 C 
ATOM      7  C   UNL     1       0.073  10.701  18.673  0.00  0.00    +0.000 C 
ENDROOT
BRANCH   5   8
ATOM      8  C   UNL     1      -2.109  12.201  21.363  0.00  0.00    +0.000 A 
ATOM      9  C   UNL     1      -3.214  12.820  20.920  0.00  0.00    +0.000 A 
ATOM     10  C   UNL     1      -4.289  13.135  21.851  0.00  0.00    +0.000 A 
ATOM     11  C   UNL     1      -5.471  13.768  21.450  0.00  0.00    +0.000 A 
ATOM     12  C   UNL     1      -6.480  14.021  22.386  0.00  0.00    +0.000 A 
ATOM     13  C   UNL     1      -6.317  13.646  23.721  0.00  0.00    +0.000 A 
ATOM     14  C   UNL     1      -5.141  13.019  24.128  0.00  0.00    +0.000 A 
ATOM     15  C   UNL     1      -4.144  12.775  23.189  0.00  0.00    +0.000 A 
ATOM     16  O   UNL     1      -2.976  12.148  23.646  0.00  0.00    +0.000 OA
ATOM     17  C   UNL     1      -1.929  11.854  22.797  0.00  0.00    +0.000 A 
ATOM     18  O   UNL     1      -0.909  11.322  23.221  0.00  0.00    +0.000 OA
ENDBRANCH   5   8
BRANCH   7  19
ATOM     19  C   UNL     1       0.983   9.493  18.801  0.00  0.00    +0.000 A 
ATOM     20  C   UNL     1       1.138   8.855  20.042  0.00  0.00    +0.000 A 
ATOM     21  C   UNL     1       1.982   7.748  20.172  0.00  0.00    +0.000 A 
ATOM     22  C   UNL     1       2.679   7.267  19.066  0.00  0.00    +0.000 A 
ATOM     23  C   UNL     1       2.517   7.879  17.824  0.00  0.00    +0.000 A 
ATOM     24  C   UNL     1       1.672   8.976  17.689  0.00  0.00    +0.000 A 
ENDBRANCH   7  19
BRANCH   1  25
ATOM     25  C   UNL     1       2.539  13.457  19.798  0.00  0.00    +0.000 C 
BRANCH  25  30
ATOM     26  C   UNL     1       6.025  16.889  19.215  0.00  0.00    +0.000 C 
ATOM     27  N   UNL     1       4.605  16.572  19.145  0.00  0.00    +0.000 NA
ATOM     28  C   UNL     1       4.053  16.200  20.461  0.00  0.00    +0.000 C 
ATOM     29  C   UNL     1       2.544  15.840  20.379  0.00  0.00    +0.000 C 
ATOM     30  N   UNL     1       2.172  14.831  19.358  0.00  0.00    +0.000 NA
ATOM     31  C   UNL     1       2.828  15.212  18.081  0.00  0.00    +0.000 C 
ATOM     32  C   UNL     1       4.345  15.493  18.182  0.00  0.00    +0.000 C 
ENDBRANCH  25  30
ENDBRANCH   1  25
TORSDOF 4
ENDMDL
MODEL 7
REMARK VINA RESULT:      -7.6      3.991      7.582
REMARK  Name = 
REMARK  5 active torsions:
REMARK  status: ('A' for Active; 'I' for Inactive)
REMARK    1  A    between atoms: C_1  and  N_2
REMARK    2  A    between atoms: N_5  and  C_6
REMARK    3  A    between atoms: C_6  and  C_7
REMARK    4  A    between atoms: C_11  and  C_12
REMARK    5  A    between atoms: C_24  and  C_25
REMARK                            x       y       z     vdW  Elec       q    Type
REMARK                         _______ _______ _______ _____ _____    ______ ____
ROOT
ATOM      1  C   UNL     1      -0.942  12.620  18.798  0.00  0.00    +0.000 C 
ATOM      2  O   UNL     1      -1.204  13.740  19.204  0.00  0.00    +0.000 OA
ATOM      3  N   UNL     1       0.040  11.800  19.350  0.00  0.00    +0.000 N 
ATOM      4  N   UNL     1       0.345  10.592  18.796  0.00  0.00    +0.000 NA
ATOM      5  C   UNL     1       1.087   9.954  19.637  0.00  0.00    +0.000 C 
ATOM      6  C   UNL     1       1.387  10.702  20.912  0.00  0.00    +0.000 C 
ATOM      7  C   UNL     1       0.677  12.026  20.653  0.00  0.00    +0.000 C 
ENDROOT
BRANCH   5   8
ATOM      8  C   UNL     1       1.627   8.598  19.392  0.00  0.00    +0.000 A 
ATOM      9  C   UNL     1       1.486   7.681  20.362  0.00  0.00    +0.000 A 
ATOM     10  C   UNL     1       1.947   6.317  20.141  0.00  0.00    +0.000 A 
ATOM     11  C   UNL     1       1.817   5.313  21.106  0.00  0.00    +0.000 A 
ATOM     12  C   UNL     1       2.256   4.014  20.826  0.00  0.00    +0.000 A 
ATOM     13  C   UNL     1       2.822   3.710  19.587  0.00  0.00    +0.000 A 
ATOM     14  C   UNL     1       2.959   4.707  18.622  0.00  0.00    +0.000 A 
ATOM     15  C   UNL     1       2.522   5.995  18.914  0.00  0.00    +0.000 A 
ATOM     16  O   UNL     1       2.685   6.965  17.914  0.00  0.00    +0.000 OA
ATOM     17  C   UNL     1       2.281   8.272  18.097  0.00  0.00    +0.000 A 
ATOM     18  O   UNL     1       2.449   9.109  17.218  0.00  0.00    +0.000 OA
ENDBRANCH   5   8
BRANCH   7  19
ATOM     19  C   UNL     1      -0.315  12.353  21.755  0.00  0.00    +0.000 A 
ATOM     20  C   UNL     1      -1.247  11.389  22.175  0.00  0.00    +0.000 A 
ATOM     21  C   UNL     1      -2.171  11.684  23.180  0.00  0.00    +0.000 A 
ATOM     22  C   UNL     1      -2.177  12.943  23.776  0.00  0.00    +0.000 A 
ATOM     23  C   UNL     1      -1.246  13.901  23.382  0.00  0.00    +0.000 A 
ATOM     24  C   UNL     1      -0.318  13.609  22.387  0.00  0.00    +0.000 A 
ENDBRANCH   7  19
BRANCH   1  25
ATOM     25  C   UNL     1      -1.742  11.945  17.640  0.00  0.00    +0.000 C 
BRANCH  25  30
ATOM     26  C   UNL     1      -6.589  12.688  17.166  0.00  0.00    +0.000 C 
ATOM     27  N   UNL     1      -5.534  11.803  17.640  0.00  0.00    +0.000 NA
ATOM     28  C   UNL     1      -4.724  12.424  18.705  0.00  0.00    +0.000 C 
ATOM     29  C   UNL     1      -3.585  11.486  19.192  0.00  0.00    +0.000 C 
ATOM     30  N   UNL     1      -2.708  10.927  18.135  0.00  0.00    +0.000 NA
ATOM     31  C   UNL     1      -3.579  10.398  17.054  0.00  0.00    +0.000 C 
ATOM     32  C   UNL     1      -4.655  11.381  16.540  0.00  0.00    +0.000 C 
ENDBRANCH  25  30
ENDBRANCH   1  25
TORSDOF 4
ENDMDL
MODEL 8
REMARK VINA RESULT:      -7.6      4.040      8.035
REMARK  Name = 
REMARK  5 active torsions:
REMARK  status: ('A' for Active; 'I' for Inactive)
REMARK    1  A    between atoms: C_1  and  N_2
REMARK    2  A    between atoms: N_5  and  C_6
REMARK    3  A    between atoms: C_6  and  C_7
REMARK    4  A    between atoms: C_11  and  C_12
REMARK    5  A    between atoms: C_24  and  C_25
REMARK                            x       y       z     vdW  Elec       q    Type
REMARK                         _______ _______ _______ _____ _____    ______ ____
ROOT
ATOM      1  C   UNL     1       0.713  13.522  20.955  0.00  0.00    +0.000 C 
ATOM      2  O   UNL     1       0.145  14.344  21.654  0.00  0.00    +0.000 OA
ATOM      3  N   UNL     1       0.611  12.143  21.131  0.00  0.00    +0.000 N 
ATOM      4  N   UNL     1       1.341  11.278  20.370  0.00  0.00    +0.000 NA
ATOM      5  C   UNL     1       0.869  10.093  20.568  0.00  0.00    +0.000 C 
ATOM      6  C   UNL     1      -0.284  10.023  21.539  0.00  0.00    +0.000 C 
ATOM      7  C   UNL     1      -0.405  11.483  21.960  0.00  0.00    +0.000 C 
ENDROOT
BRANCH   5   8
ATOM      8  C   UNL     1       1.405   8.877  19.917  0.00  0.00    +0.000 A 
ATOM      9  C   UNL     1       1.506   7.761  20.657  0.00  0.00    +0.000 A 
ATOM     10  C   UNL     1       1.970   6.525  20.042  0.00  0.00    +0.000 A 
ATOM     11  C   UNL     1       2.085   5.327  20.755  0.00  0.00    +0.000 A 
ATOM     12  C   UNL     1       2.512   4.165  20.103  0.00  0.00    +0.000 A 
ATOM     13  C   UNL     1       2.823   4.190  18.742  0.00  0.00    +0.000 A 
ATOM     14  C   UNL     1       2.715   5.381  18.027  0.00  0.00    +0.000 A 
ATOM     15  C   UNL     1       2.293   6.531  18.687  0.00  0.00    +0.000 A 
ATOM     16  O   UNL     1       2.204   7.706  17.927  0.00  0.00    +0.000 OA
ATOM     17  C   UNL     1       1.790   8.900  18.481  0.00  0.00    +0.000 A 
ATOM     18  O   UNL     1       1.737   9.920  17.805  0.00  0.00    +0.000 OA
ENDBRANCH   5   8
BRANCH   7  19
ATOM     19  C   UNL     1      -1.806  12.018  21.727  0.00  0.00    +0.000 A 
ATOM     20  C   UNL     1      -2.290  12.184  20.418  0.00  0.00    +0.000 A 
ATOM     21  C   UNL     1      -3.574  12.686  20.193  0.00  0.00    +0.000 A 
ATOM     22  C   UNL     1      -4.389  13.028  21.269  0.00  0.00    +0.000 A 
ATOM     23  C   UNL     1      -3.929  12.850  22.572  0.00  0.00    +0.000 A 
ATOM     24  C   UNL     1      -2.653  12.343  22.801  0.00  0.00    +0.000 A 
ENDBRANCH   7  19
BRANCH   1  25
ATOM     25  C   UNL     1       1.577  13.932  19.721  0.00  0.00    +0.000 C 
BRANCH  25  30
ATOM     26  C   UNL     1       6.051  15.054  17.989  0.00  0.00    +0.000 C 
ATOM     27  N   UNL     1       4.846  15.535  18.651  0.00  0.00    +0.000 NA
ATOM     28  C   UNL     1       4.628  14.878  19.955  0.00  0.00    +0.000 C 
ATOM     29  C   UNL     1       3.330  15.377  20.648  0.00  0.00    +0.000 C 
ATOM     30  N   UNL     1       2.095  15.324  19.828  0.00  0.00    +0.000 NA
ATOM     31  C   UNL     1       2.403  15.919  18.502  0.00  0.00    +0.000 C 
ATOM     32  C   UNL     1       3.660  15.349  17.805  0.00  0.00    +0.000 C 
ENDBRANCH  25  30
ENDBRANCH   1  25
TORSDOF 4
ENDMDL
MODEL 9
REMARK VINA RESULT:      -7.5      3.418      6.967
REMARK  Name = 
REMARK  5 active torsions:
REMARK  status: ('A' for Active; 'I' for Inactive)
REMARK    1  A    between atoms: C_1  and  N_2
REMARK    2  A    between atoms: N_5  and  C_6
REMARK    3  A    between atoms: C_6  and  C_7
REMARK    4  A    between atoms: C_11  and  C_12
REMARK    5  A    between atoms: C_24  and  C_25
REMARK                            x       y       z     vdW  Elec       q    Type
REMARK                         _______ _______ _______ _____ _____    ______ ____
ROOT
ATOM      1  C   UNL     1       0.362  12.631  18.729  0.00  0.00    +0.000 C 
ATOM      2  O   UNL     1      -0.586  13.376  18.911  0.00  0.00    +0.000 OA
ATOM      3  N   UNL     1       0.350  11.267  19.017  0.00  0.00    +0.000 N 
ATOM      4  N   UNL     1       1.472  10.506  18.874  0.00  0.00    +0.000 NA
ATOM      5  C   UNL     1       1.115   9.268  18.962  0.00  0.00    +0.000 C 
ATOM      6  C   UNL     1      -0.359   9.048  19.195  0.00  0.00    +0.000 C 
ATOM      7  C   UNL     1      -0.862  10.484  19.285  0.00  0.00    +0.000 C 
ENDROOT
BRANCH   5   8
ATOM      8  C   UNL     1       2.059   8.132  18.860  0.00  0.00    +0.000 A 
ATOM      9  C   UNL     1       2.823   8.048  17.759  0.00  0.00    +0.000 A 
ATOM     10  C   UNL     1       3.809   6.982  17.643  0.00  0.00    +0.000 A 
ATOM     11  C   UNL     1       4.643   6.847  16.528  0.00  0.00    +0.000 A 
ATOM     12  C   UNL     1       5.590   5.818  16.484  0.00  0.00    +0.000 A 
ATOM     13  C   UNL     1       5.710   4.922  17.548  0.00  0.00    +0.000 A 
ATOM     14  C   UNL     1       4.879   5.048  18.660  0.00  0.00    +0.000 A 
ATOM     15  C   UNL     1       3.940   6.073  18.690  0.00  0.00    +0.000 A 
ATOM     16  O   UNL     1       3.123   6.157  19.827  0.00  0.00    +0.000 OA
ATOM     17  C   UNL     1       2.163   7.139  19.961  0.00  0.00    +0.000 A 
ATOM     18  O   UNL     1       1.447   7.184  20.954  0.00  0.00    +0.000 OA
ENDBRANCH   5   8
BRANCH   7  19
ATOM     19  C   UNL     1      -1.976  10.749  18.287  0.00  0.00    +0.000 A 
ATOM     20  C   UNL     1      -1.871  10.276  16.969  0.00  0.00    +0.000 A 
ATOM     21  C   UNL     1      -2.885  10.524  16.042  0.00  0.00    +0.000 A 
ATOM     22  C   UNL     1      -4.015  11.247  16.418  0.00  0.00    +0.000 A 
ATOM     23  C   UNL     1      -4.141  11.705  17.728  0.00  0.00    +0.000 A 
ATOM     24  C   UNL     1      -3.136  11.453  18.657  0.00  0.00    +0.000 A 
ENDBRANCH   7  19
BRANCH   1  25
ATOM     25  C   UNL     1       1.693  13.121  18.077  0.00  0.00    +0.000 C 
BRANCH  25  30
ATOM     26  C   UNL     1       2.120  17.917  17.036  0.00  0.00    +0.000 C 
ATOM     27  N   UNL     1       2.461  16.835  17.949  0.00  0.00    +0.000 NA
ATOM     28  C   UNL     1       3.276  15.792  17.295  0.00  0.00    +0.000 C 
ATOM     29  C   UNL     1       3.619  14.629  18.265  0.00  0.00    +0.000 C 
ATOM     30  N   UNL     1       2.471  14.017  18.977  0.00  0.00    +0.000 NA
ATOM     31  C   UNL     1       1.643  15.117  19.536  0.00  0.00    +0.000 C 
ATOM     32  C   UNL     1       1.257  16.223  18.527  0.00  0.00    +0.000 C 
ENDBRANCH  25  30
ENDBRANCH   1  25
TORSDOF 4
ENDMDL
