MODEL 1
REMARK VINA RESULT:      -6.5      0.000      0.000
REMARK  Name = 
REMARK  8 active torsions:
REMARK  status: ('A' for Active; 'I' for Inactive)
REMARK    1  A    between atoms: C_1  and  C_2
REMARK    2  A    between atoms: C_8  and  N_9
REMARK    3  A    between atoms: N_9  and  C_10
REMARK    4  A    between atoms: C_10  and  C_11
REMARK    5  A    between atoms: C_11  and  O_12
REMARK    6  A    between atoms: C_11  and  C_13
REMARK    7  A    between atoms: C_13  and  N_14
REMARK    8  A    between atoms: N_17  and  C_18
REMARK                            x       y       z     vdW  Elec       q    Type
REMARK                         _______ _______ _______ _____ _____    ______ ____
ROOT
ATOM      1  C   UNL     1       2.148   5.296  19.852  0.00  0.00    +0.000 C 
ENDROOT
BRANCH   1   2
ATOM      2  N   UNL     1       2.484   6.640  20.297  0.00  0.00    +0.000 N 
ATOM      3  H   UNL     1       3.150   6.713  21.079  0.00  0.00    +0.000 HD
BRANCH   2  11
ATOM      4  C   UNL     1       0.445   8.545  21.780  0.00  0.00    +0.000 C 
ATOM      5  C   UNL     1       1.028   8.759  20.402  0.00  0.00    +0.000 A 
ATOM      6  C   UNL     1       0.605   9.935  19.755  0.00  0.00    +0.000 A 
ATOM      7  C   UNL     1       1.049  10.268  18.486  0.00  0.00    +0.000 A 
ATOM      8  C   UNL     1       1.927   9.427  17.820  0.00  0.00    +0.000 A 
ATOM      9  C   UNL     1       2.379   8.244  18.421  0.00  0.00    +0.000 A 
ATOM     10 CL   UNL     1       3.485   7.265  17.459  0.00  0.00    +0.000 Cl
ATOM     11  C   UNL     1       1.957   7.872  19.732  0.00  0.00    +0.000 A 
ENDBRANCH   2  11
ENDBRANCH   1   2
BRANCH   1  12
ATOM     12  C   UNL     1       3.267   4.233  19.983  0.00  0.00    +0.000 C 
BRANCH  12  13
ATOM     13  O   UNL     1       2.854   3.128  20.749  0.00  0.00    +0.000 OA
ATOM     14  H   UNL     1       3.606   2.487  20.795  0.00  0.00    +0.000 HD
ENDBRANCH  12  13
BRANCH  12  15
ATOM     15  C   UNL     1       3.887   3.810  18.628  0.00  0.00    +0.000 C 
BRANCH  15  16
ATOM     16  N   UNL     1       5.335   4.128  18.510  0.00  0.00    +0.000 NA
ATOM     17  C   UNL     1       5.760   5.277  19.345  0.00  0.00    +0.000 C 
ATOM     18  C   UNL     1       7.276   5.521  19.190  0.00  0.00    +0.000 C 
ATOM     19  N   UNL     1       7.685   5.705  17.782  0.00  0.00    +0.000 NA
ATOM     20  C   UNL     1       7.382   7.047  17.259  0.00  0.00    +0.000 C 
ATOM     21  C   UNL     1       7.161   4.621  16.930  0.00  0.00    +0.000 C 
ATOM     22  C   UNL     1       5.648   4.438  17.100  0.00  0.00    +0.000 C 
ENDBRANCH  15  16
ENDBRANCH  12  15
ENDBRANCH   1  12
TORSDOF 6
ENDMDL
MODEL 2
REMARK VINA RESULT:      -6.3      1.641      2.576
REMARK  Name = 
REMARK  8 active torsions:
REMARK  status: ('A' for Active; 'I' for Inactive)
REMARK    1  A    between atoms: C_1  and  C_2
REMARK    2  A    between atoms: C_8  and  N_9
REMARK    3  A    between atoms: N_9  and  C_10
REMARK    4  A    between atoms: C_10  and  C_11
REMARK    5  A    between atoms: C_11  and  O_12
REMARK    6  A    between atoms: C_11  and  C_13
REMARK    7  A    between atoms: C_13  and  N_14
REMARK    8  A    between atoms: N_17  and  C_18
REMARK                            x       y       z     vdW  Elec       q    Type
REMARK                         _______ _______ _______ _____ _____    ______ ____
ROOT
ATOM      1  C   UNL     1       1.797   5.547  20.428  0.00  0.00    +0.000 C 
ENDROOT
BRANCH   1   2
ATOM      2  N   UNL     1       2.410   6.867  20.435  0.00  0.00    +0.000 N 
ATOM      3  H   UNL     1       3.299   6.959  20.945  0.00  0.00    +0.000 HD
BRANCH   2  11
ATOM      4  C   UNL     1       3.034   7.706  17.453  0.00  0.00    +0.000 C 
ATOM      5  C   UNL     1       2.138   8.444  18.421  0.00  0.00    +0.000 A 
ATOM      6  C   UNL     1       1.536   9.606  17.902  0.00  0.00    +0.000 A 
ATOM      7  C   UNL     1       0.691  10.392  18.669  0.00  0.00    +0.000 A 
ATOM      8  C   UNL     1       0.429  10.042  19.984  0.00  0.00    +0.000 A 
ATOM      9  C   UNL     1       1.003   8.894  20.547  0.00  0.00    +0.000 A 
ATOM     10 CL   UNL     1       0.592   8.573  22.231  0.00  0.00    +0.000 Cl
ATOM     11  C   UNL     1       1.868   8.051  19.788  0.00  0.00    +0.000 A 
ENDBRANCH   2  11
ENDBRANCH   1   2
BRANCH   1  12
ATOM     12  C   UNL     1       2.685   4.379  20.926  0.00  0.00    +0.000 C 
BRANCH  12  13
ATOM     13  O   UNL     1       1.995   3.541  21.821  0.00  0.00    +0.000 OA
ATOM     14  H   UNL     1       2.513   2.704  21.920  0.00  0.00    +0.000 HD
ENDBRANCH  12  13
BRANCH  12  15
ATOM     15  C   UNL     1       3.367   3.585  19.784  0.00  0.00    +0.000 C 
BRANCH  15  16
ATOM     16  N   UNL     1       4.014   4.449  18.762  0.00  0.00    +0.000 NA
ATOM     17  C   UNL     1       4.239   3.767  17.465  0.00  0.00    +0.000 C 
ATOM     18  C   UNL     1       4.884   4.738  16.453  0.00  0.00    +0.000 C 
ATOM     19  N   UNL     1       6.132   5.347  16.958  0.00  0.00    +0.000 NA
ATOM     20  C   UNL     1       7.291   4.443  16.882  0.00  0.00    +0.000 C 
ATOM     21  C   UNL     1       5.936   5.923  18.302  0.00  0.00    +0.000 C 
ATOM     22  C   UNL     1       5.320   4.911  19.276  0.00  0.00    +0.000 C 
ENDBRANCH  15  16
ENDBRANCH  12  15
ENDBRANCH   1  12
TORSDOF 6
ENDMDL
MODEL 3
REMARK VINA RESULT:      -6.2      0.991      1.611
REMARK  Name = 
REMARK  8 active torsions:
REMARK  status: ('A' for Active; 'I' for Inactive)
REMARK    1  A    between atoms: C_1  and  C_2
REMARK    2  A    between atoms: C_8  and  N_9
REMARK    3  A    between atoms: N_9  and  C_10
REMARK    4  A    between atoms: C_10  and  C_11
REMARK    5  A    between atoms: C_11  and  O_12
REMARK    6  A    between atoms: C_11  and  C_13
REMARK    7  A    between atoms: C_13  and  N_14
REMARK    8  A    between atoms: N_17  and  C_18
REMARK                            x       y       z     vdW  Elec       q    Type
REMARK                         _______ _______ _______ _____ _____    ______ ____
ROOT
ATOM      1  C   UNL     1       1.809   5.557  20.041  0.00  0.00    +0.000 C 
ENDROOT
BRANCH   1   2
ATOM      2  N   UNL     1       2.355   6.880  20.306  0.00  0.00    +0.000 N 
ATOM      3  H   UNL     1       3.214   6.918  20.872  0.00  0.00    +0.000 HD
BRANCH   2  11
ATOM      4  C   UNL     1       0.503   8.748  22.055  0.00  0.00    +0.000 C 
ATOM      5  C   UNL     1       0.944   9.006  20.633  0.00  0.00    +0.000 A 
ATOM      6  C   UNL     1       0.470  10.208  20.074  0.00  0.00    +0.000 A 
ATOM      7  C   UNL     1       0.786  10.581  18.778  0.00  0.00    +0.000 A 
ATOM      8  C   UNL     1       1.580   9.757  17.997  0.00  0.00    +0.000 A 
ATOM      9  C   UNL     1       2.077   8.549  18.507  0.00  0.00    +0.000 A 
ATOM     10 CL   UNL     1       3.066   7.595  17.403  0.00  0.00    +0.000 Cl
ATOM     11  C   UNL     1       1.787   8.135  19.841  0.00  0.00    +0.000 A 
ENDBRANCH   2  11
ENDBRANCH   1   2
BRANCH   1  12
ATOM     12  C   UNL     1       2.453   4.383  20.819  0.00  0.00    +0.000 C 
BRANCH  12  13
ATOM     13  O   UNL     1       1.488   3.484  21.307  0.00  0.00    +0.000 OA
ATOM     14  H   UNL     1       0.763   3.417  20.637  0.00  0.00    +0.000 HD
ENDBRANCH  12  13
BRANCH  12  15
ATOM     15  C   UNL     1       3.584   3.666  20.040  0.00  0.00    +0.000 C 
BRANCH  15  16
ATOM     16  N   UNL     1       4.113   4.457  18.897  0.00  0.00    +0.000 NA
ATOM     17  C   UNL     1       4.289   3.663  17.657  0.00  0.00    +0.000 C 
ATOM     18  C   UNL     1       4.811   4.560  16.515  0.00  0.00    +0.000 C 
ATOM     19  N   UNL     1       6.054   5.275  16.870  0.00  0.00    +0.000 NA
ATOM     20  C   UNL     1       7.254   4.425  16.796  0.00  0.00    +0.000 C 
ATOM     21  C   UNL     1       5.917   5.969  18.164  0.00  0.00    +0.000 C 
ATOM     22  C   UNL     1       5.423   5.029  19.271  0.00  0.00    +0.000 C 
ENDBRANCH  15  16
ENDBRANCH  12  15
ENDBRANCH   1  12
TORSDOF 6
ENDMDL
MODEL 4
REMARK VINA RESULT:      -6.1      1.938      2.767
REMARK  Name = 
REMARK  8 active torsions:
REMARK  status: ('A' for Active; 'I' for Inactive)
REMARK    1  A    between atoms: C_1  and  C_2
REMARK    2  A    between atoms: C_8  and  N_9
REMARK    3  A    between atoms: N_9  and  C_10
REMARK    4  A    between atoms: C_10  and  C_11
REMARK    5  A    between atoms: C_11  and  O_12
REMARK    6  A    between atoms: C_11  and  C_13
REMARK    7  A    between atoms: C_13  and  N_14
REMARK    8  A    between atoms: N_17  and  C_18
REMARK                            x       y       z     vdW  Elec       q    Type
REMARK                         _______ _______ _______ _____ _____    ______ ____
ROOT
ATOM      1  C   UNL     1       1.361   6.422  20.844  0.00  0.00    +0.000 C 
ENDROOT
BRANCH   1   2
ATOM      2  N   UNL     1       1.870   7.785  20.813  0.00  0.00    +0.000 N 
ATOM      3  H   UNL     1       2.828   7.927  21.164  0.00  0.00    +0.000 HD
BRANCH   2  11
ATOM      4  C   UNL     1       1.924   8.810  17.825  0.00  0.00    +0.000 C 
ATOM      5  C   UNL     1       1.147   9.425  18.967  0.00  0.00    +0.000 A 
ATOM      6  C   UNL     1       0.381  10.554  18.623  0.00  0.00    +0.000 A 
ATOM      7  C   UNL     1      -0.382  11.229  19.562  0.00  0.00    +0.000 A 
ATOM      8  C   UNL     1      -0.394  10.799  20.878  0.00  0.00    +0.000 A 
ATOM      9  C   UNL     1       0.351   9.679  21.273  0.00  0.00    +0.000 A 
ATOM     10 CL   UNL     1       0.251   9.247  22.978  0.00  0.00    +0.000 Cl
ATOM     11  C   UNL     1       1.139   8.947  20.334  0.00  0.00    +0.000 A 
ENDBRANCH   2  11
ENDBRANCH   1   2
BRANCH   1  12
ATOM     12  C   UNL     1       2.363   5.309  20.449  0.00  0.00    +0.000 C 
BRANCH  12  13
ATOM     13  O   UNL     1       1.929   4.039  20.870  0.00  0.00    +0.000 OA
ATOM     14  H   UNL     1       2.500   3.359  20.434  0.00  0.00    +0.000 HD
ENDBRANCH  12  13
BRANCH  12  15
ATOM     15  C   UNL     1       2.756   5.329  18.950  0.00  0.00    +0.000 C 
BRANCH  15  16
ATOM     16  N   UNL     1       4.128   5.845  18.702  0.00  0.00    +0.000 NA
ATOM     17  C   UNL     1       4.424   6.078  17.267  0.00  0.00    +0.000 C 
ATOM     18  C   UNL     1       5.851   6.640  17.098  0.00  0.00    +0.000 C 
ATOM     19  N   UNL     1       6.881   5.784  17.722  0.00  0.00    +0.000 NA
ATOM     20  C   UNL     1       7.216   4.598  16.917  0.00  0.00    +0.000 C 
ATOM     21  C   UNL     1       6.527   5.455  19.116  0.00  0.00    +0.000 C 
ATOM     22  C   UNL     1       5.111   4.875  19.226  0.00  0.00    +0.000 C 
ENDBRANCH  15  16
ENDBRANCH  12  15
ENDBRANCH   1  12
TORSDOF 6
ENDMDL
MODEL 5
REMARK VINA RESULT:      -6.1      3.563      6.866
REMARK  Name = 
REMARK  8 active torsions:
REMARK  status: ('A' for Active; 'I' for Inactive)
REMARK    1  A    between atoms: C_1  and  C_2
REMARK    2  A    between atoms: C_8  and  N_9
REMARK    3  A    between atoms: N_9  and  C_10
REMARK    4  A    between atoms: C_10  and  C_11
REMARK    5  A    between atoms: C_11  and  O_12
REMARK    6  A    between atoms: C_11  and  C_13
REMARK    7  A    between atoms: C_13  and  N_14
REMARK    8  A    between atoms: N_17  and  C_18
REMARK                            x       y       z     vdW  Elec       q    Type
REMARK                         _______ _______ _______ _____ _____    ______ ____
ROOT
ATOM      1  C   UNL     1       7.350   5.240  16.962  0.00  0.00    +0.000 C 
ENDROOT
BRANCH   1   2
ATOM      2  N   UNL     1       7.376   5.685  15.577  0.00  0.00    +0.000 N 
ATOM      3  H   UNL     1       7.775   6.617  15.400  0.00  0.00    +0.000 HD
BRANCH   2  11
ATOM      4  C   UNL     1       4.804   3.851  15.640  0.00  0.00    +0.000 C 
ATOM      5  C   UNL     1       5.704   4.087  14.449  0.00  0.00    +0.000 A 
ATOM      6  C   UNL     1       5.321   3.415  13.273  0.00  0.00    +0.000 A 
ATOM      7  C   UNL     1       6.049   3.528  12.100  0.00  0.00    +0.000 A 
ATOM      8  C   UNL     1       7.190   4.314  12.070  0.00  0.00    +0.000 A 
ATOM      9  C   UNL     1       7.614   5.004  13.214  0.00  0.00    +0.000 A 
ATOM     10 CL   UNL     1       9.085   5.958  13.038  0.00  0.00    +0.000 Cl
ATOM     11  C   UNL     1       6.886   4.925  14.438  0.00  0.00    +0.000 A 
ENDBRANCH   2  11
ENDBRANCH   1   2
BRANCH   1  12
ATOM     12  C   UNL     1       6.577   6.143  17.955  0.00  0.00    +0.000 C 
BRANCH  12  13
ATOM     13  O   UNL     1       5.587   6.906  17.309  0.00  0.00    +0.000 OA
ATOM     14  H   UNL     1       4.705   6.629  17.664  0.00  0.00    +0.000 HD
ENDBRANCH  12  13
BRANCH  12  15
ATOM     15  C   UNL     1       6.024   5.384  19.187  0.00  0.00    +0.000 C 
BRANCH  15  16
ATOM     16  N   UNL     1       4.674   4.799  18.969  0.00  0.00    +0.000 NA
ATOM     17  C   UNL     1       3.600   5.488  19.725  0.00  0.00    +0.000 C 
ATOM     18  C   UNL     1       2.232   4.842  19.422  0.00  0.00    +0.000 C 
ATOM     19  N   UNL     1       2.215   3.388  19.678  0.00  0.00    +0.000 NA
ATOM     20  C   UNL     1       2.095   3.051  21.106  0.00  0.00    +0.000 C 
ATOM     21  C   UNL     1       3.353   2.718  19.021  0.00  0.00    +0.000 C 
ATOM     22  C   UNL     1       4.691   3.379  19.377  0.00  0.00    +0.000 C 
ENDBRANCH  15  16
ENDBRANCH  12  15
ENDBRANCH   1  12
TORSDOF 6
ENDMDL
MODEL 6
REMARK VINA RESULT:      -6.0      3.269      7.109
REMARK  Name = 
REMARK  8 active torsions:
REMARK  status: ('A' for Active; 'I' for Inactive)
REMARK    1  A    between atoms: C_1  and  C_2
REMARK    2  A    between atoms: C_8  and  N_9
REMARK    3  A    between atoms: N_9  and  C_10
REMARK    4  A    between atoms: C_10  and  C_11
REMARK    5  A    between atoms: C_11  and  O_12
REMARK    6  A    between atoms: C_11  and  C_13
REMARK    7  A    between atoms: C_13  and  N_14
REMARK    8  A    between atoms: N_17  and  C_18
REMARK                            x       y       z     vdW  Elec       q    Type
REMARK                         _______ _______ _______ _____ _____    ______ ____
ROOT
ATOM      1  C   UNL     1       7.268   5.268  16.870  0.00  0.00    +0.000 C 
ENDROOT
BRANCH   1   2
ATOM      2  N   UNL     1       7.190   5.800  15.518  0.00  0.00    +0.000 N 
ATOM      3  H   UNL     1       7.363   6.810  15.410  0.00  0.00    +0.000 HD
BRANCH   2  11
ATOM      4  C   UNL     1       8.878   5.919  12.850  0.00  0.00    +0.000 C 
ATOM      5  C   UNL     1       7.656   5.064  13.097  0.00  0.00    +0.000 A 
ATOM      6  C   UNL     1       7.272   4.251  12.014  0.00  0.00    +0.000 A 
ATOM      7  C   UNL     1       6.170   3.416  12.087  0.00  0.00    +0.000 A 
ATOM      8  C   UNL     1       5.411   3.374  13.246  0.00  0.00    +0.000 A 
ATOM      9  C   UNL     1       5.752   4.163  14.353  0.00  0.00    +0.000 A 
ATOM     10 CL   UNL     1       4.698   4.019  15.757  0.00  0.00    +0.000 Cl
ATOM     11  C   UNL     1       6.888   5.027  14.324  0.00  0.00    +0.000 A 
ENDBRANCH   2  11
ENDBRANCH   1   2
BRANCH   1  12
ATOM     12  C   UNL     1       6.559   6.094  17.972  0.00  0.00    +0.000 C 
BRANCH  12  13
ATOM     13  O   UNL     1       5.552   6.921  17.441  0.00  0.00    +0.000 OA
ATOM     14  H   UNL     1       4.744   6.368  17.297  0.00  0.00    +0.000 HD
ENDBRANCH  12  13
BRANCH  12  15
ATOM     15  C   UNL     1       6.053   5.241  19.161  0.00  0.00    +0.000 C 
BRANCH  15  16
ATOM     16  N   UNL     1       4.668   4.731  18.981  0.00  0.00    +0.000 NA
ATOM     17  C   UNL     1       3.649   5.505  19.731  0.00  0.00    +0.000 C 
ATOM     18  C   UNL     1       2.240   4.932  19.468  0.00  0.00    +0.000 C 
ATOM     19  N   UNL     1       2.142   3.490  19.770  0.00  0.00    +0.000 NA
ATOM     20  C   UNL     1       2.025   3.205  21.210  0.00  0.00    +0.000 C 
ATOM     21  C   UNL     1       3.228   2.734  19.118  0.00  0.00    +0.000 C 
ATOM     22  C   UNL     1       4.608   3.326  19.433  0.00  0.00    +0.000 C 
ENDBRANCH  15  16
ENDBRANCH  12  15
ENDBRANCH   1  12
TORSDOF 6
ENDMDL
MODEL 7
REMARK VINA RESULT:      -6.0      1.528      2.116
REMARK  Name = 
REMARK  8 active torsions:
REMARK  status: ('A' for Active; 'I' for Inactive)
REMARK    1  A    between atoms: C_1  and  C_2
REMARK    2  A    between atoms: C_8  and  N_9
REMARK    3  A    between atoms: N_9  and  C_10
REMARK    4  A    between atoms: C_10  and  C_11
REMARK    5  A    between atoms: C_11  and  O_12
REMARK    6  A    between atoms: C_11  and  C_13
REMARK    7  A    between atoms: C_13  and  N_14
REMARK    8  A    between atoms: N_17  and  C_18
REMARK                            x       y       z     vdW  Elec       q    Type
REMARK                         _______ _______ _______ _____ _____    ______ ____
ROOT
ATOM      1  C   UNL     1       1.498   6.399  20.467  0.00  0.00    +0.000 C 
ENDROOT
BRANCH   1   2
ATOM      2  N   UNL     1       1.883   7.768  20.775  0.00  0.00    +0.000 N 
ATOM      3  H   UNL     1       2.780   7.896  21.265  0.00  0.00    +0.000 HD
BRANCH   2  11
ATOM      4  C   UNL     1       0.077   9.331  22.844  0.00  0.00    +0.000 C 
ATOM      5  C   UNL     1       0.282   9.687  21.389  0.00  0.00    +0.000 A 
ATOM      6  C   UNL     1      -0.407  10.835  20.957  0.00  0.00    +0.000 A 
ATOM      7  C   UNL     1      -0.321  11.286  19.650  0.00  0.00    +0.000 A 
ATOM      8  C   UNL     1       0.451  10.594  18.731  0.00  0.00    +0.000 A 
ATOM      9  C   UNL     1       1.158   9.445  19.111  0.00  0.00    +0.000 A 
ATOM     10 CL   UNL     1       2.094   8.659  17.841  0.00  0.00    +0.000 Cl
ATOM     11  C   UNL     1       1.108   8.955  20.451  0.00  0.00    +0.000 A 
ENDBRANCH   2  11
ENDBRANCH   1   2
BRANCH   1  12
ATOM     12  C   UNL     1       2.647   5.441  20.065  0.00  0.00    +0.000 C 
BRANCH  12  13
ATOM     13  O   UNL     1       2.967   4.543  21.100  0.00  0.00    +0.000 OA
ATOM     14  H   UNL     1       3.924   4.659  21.323  0.00  0.00    +0.000 HD
ENDBRANCH  12  13
BRANCH  12  15
ATOM     15  C   UNL     1       2.412   4.720  18.714  0.00  0.00    +0.000 C 
BRANCH  15  16
ATOM     16  N   UNL     1       3.422   5.058  17.676  0.00  0.00    +0.000 NA
ATOM     17  C   UNL     1       4.095   3.872  17.094  0.00  0.00    +0.000 C 
ATOM     18  C   UNL     1       5.103   4.306  16.009  0.00  0.00    +0.000 C 
ATOM     19  N   UNL     1       6.090   5.288  16.502  0.00  0.00    +0.000 NA
ATOM     20  C   UNL     1       7.164   4.680  17.304  0.00  0.00    +0.000 C 
ATOM     21  C   UNL     1       5.424   6.413  17.187  0.00  0.00    +0.000 C 
ATOM     22  C   UNL     1       4.455   5.930  18.274  0.00  0.00    +0.000 C 
ENDBRANCH  15  16
ENDBRANCH  12  15
ENDBRANCH   1  12
TORSDOF 6
ENDMDL
MODEL 8
REMARK VINA RESULT:      -5.9      1.329      2.053
REMARK  Name = 
REMARK  8 active torsions:
REMARK  status: ('A' for Active; 'I' for Inactive)
REMARK    1  A    between atoms: C_1  and  C_2
REMARK    2  A    between atoms: C_8  and  N_9
REMARK    3  A    between atoms: N_9  and  C_10
REMARK    4  A    between atoms: C_10  and  C_11
REMARK    5  A    between atoms: C_11  and  O_12
REMARK    6  A    between atoms: C_11  and  C_13
REMARK    7  A    between atoms: C_13  and  N_14
REMARK    8  A    between atoms: N_17  and  C_18
REMARK                            x       y       z     vdW  Elec       q    Type
REMARK                         _______ _______ _______ _____ _____    ______ ____
ROOT
ATOM      1  C   UNL     1       2.492   5.461  19.442  0.00  0.00    +0.000 C 
ENDROOT
BRANCH   1   2
ATOM      2  N   UNL     1       2.266   6.688  20.191  0.00  0.00    +0.000 N 
ATOM      3  H   UNL     1       2.373   6.629  21.214  0.00  0.00    +0.000 HD
BRANCH   2  11
ATOM      4  C   UNL     1       3.351   7.769  17.428  0.00  0.00    +0.000 C 
ATOM      5  C   UNL     1       2.383   8.478  18.347  0.00  0.00    +0.000 A 
ATOM      6  C   UNL     1       1.939   9.732  17.887  0.00  0.00    +0.000 A 
ATOM      7  C   UNL     1       1.054  10.504  18.621  0.00  0.00    +0.000 A 
ATOM      8  C   UNL     1       0.590  10.047  19.844  0.00  0.00    +0.000 A 
ATOM      9  C   UNL     1       1.000   8.804  20.346  0.00  0.00    +0.000 A 
ATOM     10 CL   UNL     1       0.340   8.350  21.916  0.00  0.00    +0.000 Cl
ATOM     11  C   UNL     1       1.901   7.972  19.616  0.00  0.00    +0.000 A 
ENDBRANCH   2  11
ENDBRANCH   1   2
BRANCH   1  12
ATOM     12  C   UNL     1       3.436   4.423  20.098  0.00  0.00    +0.000 C 
BRANCH  12  13
ATOM     13  O   UNL     1       2.780   3.669  21.087  0.00  0.00    +0.000 OA
ATOM     14  H   UNL     1       2.811   4.179  21.935  0.00  0.00    +0.000 HD
ENDBRANCH  12  13
BRANCH  12  15
ATOM     15  C   UNL     1       4.185   3.530  19.078  0.00  0.00    +0.000 C 
BRANCH  15  16
ATOM     16  N   UNL     1       5.560   4.005  18.767  0.00  0.00    +0.000 NA
ATOM     17  C   UNL     1       5.937   5.244  19.490  0.00  0.00    +0.000 C 
ATOM     18  C   UNL     1       7.382   5.652  19.135  0.00  0.00    +0.000 C 
ATOM     19  N   UNL     1       7.597   5.799  17.681  0.00  0.00    +0.000 NA
ATOM     20  C   UNL     1       7.071   7.063  17.141  0.00  0.00    +0.000 C 
ATOM     21  C   UNL     1       7.112   4.613  16.950  0.00  0.00    +0.000 C 
ATOM     22  C   UNL     1       5.663   4.266  17.316  0.00  0.00    +0.000 C 
ENDBRANCH  15  16
ENDBRANCH  12  15
ENDBRANCH   1  12
TORSDOF 6
ENDMDL
MODEL 9
REMARK VINA RESULT:      -5.8      2.987      7.129
REMARK  Name = 
REMARK  8 active torsions:
REMARK  status: ('A' for Active; 'I' for Inactive)
REMARK    1  A    between atoms: C_1  and  C_2
REMARK    2  A    between atoms: C_8  and  N_9
REMARK    3  A    between atoms: N_9  and  C_10
REMARK    4  A    between atoms: C_10  and  C_11
REMARK    5  A    between atoms: C_11  and  O_12
REMARK    6  A    between atoms: C_11  and  C_13
REMARK    7  A    between atoms: C_13  and  N_14
REMARK    8  A    between atoms: N_17  and  C_18
REMARK                            x       y       z     vdW  Elec       q    Type
REMARK                         _______ _______ _______ _____ _____    ______ ____
ROOT
ATOM      1  C   UNL     1       1.631   6.541  20.665  0.00  0.00    +0.000 C 
ENDROOT
BRANCH   1   2
ATOM      2  N   UNL     1       2.710   5.617  20.351  0.00  0.00    +0.000 N 
ATOM      3  H   UNL     1       3.633   5.832  20.756  0.00  0.00    +0.000 HD
BRANCH   2  11
ATOM      4  C   UNL     1       1.356   2.921  21.287  0.00  0.00    +0.000 C 
ATOM      5  C   UNL     1       1.964   3.191  19.930  0.00  0.00    +0.000 A 
ATOM      6  C   UNL     1       1.892   2.117  19.023  0.00  0.00    +0.000 A 
ATOM      7  C   UNL     1       2.410   2.211  17.742  0.00  0.00    +0.000 A 
ATOM      8  C   UNL     1       3.024   3.383  17.331  0.00  0.00    +0.000 A 
ATOM      9  C   UNL     1       3.122   4.482  18.196  0.00  0.00    +0.000 A 
ATOM     10 CL   UNL     1       3.935   5.904  17.547  0.00  0.00    +0.000 Cl
ATOM     11  C   UNL     1       2.589   4.431  19.519  0.00  0.00    +0.000 A 
ENDBRANCH   2  11
ENDBRANCH   1   2
BRANCH   1  12
ATOM     12  C   UNL     1       1.841   8.012  20.227  0.00  0.00    +0.000 C 
BRANCH  12  13
ATOM     13  O   UNL     1       2.007   8.126  18.835  0.00  0.00    +0.000 OA
ATOM     14  H   UNL     1       2.970   8.025  18.630  0.00  0.00    +0.000 HD
ENDBRANCH  12  13
BRANCH  12  15
ATOM     15  C   UNL     1       0.765   8.984  20.773  0.00  0.00    +0.000 C 
BRANCH  15  16
ATOM     16  N   UNL     1       0.596  10.209  19.947  0.00  0.00    +0.000 NA
ATOM     17  C   UNL     1       0.933  11.461  20.667  0.00  0.00    +0.000 C 
ATOM     18  C   UNL     1       0.760  12.679  19.735  0.00  0.00    +0.000 C 
ATOM     19  N   UNL     1      -0.588  12.755  19.135  0.00  0.00    +0.000 NA
ATOM     20  C   UNL     1      -1.606  13.277  20.060  0.00  0.00    +0.000 C 
ATOM     21  C   UNL     1      -0.970  11.470  18.520  0.00  0.00    +0.000 C 
ATOM     22  C   UNL     1      -0.808  10.297  19.495  0.00  0.00    +0.000 C 
ENDBRANCH  15  16
ENDBRANCH  12  15
ENDBRANCH   1  12
TORSDOF 6
ENDMDL
