MODEL 1
REMARK VINA RESULT:      -7.1      0.000      0.000
REMARK  Name = 
REMARK  12 active torsions:
REMARK  status: ('A' for Active; 'I' for Inactive)
REMARK    1  A    between atoms: C_1  and  C_2
REMARK    2  A    between atoms: C_5  and  N_6
REMARK    3  A    between atoms: N_6  and  C_7
REMARK    4  A    between atoms: C_7  and  C_8
REMARK    5  A    between atoms: C_8  and  O_9
REMARK    6  A    between atoms: C_8  and  C_10
REMARK    7  A    between atoms: C_10  and  O_11
REMARK    8  A    between atoms: C_10  and  C_12
REMARK    9  A    between atoms: C_12  and  O_13
REMARK   10  A    between atoms: C_12  and  C_14
REMARK   11  A    between atoms: C_14  and  O_15
REMARK   12  A    between atoms: C_17  and  C_18
REMARK                            x       y       z     vdW  Elec       q    Type
REMARK                         _______ _______ _______ _____ _____    ______ ____
ROOT
ATOM      1  C   UNL     1       5.450   5.960  16.437  0.00  0.00    +0.000 C 
ENDROOT
BRANCH   1   2
ATOM      2  O   UNL     1       5.254   6.681  15.203  0.00  0.00    +0.000 OA
ATOM      3  H   UNL     1       6.143   6.926  14.884  0.00  0.00    +0.000 HD
ENDBRANCH   1   2
BRANCH   1   4
ATOM      4  C   UNL     1       4.690   6.695  17.560  0.00  0.00    +0.000 C 
BRANCH   4   5
ATOM      5  N   UNL     1       3.265   6.380  17.501  0.00  0.00    +0.000 N 
ATOM      6  H   UNL     1       2.708   7.211  17.296  0.00  0.00    +0.000 HD
BRANCH   5  11
ATOM      7  C   UNL     1       1.304   2.780  21.513  0.00  0.00    +0.000 C 
ATOM      8  C   UNL     1       1.760   3.744  20.456  0.00  0.00    +0.000 A 
ATOM      9  C   UNL     1       2.463   4.893  20.829  0.00  0.00    +0.000 A 
ATOM     10  C   UNL     1       2.940   5.790  19.868  0.00  0.00    +0.000 A 
ATOM     11  C   UNL     1       2.711   5.579  18.505  0.00  0.00    +0.000 A 
ATOM     12  C   UNL     1       2.023   4.416  18.137  0.00  0.00    +0.000 A 
ATOM     13  C   UNL     1       1.526   3.509  19.089  0.00  0.00    +0.000 A 
ATOM     14  C   UNL     1       0.784   2.288  18.619  0.00  0.00    +0.000 C 
ENDBRANCH   5  11
ENDBRANCH   4   5
ENDBRANCH   1   4
BRANCH   1  15
ATOM     15  C   UNL     1       6.970   5.855  16.715  0.00  0.00    +0.000 C 
BRANCH  15  16
ATOM     16  O   UNL     1       7.550   7.170  16.715  0.00  0.00    +0.000 OA
ATOM     17  H   UNL     1       8.261   7.210  17.380  0.00  0.00    +0.000 HD
ENDBRANCH  15  16
BRANCH  15  18
ATOM     18  C   UNL     1       7.308   5.085  18.007  0.00  0.00    +0.000 C 
BRANCH  18  19
ATOM     19  O   UNL     1       8.249   4.048  17.729  0.00  0.00    +0.000 OA
ATOM     20  H   UNL     1       8.088   3.724  16.822  0.00  0.00    +0.000 HD
ENDBRANCH  18  19
BRANCH  18  21
ATOM     21  C   UNL     1       7.835   6.002  19.123  0.00  0.00    +0.000 C 
BRANCH  21  22
ATOM     22  O   UNL     1       7.922   5.298  20.362  0.00  0.00    +0.000 OA
ATOM     23  H   UNL     1       7.434   4.461  20.277  0.00  0.00    +0.000 HD
ENDBRANCH  21  22
ENDBRANCH  18  21
ENDBRANCH  15  18
ENDBRANCH   1  15
TORSDOF 10
ENDMDL
MODEL 2
REMARK VINA RESULT:      -6.8      1.457      2.302
REMARK  Name = 
REMARK  12 active torsions:
REMARK  status: ('A' for Active; 'I' for Inactive)
REMARK    1  A    between atoms: C_1  and  C_2
REMARK    2  A    between atoms: C_5  and  N_6
REMARK    3  A    between atoms: N_6  and  C_7
REMARK    4  A    between atoms: C_7  and  C_8
REMARK    5  A    between atoms: C_8  and  O_9
REMARK    6  A    between atoms: C_8  and  C_10
REMARK    7  A    between atoms: C_10  and  O_11
REMARK    8  A    between atoms: C_10  and  C_12
REMARK    9  A    between atoms: C_12  and  O_13
REMARK   10  A    between atoms: C_12  and  C_14
REMARK   11  A    between atoms: C_14  and  O_15
REMARK   12  A    between atoms: C_17  and  C_18
REMARK                            x       y       z     vdW  Elec       q    Type
REMARK                         _______ _______ _______ _____ _____    ______ ____
ROOT
ATOM      1  C   UNL     1       6.850   5.162  15.896  0.00  0.00    +0.000 C 
ENDROOT
BRANCH   1   2
ATOM      2  O   UNL     1       7.581   5.522  14.705  0.00  0.00    +0.000 OA
ATOM      3  H   UNL     1       7.711   6.488  14.743  0.00  0.00    +0.000 HD
ENDBRANCH   1   2
BRANCH   1   4
ATOM      4  C   UNL     1       5.343   5.192  15.574  0.00  0.00    +0.000 C 
BRANCH   4   5
ATOM      5  N   UNL     1       4.710   3.938  15.980  0.00  0.00    +0.000 N 
ATOM      6  H   UNL     1       4.323   3.440  15.177  0.00  0.00    +0.000 HD
BRANCH   5  11
ATOM      7  C   UNL     1       0.911   4.171  20.270  0.00  0.00    +0.000 C 
ATOM      8  C   UNL     1       1.952   4.113  19.188  0.00  0.00    +0.000 A 
ATOM      9  C   UNL     1       2.223   2.896  18.560  0.00  0.00    +0.000 A 
ATOM     10  C   UNL     1       3.154   2.814  17.519  0.00  0.00    +0.000 A 
ATOM     11  C   UNL     1       3.859   3.942  17.089  0.00  0.00    +0.000 A 
ATOM     12  C   UNL     1       3.567   5.163  17.710  0.00  0.00    +0.000 A 
ATOM     13  C   UNL     1       2.643   5.262  18.765  0.00  0.00    +0.000 A 
ATOM     14  C   UNL     1       2.392   6.606  19.394  0.00  0.00    +0.000 C 
ENDBRANCH   5  11
ENDBRANCH   4   5
ENDBRANCH   1   4
BRANCH   1  15
ATOM     15  C   UNL     1       7.238   6.143  17.031  0.00  0.00    +0.000 C 
BRANCH  15  16
ATOM     16  O   UNL     1       6.487   7.361  16.890  0.00  0.00    +0.000 OA
ATOM     17  H   UNL     1       6.991   8.098  17.278  0.00  0.00    +0.000 HD
ENDBRANCH  15  16
BRANCH  15  18
ATOM     18  C   UNL     1       7.086   5.543  18.442  0.00  0.00    +0.000 C 
BRANCH  18  19
ATOM     19  O   UNL     1       7.034   4.118  18.368  0.00  0.00    +0.000 OA
ATOM     20  H   UNL     1       7.648   3.826  17.666  0.00  0.00    +0.000 HD
ENDBRANCH  18  19
BRANCH  18  21
ATOM     21  C   UNL     1       8.204   5.988  19.399  0.00  0.00    +0.000 C 
BRANCH  21  22
ATOM     22  O   UNL     1       8.067   5.357  20.672  0.00  0.00    +0.000 OA
ATOM     23  H   UNL     1       7.950   4.401  20.533  0.00  0.00    +0.000 HD
ENDBRANCH  21  22
ENDBRANCH  18  21
ENDBRANCH  15  18
ENDBRANCH   1  15
TORSDOF 10
ENDMDL
MODEL 3
REMARK VINA RESULT:      -6.8      1.545      1.903
REMARK  Name = 
REMARK  12 active torsions:
REMARK  status: ('A' for Active; 'I' for Inactive)
REMARK    1  A    between atoms: C_1  and  C_2
REMARK    2  A    between atoms: C_5  and  N_6
REMARK    3  A    between atoms: N_6  and  C_7
REMARK    4  A    between atoms: C_7  and  C_8
REMARK    5  A    between atoms: C_8  and  O_9
REMARK    6  A    between atoms: C_8  and  C_10
REMARK    7  A    between atoms: C_10  and  O_11
REMARK    8  A    between atoms: C_10  and  C_12
REMARK    9  A    between atoms: C_12  and  O_13
REMARK   10  A    between atoms: C_12  and  C_14
REMARK   11  A    between atoms: C_14  and  O_15
REMARK   12  A    between atoms: C_17  and  C_18
REMARK                            x       y       z     vdW  Elec       q    Type
REMARK                         _______ _______ _______ _____ _____    ______ ____
ROOT
ATOM      1  C   UNL     1       6.889   5.116  15.786  0.00  0.00    +0.000 C 
ENDROOT
BRANCH   1   2
ATOM      2  O   UNL     1       7.645   5.518  14.624  0.00  0.00    +0.000 OA
ATOM      3  H   UNL     1       8.356   6.102  14.947  0.00  0.00    +0.000 HD
ENDBRANCH   1   2
BRANCH   1   4
ATOM      4  C   UNL     1       5.389   5.152  15.431  0.00  0.00    +0.000 C 
BRANCH   4   5
ATOM      5  N   UNL     1       4.704   3.994  16.000  0.00  0.00    +0.000 N 
ATOM      6  H   UNL     1       4.376   3.359  15.270  0.00  0.00    +0.000 HD
BRANCH   5  11
ATOM      7  C   UNL     1       1.147   4.649  20.451  0.00  0.00    +0.000 C 
ATOM      8  C   UNL     1       2.029   4.471  19.249  0.00  0.00    +0.000 A 
ATOM      9  C   UNL     1       2.663   5.583  18.690  0.00  0.00    +0.000 A 
ATOM     10  C   UNL     1       3.525   5.447  17.597  0.00  0.00    +0.000 A 
ATOM     11  C   UNL     1       3.764   4.200  17.015  0.00  0.00    +0.000 A 
ATOM     12  C   UNL     1       3.141   3.086  17.593  0.00  0.00    +0.000 A 
ATOM     13  C   UNL     1       2.262   3.205  18.684  0.00  0.00    +0.000 A 
ATOM     14  C   UNL     1       1.618   1.965  19.242  0.00  0.00    +0.000 C 
ENDBRANCH   5  11
ENDBRANCH   4   5
ENDBRANCH   1   4
BRANCH   1  15
ATOM     15  C   UNL     1       7.247   6.060  16.961  0.00  0.00    +0.000 C 
BRANCH  15  16
ATOM     16  O   UNL     1       6.550   7.308  16.803  0.00  0.00    +0.000 OA
ATOM     17  H   UNL     1       6.660   7.626  15.890  0.00  0.00    +0.000 HD
ENDBRANCH  15  16
BRANCH  15  18
ATOM     18  C   UNL     1       6.994   5.440  18.349  0.00  0.00    +0.000 C 
BRANCH  18  19
ATOM     19  O   UNL     1       7.006   4.015  18.260  0.00  0.00    +0.000 OA
ATOM     20  H   UNL     1       6.397   3.661  18.936  0.00  0.00    +0.000 HD
ENDBRANCH  18  19
BRANCH  18  21
ATOM     21  C   UNL     1       8.003   5.919  19.405  0.00  0.00    +0.000 C 
BRANCH  21  22
ATOM     22  O   UNL     1       8.541   7.193  19.054  0.00  0.00    +0.000 OA
ATOM     23  H   UNL     1       7.990   7.885  19.459  0.00  0.00    +0.000 HD
ENDBRANCH  21  22
ENDBRANCH  18  21
ENDBRANCH  15  18
ENDBRANCH   1  15
TORSDOF 10
ENDMDL
MODEL 4
REMARK VINA RESULT:      -6.7      2.446      3.576
REMARK  Name = 
REMARK  12 active torsions:
REMARK  status: ('A' for Active; 'I' for Inactive)
REMARK    1  A    between atoms: C_1  and  C_2
REMARK    2  A    between atoms: C_5  and  N_6
REMARK    3  A    between atoms: N_6  and  C_7
REMARK    4  A    between atoms: C_7  and  C_8
REMARK    5  A    between atoms: C_8  and  O_9
REMARK    6  A    between atoms: C_8  and  C_10
REMARK    7  A    between atoms: C_10  and  O_11
REMARK    8  A    between atoms: C_10  and  C_12
REMARK    9  A    between atoms: C_12  and  O_13
REMARK   10  A    between atoms: C_12  and  C_14
REMARK   11  A    between atoms: C_14  and  O_15
REMARK   12  A    between atoms: C_17  and  C_18
REMARK                            x       y       z     vdW  Elec       q    Type
REMARK                         _______ _______ _______ _____ _____    ______ ____
ROOT
ATOM      1  C   UNL     1       6.695   5.502  16.711  0.00  0.00    +0.000 C 
ENDROOT
BRANCH   1   2
ATOM      2  O   UNL     1       7.451   6.673  16.337  0.00  0.00    +0.000 OA
ATOM      3  H   UNL     1       6.826   7.272  15.888  0.00  0.00    +0.000 HD
ENDBRANCH   1   2
BRANCH   1   4
ATOM      4  C   UNL     1       7.139   5.062  18.121  0.00  0.00    +0.000 C 
BRANCH   4   5
ATOM      5  N   UNL     1       6.340   3.925  18.574  0.00  0.00    +0.000 N 
ATOM      6  H   UNL     1       6.472   3.113  17.969  0.00  0.00    +0.000 HD
BRANCH   5  11
ATOM      7  C   UNL     1       0.937   4.541  20.395  0.00  0.00    +0.000 C 
ATOM      8  C   UNL     1       2.331   4.384  19.860  0.00  0.00    +0.000 A 
ATOM      9  C   UNL     1       3.221   5.459  19.933  0.00  0.00    +0.000 A 
ATOM     10  C   UNL     1       4.540   5.333  19.485  0.00  0.00    +0.000 A 
ATOM     11  C   UNL     1       5.005   4.139  18.928  0.00  0.00    +0.000 A 
ATOM     12  C   UNL     1       4.113   3.060  18.876  0.00  0.00    +0.000 A 
ATOM     13  C   UNL     1       2.781   3.170  19.311  0.00  0.00    +0.000 A 
ATOM     14  C   UNL     1       1.876   1.972  19.210  0.00  0.00    +0.000 C 
ENDBRANCH   5  11
ENDBRANCH   4   5
ENDBRANCH   1   4
BRANCH   1  15
ATOM     15  C   UNL     1       6.922   4.402  15.644  0.00  0.00    +0.000 C 
BRANCH  15  16
ATOM     16  O   UNL     1       6.013   3.313  15.875  0.00  0.00    +0.000 OA
ATOM     17  H   UNL     1       5.289   3.354  15.226  0.00  0.00    +0.000 HD
ENDBRANCH  15  16
BRANCH  15  18
ATOM     18  C   UNL     1       6.831   4.921  14.196  0.00  0.00    +0.000 C 
BRANCH  18  19
ATOM     19  O   UNL     1       8.072   5.509  13.805  0.00  0.00    +0.000 OA
ATOM     20  H   UNL     1       8.759   4.816  13.828  0.00  0.00    +0.000 HD
ENDBRANCH  18  19
BRANCH  18  21
ATOM     21  C   UNL     1       6.419   3.826  13.199  0.00  0.00    +0.000 C 
BRANCH  21  22
ATOM     22  O   UNL     1       7.054   4.024  11.935  0.00  0.00    +0.000 OA
ATOM     23  H   UNL     1       6.855   4.925  11.626  0.00  0.00    +0.000 HD
ENDBRANCH  21  22
ENDBRANCH  18  21
ENDBRANCH  15  18
ENDBRANCH   1  15
TORSDOF 10
ENDMDL
MODEL 5
REMARK VINA RESULT:      -6.7      1.086      1.425
REMARK  Name = 
REMARK  12 active torsions:
REMARK  status: ('A' for Active; 'I' for Inactive)
REMARK    1  A    between atoms: C_1  and  C_2
REMARK    2  A    between atoms: C_5  and  N_6
REMARK    3  A    between atoms: N_6  and  C_7
REMARK    4  A    between atoms: C_7  and  C_8
REMARK    5  A    between atoms: C_8  and  O_9
REMARK    6  A    between atoms: C_8  and  C_10
REMARK    7  A    between atoms: C_10  and  O_11
REMARK    8  A    between atoms: C_10  and  C_12
REMARK    9  A    between atoms: C_12  and  O_13
REMARK   10  A    between atoms: C_12  and  C_14
REMARK   11  A    between atoms: C_14  and  O_15
REMARK   12  A    between atoms: C_17  and  C_18
REMARK                            x       y       z     vdW  Elec       q    Type
REMARK                         _______ _______ _______ _____ _____    ______ ____
ROOT
ATOM      1  C   UNL     1       4.964   6.268  16.446  0.00  0.00    +0.000 C 
ENDROOT
BRANCH   1   2
ATOM      2  O   UNL     1       6.129   7.065  16.145  0.00  0.00    +0.000 OA
ATOM      3  H   UNL     1       6.835   6.755  16.742  0.00  0.00    +0.000 HD
ENDBRANCH   1   2
BRANCH   1   4
ATOM      4  C   UNL     1       4.162   6.974  17.558  0.00  0.00    +0.000 C 
BRANCH   4   5
ATOM      5  N   UNL     1       2.774   6.516  17.553  0.00  0.00    +0.000 N 
ATOM      6  H   UNL     1       2.128   7.288  17.378  0.00  0.00    +0.000 HD
BRANCH   5  11
ATOM      7  C   UNL     1       1.351   2.711  21.601  0.00  0.00    +0.000 C 
ATOM      8  C   UNL     1       1.664   3.723  20.537  0.00  0.00    +0.000 A 
ATOM      9  C   UNL     1       2.262   4.934  20.894  0.00  0.00    +0.000 A 
ATOM     10  C   UNL     1       2.607   5.881  19.924  0.00  0.00    +0.000 A 
ATOM     11  C   UNL     1       2.345   5.658  18.569  0.00  0.00    +0.000 A 
ATOM     12  C   UNL     1       1.763   4.433  18.217  0.00  0.00    +0.000 A 
ATOM     13  C   UNL     1       1.399   3.475  19.178  0.00  0.00    +0.000 A 
ATOM     14  C   UNL     1       0.764   2.188  18.725  0.00  0.00    +0.000 C 
ENDBRANCH   5  11
ENDBRANCH   4   5
ENDBRANCH   1   4
BRANCH   1  15
ATOM     15  C   UNL     1       5.427   4.847  16.856  0.00  0.00    +0.000 C 
BRANCH  15  16
ATOM     16  O   UNL     1       6.329   4.331  15.862  0.00  0.00    +0.000 OA
ATOM     17  H   UNL     1       6.896   3.649  16.264  0.00  0.00    +0.000 HD
ENDBRANCH  15  16
BRANCH  15  18
ATOM     18  C   UNL     1       6.040   4.783  18.268  0.00  0.00    +0.000 C 
BRANCH  18  19
ATOM     19  O   UNL     1       5.795   3.504  18.853  0.00  0.00    +0.000 OA
ATOM     20  H   UNL     1       5.568   3.637  19.794  0.00  0.00    +0.000 HD
ENDBRANCH  18  19
BRANCH  18  21
ATOM     21  C   UNL     1       7.546   5.095  18.276  0.00  0.00    +0.000 C 
BRANCH  21  22
ATOM     22  O   UNL     1       8.294   4.005  17.738  0.00  0.00    +0.000 OA
ATOM     23  H   UNL     1       7.675   3.300  17.483  0.00  0.00    +0.000 HD
ENDBRANCH  21  22
ENDBRANCH  18  21
ENDBRANCH  15  18
ENDBRANCH   1  15
TORSDOF 10
ENDMDL
MODEL 6
REMARK VINA RESULT:      -6.7      0.997      1.061
REMARK  Name = 
REMARK  12 active torsions:
REMARK  status: ('A' for Active; 'I' for Inactive)
REMARK    1  A    between atoms: C_1  and  C_2
REMARK    2  A    between atoms: C_5  and  N_6
REMARK    3  A    between atoms: N_6  and  C_7
REMARK    4  A    between atoms: C_7  and  C_8
REMARK    5  A    between atoms: C_8  and  O_9
REMARK    6  A    between atoms: C_8  and  C_10
REMARK    7  A    between atoms: C_10  and  O_11
REMARK    8  A    between atoms: C_10  and  C_12
REMARK    9  A    between atoms: C_12  and  O_13
REMARK   10  A    between atoms: C_12  and  C_14
REMARK   11  A    between atoms: C_14  and  O_15
REMARK   12  A    between atoms: C_17  and  C_18
REMARK                            x       y       z     vdW  Elec       q    Type
REMARK                         _______ _______ _______ _____ _____    ______ ____
ROOT
ATOM      1  C   UNL     1       5.006   5.908  16.532  0.00  0.00    +0.000 C 
ENDROOT
BRANCH   1   2
ATOM      2  O   UNL     1       5.436   6.620  15.353  0.00  0.00    +0.000 OA
ATOM      3  H   UNL     1       6.391   6.786  15.465  0.00  0.00    +0.000 HD
ENDBRANCH   1   2
BRANCH   1   4
ATOM      4  C   UNL     1       4.357   6.915  17.503  0.00  0.00    +0.000 C 
BRANCH   4   5
ATOM      5  N   UNL     1       2.920   6.672  17.604  0.00  0.00    +0.000 N 
ATOM      6  H   UNL     1       2.391   7.545  17.566  0.00  0.00    +0.000 HD
BRANCH   5  11
ATOM      7  C   UNL     1       1.354   2.766  21.501  0.00  0.00    +0.000 C 
ATOM      8  C   UNL     1       1.705   3.804  20.474  0.00  0.00    +0.000 A 
ATOM      9  C   UNL     1       2.279   5.010  20.884  0.00  0.00    +0.000 A 
ATOM     10  C   UNL     1       2.658   5.981  19.951  0.00  0.00    +0.000 A 
ATOM     11  C   UNL     1       2.454   5.787  18.582  0.00  0.00    +0.000 A 
ATOM     12  C   UNL     1       1.896   4.568  18.177  0.00  0.00    +0.000 A 
ATOM     13  C   UNL     1       1.499   3.585  19.101  0.00  0.00    +0.000 A 
ATOM     14  C   UNL     1       0.893   2.306  18.592  0.00  0.00    +0.000 C 
ENDBRANCH   5  11
ENDBRANCH   4   5
ENDBRANCH   1   4
BRANCH   1  15
ATOM     15  C   UNL     1       6.230   5.187  17.151  0.00  0.00    +0.000 C 
BRANCH  15  16
ATOM     16  O   UNL     1       7.421   5.574  16.446  0.00  0.00    +0.000 OA
ATOM     17  H   UNL     1       8.181   5.545  17.055  0.00  0.00    +0.000 HD
ENDBRANCH  15  16
BRANCH  15  18
ATOM     18  C   UNL     1       6.371   5.407  18.670  0.00  0.00    +0.000 C 
BRANCH  18  19
ATOM     19  O   UNL     1       5.784   4.317  19.381  0.00  0.00    +0.000 OA
ATOM     20  H   UNL     1       4.879   4.575  19.643  0.00  0.00    +0.000 HD
ENDBRANCH  18  19
BRANCH  18  21
ATOM     21  C   UNL     1       7.831   5.607  19.106  0.00  0.00    +0.000 C 
BRANCH  21  22
ATOM     22  O   UNL     1       8.241   6.960  18.908  0.00  0.00    +0.000 OA
ATOM     23  H   UNL     1       7.781   7.312  18.126  0.00  0.00    +0.000 HD
ENDBRANCH  21  22
ENDBRANCH  18  21
ENDBRANCH  15  18
ENDBRANCH   1  15
TORSDOF 10
ENDMDL
MODEL 7
REMARK VINA RESULT:      -6.7      3.263      6.175
REMARK  Name = 
REMARK  12 active torsions:
REMARK  status: ('A' for Active; 'I' for Inactive)
REMARK    1  A    between atoms: C_1  and  C_2
REMARK    2  A    between atoms: C_5  and  N_6
REMARK    3  A    between atoms: N_6  and  C_7
REMARK    4  A    between atoms: C_7  and  C_8
REMARK    5  A    between atoms: C_8  and  O_9
REMARK    6  A    between atoms: C_8  and  C_10
REMARK    7  A    between atoms: C_10  and  O_11
REMARK    8  A    between atoms: C_10  and  C_12
REMARK    9  A    between atoms: C_12  and  O_13
REMARK   10  A    between atoms: C_12  and  C_14
REMARK   11  A    between atoms: C_14  and  O_15
REMARK   12  A    between atoms: C_17  and  C_18
REMARK                            x       y       z     vdW  Elec       q    Type
REMARK                         _______ _______ _______ _____ _____    ______ ____
ROOT
ATOM      1  C   UNL     1       2.402   3.788  18.009  0.00  0.00    +0.000 C 
ENDROOT
BRANCH   1   2
ATOM      2  O   UNL     1       1.080   4.096  17.519  0.00  0.00    +0.000 OA
ATOM      3  H   UNL     1       1.073   3.852  16.575  0.00  0.00    +0.000 HD
ENDBRANCH   1   2
BRANCH   1   4
ATOM      4  C   UNL     1       3.245   3.247  16.836  0.00  0.00    +0.000 C 
BRANCH   4   5
ATOM      5  N   UNL     1       4.663   3.246  17.187  0.00  0.00    +0.000 N 
ATOM      6  H   UNL     1       4.856   2.598  17.953  0.00  0.00    +0.000 HD
BRANCH   5  11
ATOM      7  C   UNL     1       7.754   8.062  17.574  0.00  0.00    +0.000 C 
ATOM      8  C   UNL     1       6.911   6.820  17.522  0.00  0.00    +0.000 A 
ATOM      9  C   UNL     1       5.935   6.693  16.530  0.00  0.00    +0.000 A 
ATOM     10  C   UNL     1       5.162   5.531  16.425  0.00  0.00    +0.000 A 
ATOM     11  C   UNL     1       5.325   4.470  17.320  0.00  0.00    +0.000 A 
ATOM     12  C   UNL     1       6.319   4.597  18.299  0.00  0.00    +0.000 A 
ATOM     13  C   UNL     1       7.097   5.760  18.427  0.00  0.00    +0.000 A 
ATOM     14  C   UNL     1       8.137   5.829  19.513  0.00  0.00    +0.000 C 
ENDBRANCH   5  11
ENDBRANCH   4   5
ENDBRANCH   1   4
BRANCH   1  15
ATOM     15  C   UNL     1       2.276   2.770  19.171  0.00  0.00    +0.000 C 
BRANCH  15  16
ATOM     16  O   UNL     1       3.562   2.576  19.781  0.00  0.00    +0.000 OA
ATOM     17  H   UNL     1       3.579   1.714  20.234  0.00  0.00    +0.000 HD
ENDBRANCH  15  16
BRANCH  15  18
ATOM     18  C   UNL     1       1.205   3.154  20.211  0.00  0.00    +0.000 C 
BRANCH  18  19
ATOM     19  O   UNL     1      -0.092   2.791  19.739  0.00  0.00    +0.000 OA
ATOM     20  H   UNL     1      -0.223   3.198  18.860  0.00  0.00    +0.000 HD
ENDBRANCH  18  19
BRANCH  18  21
ATOM     21  C   UNL     1       1.468   2.528  21.590  0.00  0.00    +0.000 C 
BRANCH  21  22
ATOM     22  O   UNL     1       2.428   3.290  22.321  0.00  0.00    +0.000 OA
ATOM     23  H   UNL     1       2.319   4.229  22.091  0.00  0.00    +0.000 HD
ENDBRANCH  21  22
ENDBRANCH  18  21
ENDBRANCH  15  18
ENDBRANCH   1  15
TORSDOF 10
ENDMDL
MODEL 8
REMARK VINA RESULT:      -6.7      1.933      3.386
REMARK  Name = 
REMARK  12 active torsions:
REMARK  status: ('A' for Active; 'I' for Inactive)
REMARK    1  A    between atoms: C_1  and  C_2
REMARK    2  A    between atoms: C_5  and  N_6
REMARK    3  A    between atoms: N_6  and  C_7
REMARK    4  A    between atoms: C_7  and  C_8
REMARK    5  A    between atoms: C_8  and  O_9
REMARK    6  A    between atoms: C_8  and  C_10
REMARK    7  A    between atoms: C_10  and  O_11
REMARK    8  A    between atoms: C_10  and  C_12
REMARK    9  A    between atoms: C_12  and  O_13
REMARK   10  A    between atoms: C_12  and  C_14
REMARK   11  A    between atoms: C_14  and  O_15
REMARK   12  A    between atoms: C_17  and  C_18
REMARK                            x       y       z     vdW  Elec       q    Type
REMARK                         _______ _______ _______ _____ _____    ______ ____
ROOT
ATOM      1  C   UNL     1       7.265   5.369  18.231  0.00  0.00    +0.000 C 
ENDROOT
BRANCH   1   2
ATOM      2  O   UNL     1       8.072   4.173  18.244  0.00  0.00    +0.000 OA
ATOM      3  H   UNL     1       8.918   4.417  18.662  0.00  0.00    +0.000 HD
ENDBRANCH   1   2
BRANCH   1   4
ATOM      4  C   UNL     1       6.002   5.118  19.079  0.00  0.00    +0.000 C 
BRANCH   4   5
ATOM      5  N   UNL     1       5.719   3.686  19.160  0.00  0.00    +0.000 N 
ATOM      6  H   UNL     1       6.364   3.147  18.581  0.00  0.00    +0.000 HD
BRANCH   5  11
ATOM      7  C   UNL     1       0.152   2.342  18.859  0.00  0.00    +0.000 C 
ATOM      8  C   UNL     1       1.622   2.635  18.955  0.00  0.00    +0.000 A 
ATOM      9  C   UNL     1       2.377   2.754  17.786  0.00  0.00    +0.000 A 
ATOM     10  C   UNL     1       3.739   3.070  17.837  0.00  0.00    +0.000 A 
ATOM     11  C   UNL     1       4.393   3.256  19.058  0.00  0.00    +0.000 A 
ATOM     12  C   UNL     1       3.626   3.155  20.225  0.00  0.00    +0.000 A 
ATOM     13  C   UNL     1       2.259   2.827  20.194  0.00  0.00    +0.000 A 
ATOM     14  C   UNL     1       1.502   2.721  21.490  0.00  0.00    +0.000 C 
ENDBRANCH   5  11
ENDBRANCH   4   5
ENDBRANCH   1   4
BRANCH   1  15
ATOM     15  C   UNL     1       6.933   5.727  16.760  0.00  0.00    +0.000 C 
BRANCH  15  16
ATOM     16  O   UNL     1       7.665   6.903  16.375  0.00  0.00    +0.000 OA
ATOM     17  H   UNL     1       7.792   6.902  15.410  0.00  0.00    +0.000 HD
ENDBRANCH  15  16
BRANCH  15  18
ATOM     18  C   UNL     1       7.167   4.564  15.776  0.00  0.00    +0.000 C 
BRANCH  18  19
ATOM     19  O   UNL     1       6.318   3.464  16.103  0.00  0.00    +0.000 OA
ATOM     20  H   UNL     1       6.866   2.767  16.514  0.00  0.00    +0.000 HD
ENDBRANCH  18  19
BRANCH  18  21
ATOM     21  C   UNL     1       6.965   4.979  14.309  0.00  0.00    +0.000 C 
BRANCH  21  22
ATOM     22  O   UNL     1       6.076   4.081  13.644  0.00  0.00    +0.000 OA
ATOM     23  H   UNL     1       6.235   4.141  12.686  0.00  0.00    +0.000 HD
ENDBRANCH  21  22
ENDBRANCH  18  21
ENDBRANCH  15  18
ENDBRANCH   1  15
TORSDOF 10
ENDMDL
MODEL 9
REMARK VINA RESULT:      -6.7      3.053      5.838
REMARK  Name = 
REMARK  12 active torsions:
REMARK  status: ('A' for Active; 'I' for Inactive)
REMARK    1  A    between atoms: C_1  and  C_2
REMARK    2  A    between atoms: C_5  and  N_6
REMARK    3  A    between atoms: N_6  and  C_7
REMARK    4  A    between atoms: C_7  and  C_8
REMARK    5  A    between atoms: C_8  and  O_9
REMARK    6  A    between atoms: C_8  and  C_10
REMARK    7  A    between atoms: C_10  and  O_11
REMARK    8  A    between atoms: C_10  and  C_12
REMARK    9  A    between atoms: C_12  and  O_13
REMARK   10  A    between atoms: C_12  and  C_14
REMARK   11  A    between atoms: C_14  and  O_15
REMARK   12  A    between atoms: C_17  and  C_18
REMARK                            x       y       z     vdW  Elec       q    Type
REMARK                         _______ _______ _______ _____ _____    ______ ____
ROOT
ATOM      1  C   UNL     1       2.356   3.863  17.966  0.00  0.00    +0.000 C 
ENDROOT
BRANCH   1   2
ATOM      2  O   UNL     1       1.064   4.203  17.420  0.00  0.00    +0.000 OA
ATOM      3  H   UNL     1       1.219   4.477  16.497  0.00  0.00    +0.000 HD
ENDBRANCH   1   2
BRANCH   1   4
ATOM      4  C   UNL     1       3.204   3.218  16.851  0.00  0.00    +0.000 C 
BRANCH   4   5
ATOM      5  N   UNL     1       4.618   3.223  17.220  0.00  0.00    +0.000 N 
ATOM      6  H   UNL     1       4.800   2.595  18.004  0.00  0.00    +0.000 HD
BRANCH   5  11
ATOM      7  C   UNL     1       7.711   8.043  17.518  0.00  0.00    +0.000 C 
ATOM      8  C   UNL     1       6.868   6.801  17.489  0.00  0.00    +0.000 A 
ATOM      9  C   UNL     1       5.892   6.656  16.499  0.00  0.00    +0.000 A 
ATOM     10  C   UNL     1       5.119   5.494  16.415  0.00  0.00    +0.000 A 
ATOM     11  C   UNL     1       5.281   4.450  17.330  0.00  0.00    +0.000 A 
ATOM     12  C   UNL     1       6.274   4.593  18.307  0.00  0.00    +0.000 A 
ATOM     13  C   UNL     1       7.053   5.758  18.414  0.00  0.00    +0.000 A 
ATOM     14  C   UNL     1       8.092   5.847  19.498  0.00  0.00    +0.000 C 
ENDBRANCH   5  11
ENDBRANCH   4   5
ENDBRANCH   1   4
BRANCH   1  15
ATOM     15  C   UNL     1       2.149   2.920  19.179  0.00  0.00    +0.000 C 
BRANCH  15  16
ATOM     16  O   UNL     1       2.358   1.558  18.769  0.00  0.00    +0.000 OA
ATOM     17  H   UNL     1       1.535   1.053  18.896  0.00  0.00    +0.000 HD
ENDBRANCH  15  16
BRANCH  15  18
ATOM     18  C   UNL     1       3.018   3.286  20.398  0.00  0.00    +0.000 C 
BRANCH  18  19
ATOM     19  O   UNL     1       2.191   3.716  21.480  0.00  0.00    +0.000 OA
ATOM     20  H   UNL     1       1.328   3.263  21.403  0.00  0.00    +0.000 HD
ENDBRANCH  18  19
BRANCH  18  21
ATOM     21  C   UNL     1       3.929   2.132  20.845  0.00  0.00    +0.000 C 
BRANCH  21  22
ATOM     22  O   UNL     1       4.992   1.932  19.914  0.00  0.00    +0.000 OA
ATOM     23  H   UNL     1       4.641   2.047  19.014  0.00  0.00    +0.000 HD
ENDBRANCH  21  22
ENDBRANCH  18  21
ENDBRANCH  15  18
ENDBRANCH   1  15
TORSDOF 10
ENDMDL
