MODEL 1
REMARK VINA RESULT:      -7.4      0.000      0.000
REMARK  Name = 
REMARK  8 active torsions:
REMARK  status: ('A' for Active; 'I' for Inactive)
REMARK    1  A    between atoms: C_1  and  C_2
REMARK    2  A    between atoms: C_2  and  C_3
REMARK    3  A    between atoms: C_3  and  C_4
REMARK    4  A    between atoms: C_3  and  N_12
REMARK    5  A    between atoms: C_4  and  C_5
REMARK    6  A    between atoms: C_19  and  C_20
REMARK    7  A    between atoms: C_20  and  S_21
REMARK    8  A    between atoms: S_21  and  C_22
REMARK                            x       y       z     vdW  Elec       q    Type
REMARK                         _______ _______ _______ _____ _____    ______ ____
ROOT
ATOM      1  N   UNL     1       2.690   6.205  18.900  0.00  0.00    +0.000 N 
ATOM      2  C   UNL     1       2.134   7.059  19.821  0.00  0.00    +0.000 C 
ATOM      3  O   UNL     1       1.892   6.732  20.977  0.00  0.00    +0.000 OA
ATOM      4  N   UNL     1       1.843   8.315  19.321  0.00  0.00    +0.000 N 
ATOM      5  C   UNL     1       2.015   8.723  17.935  0.00  0.00    +0.000 C 
ATOM      6  C   UNL     1       1.875  10.221  17.987  0.00  0.00    +0.000 C 
ATOM      7  C   UNL     1       0.808  10.441  19.046  0.00  0.00    +0.000 C 
ATOM      8  C   UNL     1       0.925   9.246  20.020  0.00  0.00    +0.000 C 
ATOM      9  H   UNL     1       3.254   6.674  18.214  0.00  0.00    +0.000 HD
ENDROOT
BRANCH   1  10
ATOM     10  C   UNL     1       3.147   4.841  19.207  0.00  0.00    +0.000 C 
BRANCH  10  12
ATOM     11  C   UNL     1       1.297   3.657  17.860  0.00  0.00    +0.000 C 
ATOM     12  C   UNL     1       1.961   3.855  19.213  0.00  0.00    +0.000 C 
ENDBRANCH  10  12
BRANCH  10  13
ATOM     13  C   UNL     1       4.238   4.419  18.181  0.00  0.00    +0.000 C 
BRANCH  13  14
ATOM     14  C   UNL     1       5.489   5.282  18.224  0.00  0.00    +0.000 A 
ATOM     15  C   UNL     1       6.461   5.079  19.212  0.00  0.00    +0.000 A 
ATOM     16  C   UNL     1       7.577   5.919  19.290  0.00  0.00    +0.000 A 
ATOM     17  C   UNL     1       7.725   6.951  18.373  0.00  0.00    +0.000 A 
ATOM     18  F   UNL     1       8.783   7.767  18.463  0.00  0.00    +0.000 F 
ATOM     19  C   UNL     1       6.788   7.157  17.370  0.00  0.00    +0.000 A 
ATOM     20  C   UNL     1       5.673   6.316  17.289  0.00  0.00    +0.000 A 
ENDBRANCH  13  14
ENDBRANCH  10  13
ENDBRANCH   1  10
BRANCH   8  21
ATOM     21  C   UNL     1       1.345   9.635  21.438  0.00  0.00    +0.000 C 
BRANCH  21  22
ATOM     22  S   UNL     1      -0.018   9.497  22.609  0.00  0.00    +0.000 S 
ATOM     23  C   UNL     1      -0.957  10.972  22.306  0.00  0.00    +0.000 C 
ATOM     24  O   UNL     1      -0.869   8.387  22.229  0.00  0.00    +0.000 OA
ATOM     25  O   UNL     1       0.520   9.589  23.950  0.00  0.00    +0.000 OA
ENDBRANCH  21  22
ENDBRANCH   8  21
TORSDOF 6
ENDMDL
MODEL 2
REMARK VINA RESULT:      -7.1      1.787      2.202
REMARK  Name = 
REMARK  8 active torsions:
REMARK  status: ('A' for Active; 'I' for Inactive)
REMARK    1  A    between atoms: C_1  and  C_2
REMARK    2  A    between atoms: C_2  and  C_3
REMARK    3  A    between atoms: C_3  and  C_4
REMARK    4  A    between atoms: C_3  and  N_12
REMARK    5  A    between atoms: C_4  and  C_5
REMARK    6  A    between atoms: C_19  and  C_20
REMARK    7  A    between atoms: C_20  and  S_21
REMARK    8  A    between atoms: S_21  and  C_22
REMARK                            x       y       z     vdW  Elec       q    Type
REMARK                         _______ _______ _______ _____ _____    ______ ____
ROOT
ATOM      1  N   UNL     1       2.389   6.635  18.984  0.00  0.00    +0.000 N 
ATOM      2  C   UNL     1       1.849   7.488  19.914  0.00  0.00    +0.000 C 
ATOM      3  O   UNL     1       1.612   7.156  21.071  0.00  0.00    +0.000 OA
ATOM      4  N   UNL     1       1.568   8.751  19.426  0.00  0.00    +0.000 N 
ATOM      5  C   UNL     1       1.733   9.166  18.041  0.00  0.00    +0.000 C 
ATOM      6  C   UNL     1       1.609  10.666  18.104  0.00  0.00    +0.000 C 
ATOM      7  C   UNL     1       0.553  10.889  19.173  0.00  0.00    +0.000 C 
ATOM      8  C   UNL     1       0.665   9.687  20.138  0.00  0.00    +0.000 C 
ATOM      9  H   UNL     1       2.953   7.103  18.297  0.00  0.00    +0.000 HD
ENDROOT
BRANCH   1  10
ATOM     10  C   UNL     1       2.834   5.264  19.278  0.00  0.00    +0.000 C 
BRANCH  10  12
ATOM     11  C   UNL     1       2.125   2.821  18.868  0.00  0.00    +0.000 C 
ATOM     12  C   UNL     1       2.131   4.250  18.351  0.00  0.00    +0.000 C 
ENDBRANCH  10  12
BRANCH  10  13
ATOM     13  C   UNL     1       4.382   5.185  19.145  0.00  0.00    +0.000 C 
BRANCH  13  14
ATOM     14  C   UNL     1       4.871   5.107  17.706  0.00  0.00    +0.000 A 
ATOM     15  C   UNL     1       4.900   6.251  16.900  0.00  0.00    +0.000 A 
ATOM     16  C   UNL     1       5.285   6.163  15.559  0.00  0.00    +0.000 A 
ATOM     17  C   UNL     1       5.653   4.933  15.030  0.00  0.00    +0.000 A 
ATOM     18  F   UNL     1       6.001   4.846  13.740  0.00  0.00    +0.000 F 
ATOM     19  C   UNL     1       5.657   3.788  15.816  0.00  0.00    +0.000 A 
ATOM     20  C   UNL     1       5.274   3.877  17.158  0.00  0.00    +0.000 A 
ENDBRANCH  13  14
ENDBRANCH  10  13
ENDBRANCH   1  10
BRANCH   8  21
ATOM     21  C   UNL     1       1.100  10.061  21.555  0.00  0.00    +0.000 C 
BRANCH  21  22
ATOM     22  S   UNL     1      -0.150   9.635  22.782  0.00  0.00    +0.000 S 
ATOM     23  C   UNL     1      -1.208  11.060  22.787  0.00  0.00    +0.000 C 
ATOM     24  O   UNL     1      -0.953   8.534  22.289  0.00  0.00    +0.000 OA
ATOM     25  O   UNL     1       0.489   9.560  24.079  0.00  0.00    +0.000 OA
ENDBRANCH  21  22
ENDBRANCH   8  21
TORSDOF 6
ENDMDL
MODEL 3
REMARK VINA RESULT:      -7.0      4.150      7.702
REMARK  Name = 
REMARK  8 active torsions:
REMARK  status: ('A' for Active; 'I' for Inactive)
REMARK    1  A    between atoms: C_1  and  C_2
REMARK    2  A    between atoms: C_2  and  C_3
REMARK    3  A    between atoms: C_3  and  C_4
REMARK    4  A    between atoms: C_3  and  N_12
REMARK    5  A    between atoms: C_4  and  C_5
REMARK    6  A    between atoms: C_19  and  C_20
REMARK    7  A    between atoms: C_20  and  S_21
REMARK    8  A    between atoms: S_21  and  C_22
REMARK                            x       y       z     vdW  Elec       q    Type
REMARK                         _______ _______ _______ _____ _____    ______ ____
ROOT
ATOM      1  N   UNL     1       2.554   7.680  18.252  0.00  0.00    +0.000 N 
ATOM      2  C   UNL     1       2.648   6.311  18.227  0.00  0.00    +0.000 C 
ATOM      3  O   UNL     1       1.869   5.574  18.821  0.00  0.00    +0.000 OA
ATOM      4  N   UNL     1       3.719   5.832  17.494  0.00  0.00    +0.000 N 
ATOM      5  C   UNL     1       4.731   6.661  16.856  0.00  0.00    +0.000 C 
ATOM      6  C   UNL     1       5.452   5.702  15.947  0.00  0.00    +0.000 C 
ATOM      7  C   UNL     1       5.470   4.407  16.741  0.00  0.00    +0.000 C 
ATOM      8  C   UNL     1       4.211   4.441  17.637  0.00  0.00    +0.000 C 
ATOM      9  H   UNL     1       2.892   8.116  17.412  0.00  0.00    +0.000 HD
ENDROOT
BRANCH   1  10
ATOM     10  C   UNL     1       1.465   8.423  18.905  0.00  0.00    +0.000 C 
BRANCH  10  12
ATOM     11  C   UNL     1       0.528   8.327  21.304  0.00  0.00    +0.000 C 
ATOM     12  C   UNL     1       1.737   8.575  20.417  0.00  0.00    +0.000 C 
ENDBRANCH  10  12
BRANCH  10  13
ATOM     13  C   UNL     1       1.294   9.805  18.212  0.00  0.00    +0.000 C 
BRANCH  13  14
ATOM     14  C   UNL     1      -0.118  10.362  18.294  0.00  0.00    +0.000 A 
ATOM     15  C   UNL     1      -0.415  11.434  19.145  0.00  0.00    +0.000 A 
ATOM     16  C   UNL     1      -1.727  11.899  19.268  0.00  0.00    +0.000 A 
ATOM     17  C   UNL     1      -2.740  11.300  18.530  0.00  0.00    +0.000 A 
ATOM     18  F   UNL     1      -4.000  11.732  18.666  0.00  0.00    +0.000 F 
ATOM     19  C   UNL     1      -2.468  10.253  17.661  0.00  0.00    +0.000 A 
ATOM     20  C   UNL     1      -1.154   9.789  17.535  0.00  0.00    +0.000 A 
ENDBRANCH  13  14
ENDBRANCH  10  13
ENDBRANCH   1  10
BRANCH   8  21
ATOM     21  C   UNL     1       3.187   3.351  17.318  0.00  0.00    +0.000 C 
BRANCH  21  22
ATOM     22  S   UNL     1       3.029   2.157  18.659  0.00  0.00    +0.000 S 
ATOM     23  C   UNL     1       3.912   2.932  19.990  0.00  0.00    +0.000 C 
ATOM     24  O   UNL     1       1.644   2.083  19.078  0.00  0.00    +0.000 OA
ATOM     25  O   UNL     1       3.754   0.959  18.292  0.00  0.00    +0.000 OA
ENDBRANCH  21  22
ENDBRANCH   8  21
TORSDOF 6
ENDMDL
MODEL 4
REMARK VINA RESULT:      -7.0      4.144      7.757
REMARK  Name = 
REMARK  8 active torsions:
REMARK  status: ('A' for Active; 'I' for Inactive)
REMARK    1  A    between atoms: C_1  and  C_2
REMARK    2  A    between atoms: C_2  and  C_3
REMARK    3  A    between atoms: C_3  and  C_4
REMARK    4  A    between atoms: C_3  and  N_12
REMARK    5  A    between atoms: C_4  and  C_5
REMARK    6  A    between atoms: C_19  and  C_20
REMARK    7  A    between atoms: C_20  and  S_21
REMARK    8  A    between atoms: S_21  and  C_22
REMARK                            x       y       z     vdW  Elec       q    Type
REMARK                         _______ _______ _______ _____ _____    ______ ____
ROOT
ATOM      1  N   UNL     1       2.396   7.933  18.419  0.00  0.00    +0.000 N 
ATOM      2  C   UNL     1       2.631   6.583  18.497  0.00  0.00    +0.000 C 
ATOM      3  O   UNL     1       1.975   5.828  19.206  0.00  0.00    +0.000 OA
ATOM      4  N   UNL     1       3.693   6.150  17.724  0.00  0.00    +0.000 N 
ATOM      5  C   UNL     1       4.567   7.015  16.946  0.00  0.00    +0.000 C 
ATOM      6  C   UNL     1       5.320   6.055  16.063  0.00  0.00    +0.000 C 
ATOM      7  C   UNL     1       5.528   4.843  16.955  0.00  0.00    +0.000 C 
ATOM      8  C   UNL     1       4.337   4.832  17.940  0.00  0.00    +0.000 C 
ATOM      9  H   UNL     1       2.628   8.326  17.523  0.00  0.00    +0.000 HD
ENDROOT
BRANCH   1  10
ATOM     10  C   UNL     1       1.283   8.620  19.092  0.00  0.00    +0.000 C 
BRANCH  10  12
ATOM     11  C   UNL     1       0.355   8.454  21.491  0.00  0.00    +0.000 C 
ATOM     12  C   UNL     1       1.555   8.748  20.606  0.00  0.00    +0.000 C 
ENDBRANCH  10  12
BRANCH  10  13
ATOM     13  C   UNL     1       1.058  10.010  18.432  0.00  0.00    +0.000 C 
BRANCH  13  14
ATOM     14  C   UNL     1      -0.400  10.442  18.393  0.00  0.00    +0.000 A 
ATOM     15  C   UNL     1      -1.305   9.821  17.522  0.00  0.00    +0.000 A 
ATOM     16  C   UNL     1      -2.627  10.266  17.440  0.00  0.00    +0.000 A 
ATOM     17  C   UNL     1      -3.047  11.323  18.237  0.00  0.00    +0.000 A 
ATOM     18  F   UNL     1      -4.308  11.762  18.141  0.00  0.00    +0.000 F 
ATOM     19  C   UNL     1      -2.176  11.938  19.126  0.00  0.00    +0.000 A 
ATOM     20  C   UNL     1      -0.853  11.492  19.210  0.00  0.00    +0.000 A 
ENDBRANCH  13  14
ENDBRANCH  10  13
ENDBRANCH   1  10
BRANCH   8  21
ATOM     21  C   UNL     1       3.413   3.623  17.789  0.00  0.00    +0.000 C 
BRANCH  21  22
ATOM     22  S   UNL     1       3.722   2.372  19.050  0.00  0.00    +0.000 S 
ATOM     23  C   UNL     1       2.285   2.485  20.085  0.00  0.00    +0.000 C 
ATOM     24  O   UNL     1       3.684   1.056  18.443  0.00  0.00    +0.000 OA
ATOM     25  O   UNL     1       4.863   2.790  19.836  0.00  0.00    +0.000 OA
ENDBRANCH  21  22
ENDBRANCH   8  21
TORSDOF 6
ENDMDL
MODEL 5
REMARK VINA RESULT:      -7.0      1.447      1.980
REMARK  Name = 
REMARK  8 active torsions:
REMARK  status: ('A' for Active; 'I' for Inactive)
REMARK    1  A    between atoms: C_1  and  C_2
REMARK    2  A    between atoms: C_2  and  C_3
REMARK    3  A    between atoms: C_3  and  C_4
REMARK    4  A    between atoms: C_3  and  N_12
REMARK    5  A    between atoms: C_4  and  C_5
REMARK    6  A    between atoms: C_19  and  C_20
REMARK    7  A    between atoms: C_20  and  S_21
REMARK    8  A    between atoms: S_21  and  C_22
REMARK                            x       y       z     vdW  Elec       q    Type
REMARK                         _______ _______ _______ _____ _____    ______ ____
ROOT
ATOM      1  N   UNL     1       2.537   4.984  19.596  0.00  0.00    +0.000 N 
ATOM      2  C   UNL     1       2.056   6.094  20.246  0.00  0.00    +0.000 C 
ATOM      3  O   UNL     1       1.630   6.066  21.395  0.00  0.00    +0.000 OA
ATOM      4  N   UNL     1       2.068   7.245  19.480  0.00  0.00    +0.000 N 
ATOM      5  C   UNL     1       2.466   7.315  18.082  0.00  0.00    +0.000 C 
ATOM      6  C   UNL     1       2.610   8.792  17.828  0.00  0.00    +0.000 C 
ATOM      7  C   UNL     1       1.494   9.404  18.657  0.00  0.00    +0.000 C 
ATOM      8  C   UNL     1       1.273   8.442  19.847  0.00  0.00    +0.000 C 
ATOM      9  H   UNL     1       3.253   5.197  18.924  0.00  0.00    +0.000 HD
ENDROOT
BRANCH   1  10
ATOM     10  C   UNL     1       2.689   3.661  20.220  0.00  0.00    +0.000 C 
BRANCH  10  12
ATOM     11  C   UNL     1       0.992   2.562  18.621  0.00  0.00    +0.000 C 
ATOM     12  C   UNL     1       1.398   2.830  20.062  0.00  0.00    +0.000 C 
ENDBRANCH  10  12
BRANCH  10  13
ATOM     13  C   UNL     1       3.917   2.935  19.598  0.00  0.00    +0.000 C 
BRANCH  13  14
ATOM     14  C   UNL     1       4.622   3.738  18.516  0.00  0.00    +0.000 A 
ATOM     15  C   UNL     1       4.295   3.557  17.166  0.00  0.00    +0.000 A 
ATOM     16  C   UNL     1       4.993   4.247  16.170  0.00  0.00    +0.000 A 
ATOM     17  C   UNL     1       6.006   5.128  16.526  0.00  0.00    +0.000 A 
ATOM     18  F   UNL     1       6.688   5.771  15.570  0.00  0.00    +0.000 F 
ATOM     19  C   UNL     1       6.332   5.343  17.859  0.00  0.00    +0.000 A 
ATOM     20  C   UNL     1       5.633   4.654  18.855  0.00  0.00    +0.000 A 
ENDBRANCH  13  14
ENDBRANCH  10  13
ENDBRANCH   1  10
BRANCH   8  21
ATOM     21  C   UNL     1       1.600   9.050  21.211  0.00  0.00    +0.000 C 
BRANCH  21  22
ATOM     22  S   UNL     1       0.119   9.333  22.199  0.00  0.00    +0.000 S 
ATOM     23  C   UNL     1      -0.573  10.796  21.471  0.00  0.00    +0.000 C 
ATOM     24  O   UNL     1      -0.833   8.267  21.956  0.00  0.00    +0.000 OA
ATOM     25  O   UNL     1       0.526   9.665  23.548  0.00  0.00    +0.000 OA
ENDBRANCH  21  22
ENDBRANCH   8  21
TORSDOF 6
ENDMDL
MODEL 6
REMARK VINA RESULT:      -6.9      1.383      1.686
REMARK  Name = 
REMARK  8 active torsions:
REMARK  status: ('A' for Active; 'I' for Inactive)
REMARK    1  A    between atoms: C_1  and  C_2
REMARK    2  A    between atoms: C_2  and  C_3
REMARK    3  A    between atoms: C_3  and  C_4
REMARK    4  A    between atoms: C_3  and  N_12
REMARK    5  A    between atoms: C_4  and  C_5
REMARK    6  A    between atoms: C_19  and  C_20
REMARK    7  A    between atoms: C_20  and  S_21
REMARK    8  A    between atoms: S_21  and  C_22
REMARK                            x       y       z     vdW  Elec       q    Type
REMARK                         _______ _______ _______ _____ _____    ______ ____
ROOT
ATOM      1  N   UNL     1       2.469   6.433  19.411  0.00  0.00    +0.000 N 
ATOM      2  C   UNL     1       1.820   7.431  20.095  0.00  0.00    +0.000 C 
ATOM      3  O   UNL     1       1.363   7.283  21.223  0.00  0.00    +0.000 OA
ATOM      4  N   UNL     1       1.701   8.613  19.388  0.00  0.00    +0.000 N 
ATOM      5  C   UNL     1       2.132   8.812  18.012  0.00  0.00    +0.000 C 
ATOM      6  C   UNL     1       2.082  10.306  17.837  0.00  0.00    +0.000 C 
ATOM      7  C   UNL     1       0.866  10.717  18.650  0.00  0.00    +0.000 C 
ATOM      8  C   UNL     1       0.738   9.670  19.780  0.00  0.00    +0.000 C 
ATOM      9  H   UNL     1       3.172   6.776  18.780  0.00  0.00    +0.000 HD
ENDROOT
BRANCH   1  10
ATOM     10  C   UNL     1       2.779   5.110  19.975  0.00  0.00    +0.000 C 
BRANCH  10  12
ATOM     11  C   UNL     1       1.639   3.240  21.333  0.00  0.00    +0.000 C 
ATOM     12  C   UNL     1       1.484   4.331  20.286  0.00  0.00    +0.000 C 
ENDBRANCH  10  12
BRANCH  10  13
ATOM     13  C   UNL     1       3.693   4.329  18.987  0.00  0.00    +0.000 C 
BRANCH  13  14
ATOM     14  C   UNL     1       4.872   5.139  18.470  0.00  0.00    +0.000 A 
ATOM     15  C   UNL     1       6.069   5.198  19.193  0.00  0.00    +0.000 A 
ATOM     16  C   UNL     1       7.126   5.999  18.749  0.00  0.00    +0.000 A 
ATOM     17  C   UNL     1       6.989   6.728  17.575  0.00  0.00    +0.000 A 
ATOM     18  F   UNL     1       7.994   7.511  17.163  0.00  0.00    +0.000 F 
ATOM     19  C   UNL     1       5.821   6.666  16.827  0.00  0.00    +0.000 A 
ATOM     20  C   UNL     1       4.764   5.864  17.270  0.00  0.00    +0.000 A 
ENDBRANCH  13  14
ENDBRANCH  10  13
ENDBRANCH   1  10
BRANCH   8  21
ATOM     21  C   UNL     1       0.934  10.242  21.186  0.00  0.00    +0.000 C 
BRANCH  21  22
ATOM     22  S   UNL     1      -0.382  11.388  21.639  0.00  0.00    +0.000 S 
ATOM     23  C   UNL     1      -1.043  10.670  23.122  0.00  0.00    +0.000 C 
ATOM     24  O   UNL     1       0.199  12.658  22.026  0.00  0.00    +0.000 OA
ATOM     25  O   UNL     1      -1.412  11.325  20.625  0.00  0.00    +0.000 OA
ENDBRANCH  21  22
ENDBRANCH   8  21
TORSDOF 6
ENDMDL
MODEL 7
REMARK VINA RESULT:      -6.8      3.164      4.795
REMARK  Name = 
REMARK  8 active torsions:
REMARK  status: ('A' for Active; 'I' for Inactive)
REMARK    1  A    between atoms: C_1  and  C_2
REMARK    2  A    between atoms: C_2  and  C_3
REMARK    3  A    between atoms: C_3  and  C_4
REMARK    4  A    between atoms: C_3  and  N_12
REMARK    5  A    between atoms: C_4  and  C_5
REMARK    6  A    between atoms: C_19  and  C_20
REMARK    7  A    between atoms: C_20  and  S_21
REMARK    8  A    between atoms: S_21  and  C_22
REMARK                            x       y       z     vdW  Elec       q    Type
REMARK                         _______ _______ _______ _____ _____    ______ ____
ROOT
ATOM      1  N   UNL     1       2.825   6.633  18.695  0.00  0.00    +0.000 N 
ATOM      2  C   UNL     1       2.378   7.930  18.688  0.00  0.00    +0.000 C 
ATOM      3  O   UNL     1       2.674   8.737  17.813  0.00  0.00    +0.000 OA
ATOM      4  N   UNL     1       1.585   8.260  19.772  0.00  0.00    +0.000 N 
ATOM      5  C   UNL     1       1.287   7.375  20.888  0.00  0.00    +0.000 C 
ATOM      6  C   UNL     1       0.159   8.072  21.601  0.00  0.00    +0.000 C 
ATOM      7  C   UNL     1       0.508   9.544  21.463  0.00  0.00    +0.000 C 
ATOM      8  C   UNL     1       1.308   9.667  20.146  0.00  0.00    +0.000 C 
ATOM      9  H   UNL     1       2.181   5.993  19.127  0.00  0.00    +0.000 HD
ENDROOT
BRANCH   1  10
ATOM     10  C   UNL     1       3.625   6.027  17.619  0.00  0.00    +0.000 C 
BRANCH  10  12
ATOM     11  C   UNL     1       6.018   6.106  16.667  0.00  0.00    +0.000 C 
ATOM     12  C   UNL     1       5.134   6.192  17.900  0.00  0.00    +0.000 C 
ENDBRANCH  10  12
BRANCH  10  13
ATOM     13  C   UNL     1       3.232   4.530  17.464  0.00  0.00    +0.000 C 
BRANCH  13  14
ATOM     14  C   UNL     1       2.654   3.913  18.728  0.00  0.00    +0.000 A 
ATOM     15  C   UNL     1       1.270   3.895  18.945  0.00  0.00    +0.000 A 
ATOM     16  C   UNL     1       0.747   3.389  20.138  0.00  0.00    +0.000 A 
ATOM     17  C   UNL     1       1.607   2.888  21.107  0.00  0.00    +0.000 A 
ATOM     18  F   UNL     1       1.105   2.424  22.259  0.00  0.00    +0.000 F 
ATOM     19  C   UNL     1       2.980   2.871  20.905  0.00  0.00    +0.000 A 
ATOM     20  C   UNL     1       3.504   3.376  19.710  0.00  0.00    +0.000 A 
ENDBRANCH  13  14
ENDBRANCH  10  13
ENDBRANCH   1  10
BRANCH   8  21
ATOM     21  C   UNL     1       0.616  10.504  19.070  0.00  0.00    +0.000 C 
BRANCH  21  22
ATOM     22  S   UNL     1       1.270  12.183  18.992  0.00  0.00    +0.000 S 
ATOM     23  C   UNL     1      -0.098  13.115  18.352  0.00  0.00    +0.000 C 
ATOM     24  O   UNL     1       1.502  12.672  20.337  0.00  0.00    +0.000 OA
ATOM     25  O   UNL     1       2.325  12.216  18.002  0.00  0.00    +0.000 OA
ENDBRANCH  21  22
ENDBRANCH   8  21
TORSDOF 6
ENDMDL
MODEL 8
REMARK VINA RESULT:      -6.8      4.082      7.695
REMARK  Name = 
REMARK  8 active torsions:
REMARK  status: ('A' for Active; 'I' for Inactive)
REMARK    1  A    between atoms: C_1  and  C_2
REMARK    2  A    between atoms: C_2  and  C_3
REMARK    3  A    between atoms: C_3  and  C_4
REMARK    4  A    between atoms: C_3  and  N_12
REMARK    5  A    between atoms: C_4  and  C_5
REMARK    6  A    between atoms: C_19  and  C_20
REMARK    7  A    between atoms: C_20  and  S_21
REMARK    8  A    between atoms: S_21  and  C_22
REMARK                            x       y       z     vdW  Elec       q    Type
REMARK                         _______ _______ _______ _____ _____    ______ ____
ROOT
ATOM      1  N   UNL     1       2.259   8.148  18.833  0.00  0.00    +0.000 N 
ATOM      2  C   UNL     1       2.512   6.799  18.876  0.00  0.00    +0.000 C 
ATOM      3  O   UNL     1       1.907   6.026  19.610  0.00  0.00    +0.000 OA
ATOM      4  N   UNL     1       3.532   6.390  18.036  0.00  0.00    +0.000 N 
ATOM      5  C   UNL     1       4.349   7.276  17.221  0.00  0.00    +0.000 C 
ATOM      6  C   UNL     1       5.059   6.339  16.281  0.00  0.00    +0.000 C 
ATOM      7  C   UNL     1       5.331   5.115  17.140  0.00  0.00    +0.000 C 
ATOM      8  C   UNL     1       4.200   5.076  18.192  0.00  0.00    +0.000 C 
ATOM      9  H   UNL     1       2.434   8.556  17.932  0.00  0.00    +0.000 HD
ENDROOT
BRANCH   1  10
ATOM     10  C   UNL     1       1.180   8.811  19.582  0.00  0.00    +0.000 C 
BRANCH  10  12
ATOM     11  C   UNL     1       0.219   8.823  21.973  0.00  0.00    +0.000 C 
ATOM     12  C   UNL     1       1.461   8.770  21.099  0.00  0.00    +0.000 C 
ENDBRANCH  10  12
BRANCH  10  13
ATOM     13  C   UNL     1       1.018  10.271  19.069  0.00  0.00    +0.000 C 
BRANCH  13  14
ATOM     14  C   UNL     1      -0.410  10.632  18.687  0.00  0.00    +0.000 A 
ATOM     15  C   UNL     1      -1.109  11.619  19.394  0.00  0.00    +0.000 A 
ATOM     16  C   UNL     1      -2.443  11.900  19.085  0.00  0.00    +0.000 A 
ATOM     17  C   UNL     1      -3.072  11.204  18.060  0.00  0.00    +0.000 A 
ATOM     18  F   UNL     1      -4.356  11.459  17.780  0.00  0.00    +0.000 F 
ATOM     19  C   UNL     1      -2.392  10.239  17.329  0.00  0.00    +0.000 A 
ATOM     20  C   UNL     1      -1.057   9.959  17.637  0.00  0.00    +0.000 A 
ENDBRANCH  13  14
ENDBRANCH  10  13
ENDBRANCH   1  10
BRANCH   8  21
ATOM     21  C   UNL     1       3.281   3.859  18.076  0.00  0.00    +0.000 C 
BRANCH  21  22
ATOM     22  S   UNL     1       3.756   2.541  19.212  0.00  0.00    +0.000 S 
ATOM     23  C   UNL     1       2.506   2.628  20.469  0.00  0.00    +0.000 C 
ATOM     24  O   UNL     1       3.588   1.258  18.559  0.00  0.00    +0.000 OA
ATOM     25  O   UNL     1       5.018   2.898  19.824  0.00  0.00    +0.000 OA
ENDBRANCH  21  22
ENDBRANCH   8  21
TORSDOF 6
ENDMDL
MODEL 9
REMARK VINA RESULT:      -6.7      3.153      4.627
REMARK  Name = 
REMARK  8 active torsions:
REMARK  status: ('A' for Active; 'I' for Inactive)
REMARK    1  A    between atoms: C_1  and  C_2
REMARK    2  A    between atoms: C_2  and  C_3
REMARK    3  A    between atoms: C_3  and  C_4
REMARK    4  A    between atoms: C_3  and  N_12
REMARK    5  A    between atoms: C_4  and  C_5
REMARK    6  A    between atoms: C_19  and  C_20
REMARK    7  A    between atoms: C_20  and  S_21
REMARK    8  A    between atoms: S_21  and  C_22
REMARK                            x       y       z     vdW  Elec       q    Type
REMARK                         _______ _______ _______ _____ _____    ______ ____
ROOT
ATOM      1  N   UNL     1       2.917   6.944  18.537  0.00  0.00    +0.000 N 
ATOM      2  C   UNL     1       2.213   8.117  18.417  0.00  0.00    +0.000 C 
ATOM      3  O   UNL     1       2.228   8.807  17.404  0.00  0.00    +0.000 OA
ATOM      4  N   UNL     1       1.505   8.468  19.552  0.00  0.00    +0.000 N 
ATOM      5  C   UNL     1       1.534   7.741  20.812  0.00  0.00    +0.000 C 
ATOM      6  C   UNL     1       0.380   8.325  21.583  0.00  0.00    +0.000 C 
ATOM      7  C   UNL     1       0.397   9.792  21.190  0.00  0.00    +0.000 C 
ATOM      8  C   UNL     1       0.990   9.842  19.764  0.00  0.00    +0.000 C 
ATOM      9  H   UNL     1       2.476   6.277  19.145  0.00  0.00    +0.000 HD
ENDROOT
BRANCH   1  10
ATOM     10  C   UNL     1       3.689   6.328  17.447  0.00  0.00    +0.000 C 
BRANCH  10  12
ATOM     11  C   UNL     1       6.079   6.015  16.533  0.00  0.00    +0.000 C 
ATOM     12  C   UNL     1       5.200   6.584  17.635  0.00  0.00    +0.000 C 
ENDBRANCH  10  12
BRANCH  10  13
ATOM     13  C   UNL     1       3.371   4.806  17.384  0.00  0.00    +0.000 C 
BRANCH  13  14
ATOM     14  C   UNL     1       2.783   4.249  18.672  0.00  0.00    +0.000 A 
ATOM     15  C   UNL     1       3.615   3.703  19.658  0.00  0.00    +0.000 A 
ATOM     16  C   UNL     1       3.067   3.130  20.809  0.00  0.00    +0.000 A 
ATOM     17  C   UNL     1       1.689   3.116  20.979  0.00  0.00    +0.000 A 
ATOM     18  F   UNL     1       1.165   2.547  22.072  0.00  0.00    +0.000 F 
ATOM     19  C   UNL     1       0.845   3.673  20.029  0.00  0.00    +0.000 A 
ATOM     20  C   UNL     1       1.393   4.248  18.878  0.00  0.00    +0.000 A 
ENDBRANCH  13  14
ENDBRANCH  10  13
ENDBRANCH   1  10
BRANCH   8  21
ATOM     21  C   UNL     1       0.014  10.344  18.699  0.00  0.00    +0.000 C 
BRANCH  21  22
ATOM     22  S   UNL     1      -0.397  12.085  18.924  0.00  0.00    +0.000 S 
ATOM     23  C   UNL     1      -1.753  12.030  20.068  0.00  0.00    +0.000 C 
ATOM     24  O   UNL     1       0.691  12.751  19.614  0.00  0.00    +0.000 OA
ATOM     25  O   UNL     1      -0.902  12.602  17.670  0.00  0.00    +0.000 OA
ENDBRANCH  21  22
ENDBRANCH   8  21
TORSDOF 6
ENDMDL
