MODEL 1
REMARK VINA RESULT:      -8.4      0.000      0.000
REMARK  Name = 
REMARK  9 active torsions:
REMARK  status: ('A' for Active; 'I' for Inactive)
REMARK    1  A    between atoms: C_2  and  C_3
REMARK    2  A    between atoms: C_2  and  C_13
REMARK    3  A    between atoms: C_4  and  C_5
REMARK    4  A    between atoms: C_8  and  O_9
REMARK    5  A    between atoms: C_10  and  O_11
REMARK    6  A    between atoms: C_16  and  N_17
REMARK    7  A    between atoms: N_17  and  S_18
REMARK    8  A    between atoms: S_18  and  C_21
REMARK    9  A    between atoms: C_25  and  O_26
REMARK                            x       y       z     vdW  Elec       q    Type
REMARK                         _______ _______ _______ _____ _____    ______ ____
ROOT
ATOM      1  C   UNL     1       6.363   5.645  17.638  0.00  0.00    +0.000 A 
ATOM      2  C   UNL     1       6.178   5.568  19.024  0.00  0.00    +0.000 A 
ATOM      3  C   UNL     1       5.242   4.674  19.559  0.00  0.00    +0.000 A 
ATOM      4  C   UNL     1       4.503   3.852  18.706  0.00  0.00    +0.000 A 
ATOM      5  C   UNL     1       4.685   3.923  17.328  0.00  0.00    +0.000 A 
ATOM      6  C   UNL     1       5.617   4.812  16.793  0.00  0.00    +0.000 A 
ENDROOT
BRANCH   1   8
ATOM      7  O   UNL     1       7.869   6.397  15.977  0.00  0.00    +0.000 OA
ATOM      8  C   UNL     1       7.379   6.582  17.085  0.00  0.00    +0.000 C 
BRANCH   8   9
ATOM      9  C   UNL     1       7.790   7.711  17.966  0.00  0.00    +0.000 C 
ATOM     10  C   UNL     1       8.214   8.878  17.462  0.00  0.00    +0.000 C 
BRANCH  10  11
ATOM     11  C   UNL     1       8.650  10.010  18.299  0.00  0.00    +0.000 A 
ATOM     12  C   UNL     1       9.172   9.819  19.593  0.00  0.00    +0.000 A 
ATOM     13  C   UNL     1       9.616  10.899  20.365  0.00  0.00    +0.000 A 
ATOM     14  C   UNL     1       9.551  12.178  19.835  0.00  0.00    +0.000 A 
ATOM     15  C   UNL     1       9.050  12.379  18.552  0.00  0.00    +0.000 A 
ATOM     16  C   UNL     1       8.604  11.311  17.780  0.00  0.00    +0.000 A 
BRANCH  14  17
ATOM     17  O   UNL     1       9.978  13.272  20.534  0.00  0.00    +0.000 OA
ATOM     18  H   UNL     1      10.851  13.531  20.189  0.00  0.00    +0.000 HD
ENDBRANCH  14  17
BRANCH  15  19
ATOM     19  O   UNL     1       9.000  13.644  18.036  0.00  0.00    +0.000 OA
ATOM     20  H   UNL     1       9.146  13.524  17.077  0.00  0.00    +0.000 HD
ENDBRANCH  15  19
ENDBRANCH  10  11
ENDBRANCH   8   9
ENDBRANCH   1   8
BRANCH   4  21
ATOM     21  N   UNL     1       3.600   2.883  19.209  0.00  0.00    +0.000 N 
ATOM     22  H   UNL     1       3.909   2.309  19.994  0.00  0.00    +0.000 HD
BRANCH  21  23
ATOM     23  S   UNL     1       1.961   3.251  19.319  0.00  0.00    +0.000 S 
ATOM     24  O   UNL     1       1.364   2.781  18.088  0.00  0.00    +0.000 OA
ATOM     25  O   UNL     1       1.466   2.801  20.603  0.00  0.00    +0.000 OA
BRANCH  23  26
ATOM     26  C   UNL     1       1.906   5.025  19.277  0.00  0.00    +0.000 A 
ATOM     27  C   UNL     1       2.085   5.692  18.059  0.00  0.00    +0.000 A 
ATOM     28  C   UNL     1       2.179   7.086  18.041  0.00  0.00    +0.000 A 
ATOM     29  C   UNL     1       2.089   7.807  19.233  0.00  0.00    +0.000 A 
ATOM     30  C   UNL     1       1.894   7.130  20.434  0.00  0.00    +0.000 A 
ATOM     31  C   UNL     1       1.799   5.742  20.471  0.00  0.00    +0.000 A 
BRANCH  30  32
ATOM     32  O   UNL     1       1.812   7.802  21.617  0.00  0.00    +0.000 OA
ATOM     33  H   UNL     1       0.923   7.677  21.990  0.00  0.00    +0.000 HD
ENDBRANCH  30  32
ENDBRANCH  23  26
ENDBRANCH  21  23
ENDBRANCH   4  21
TORSDOF 9
ENDMDL
MODEL 2
REMARK VINA RESULT:      -8.4      3.350      6.851
REMARK  Name = 
REMARK  9 active torsions:
REMARK  status: ('A' for Active; 'I' for Inactive)
REMARK    1  A    between atoms: C_2  and  C_3
REMARK    2  A    between atoms: C_2  and  C_13
REMARK    3  A    between atoms: C_4  and  C_5
REMARK    4  A    between atoms: C_8  and  O_9
REMARK    5  A    between atoms: C_10  and  O_11
REMARK    6  A    between atoms: C_16  and  N_17
REMARK    7  A    between atoms: N_17  and  S_18
REMARK    8  A    between atoms: S_18  and  C_21
REMARK    9  A    between atoms: C_25  and  O_26
REMARK                            x       y       z     vdW  Elec       q    Type
REMARK                         _______ _______ _______ _____ _____    ______ ____
ROOT
ATOM      1  C   UNL     1       2.585   3.986  19.374  0.00  0.00    +0.000 A 
ATOM      2  C   UNL     1       3.854   3.537  19.763  0.00  0.00    +0.000 A 
ATOM      3  C   UNL     1       4.853   3.340  18.802  0.00  0.00    +0.000 A 
ATOM      4  C   UNL     1       4.584   3.604  17.457  0.00  0.00    +0.000 A 
ATOM      5  C   UNL     1       3.326   4.053  17.067  0.00  0.00    +0.000 A 
ATOM      6  C   UNL     1       2.329   4.251  18.022  0.00  0.00    +0.000 A 
ENDROOT
BRANCH   1   8
ATOM      7  O   UNL     1       1.068   3.280  21.045  0.00  0.00    +0.000 OA
ATOM      8  C   UNL     1       1.541   4.215  20.410  0.00  0.00    +0.000 C 
BRANCH   8   9
ATOM      9  C   UNL     1       1.081   5.621  20.590  0.00  0.00    +0.000 C 
ATOM     10  C   UNL     1       1.884   6.662  20.334  0.00  0.00    +0.000 C 
BRANCH  10  11
ATOM     11  C   UNL     1       1.474   8.065  20.521  0.00  0.00    +0.000 A 
ATOM     12  C   UNL     1       1.424   8.974  19.445  0.00  0.00    +0.000 A 
ATOM     13  C   UNL     1       1.000  10.295  19.629  0.00  0.00    +0.000 A 
ATOM     14  C   UNL     1       0.609  10.708  20.892  0.00  0.00    +0.000 A 
ATOM     15  C   UNL     1       0.640   9.816  21.961  0.00  0.00    +0.000 A 
ATOM     16  C   UNL     1       1.064   8.502  21.787  0.00  0.00    +0.000 A 
BRANCH  14  17
ATOM     17  O   UNL     1       0.174  11.981  21.134  0.00  0.00    +0.000 OA
ATOM     18  H   UNL     1       0.302  12.504  20.323  0.00  0.00    +0.000 HD
ENDBRANCH  14  17
BRANCH  15  19
ATOM     19  O   UNL     1       0.242  10.232  23.201  0.00  0.00    +0.000 OA
ATOM     20  H   UNL     1       0.978  10.792  23.519  0.00  0.00    +0.000 HD
ENDBRANCH  15  19
ENDBRANCH  10  11
ENDBRANCH   8   9
ENDBRANCH   1   8
BRANCH   4  21
ATOM     21  N   UNL     1       5.588   3.488  16.464  0.00  0.00    +0.000 N 
ATOM     22  H   UNL     1       5.530   2.697  15.822  0.00  0.00    +0.000 HD
BRANCH  21  23
ATOM     23  S   UNL     1       6.162   4.870  15.695  0.00  0.00    +0.000 S 
ATOM     24  O   UNL     1       7.234   4.428  14.830  0.00  0.00    +0.000 OA
ATOM     25  O   UNL     1       5.038   5.612  15.165  0.00  0.00    +0.000 OA
BRANCH  23  26
ATOM     26  C   UNL     1       6.907   5.818  16.999  0.00  0.00    +0.000 A 
ATOM     27  C   UNL     1       7.092   7.196  16.832  0.00  0.00    +0.000 A 
ATOM     28  C   UNL     1       7.797   7.921  17.795  0.00  0.00    +0.000 A 
ATOM     29  C   UNL     1       8.311   7.273  18.919  0.00  0.00    +0.000 A 
ATOM     30  C   UNL     1       8.105   5.904  19.079  0.00  0.00    +0.000 A 
ATOM     31  C   UNL     1       7.404   5.167  18.130  0.00  0.00    +0.000 A 
BRANCH  30  32
ATOM     32  O   UNL     1       8.601   5.238  20.160  0.00  0.00    +0.000 OA
ATOM     33  H   UNL     1       8.765   5.876  20.876  0.00  0.00    +0.000 HD
ENDBRANCH  30  32
ENDBRANCH  23  26
ENDBRANCH  21  23
ENDBRANCH   4  21
TORSDOF 9
ENDMDL
MODEL 3
REMARK VINA RESULT:      -8.3      4.766      7.575
REMARK  Name = 
REMARK  9 active torsions:
REMARK  status: ('A' for Active; 'I' for Inactive)
REMARK    1  A    between atoms: C_2  and  C_3
REMARK    2  A    between atoms: C_2  and  C_13
REMARK    3  A    between atoms: C_4  and  C_5
REMARK    4  A    between atoms: C_8  and  O_9
REMARK    5  A    between atoms: C_10  and  O_11
REMARK    6  A    between atoms: C_16  and  N_17
REMARK    7  A    between atoms: N_17  and  S_18
REMARK    8  A    between atoms: S_18  and  C_21
REMARK    9  A    between atoms: C_25  and  O_26
REMARK                            x       y       z     vdW  Elec       q    Type
REMARK                         _______ _______ _______ _____ _____    ______ ____
ROOT
ATOM      1  C   UNL     1       2.760   4.194  19.578  0.00  0.00    +0.000 A 
ATOM      2  C   UNL     1       4.081   4.542  19.887  0.00  0.00    +0.000 A 
ATOM      3  C   UNL     1       5.090   4.386  18.928  0.00  0.00    +0.000 A 
ATOM      4  C   UNL     1       4.772   3.895  17.660  0.00  0.00    +0.000 A 
ATOM      5  C   UNL     1       3.460   3.552  17.347  0.00  0.00    +0.000 A 
ATOM      6  C   UNL     1       2.453   3.706  18.300  0.00  0.00    +0.000 A 
ENDROOT
BRANCH   1   8
ATOM      7  O   UNL     1       1.223   3.435  21.207  0.00  0.00    +0.000 OA
ATOM      8  C   UNL     1       1.694   4.389  20.598  0.00  0.00    +0.000 C 
BRANCH   8   9
ATOM      9  C   UNL     1       1.209   5.784  20.795  0.00  0.00    +0.000 C 
ATOM     10  C   UNL     1       1.853   6.833  20.267  0.00  0.00    +0.000 C 
BRANCH  10  11
ATOM     11  C   UNL     1       1.419   8.229  20.458  0.00  0.00    +0.000 A 
ATOM     12  C   UNL     1       1.352   9.139  19.385  0.00  0.00    +0.000 A 
ATOM     13  C   UNL     1       0.905  10.452  19.572  0.00  0.00    +0.000 A 
ATOM     14  C   UNL     1       0.508  10.855  20.837  0.00  0.00    +0.000 A 
ATOM     15  C   UNL     1       0.556   9.961  21.903  0.00  0.00    +0.000 A 
ATOM     16  C   UNL     1       1.002   8.655  21.726  0.00  0.00    +0.000 A 
BRANCH  14  17
ATOM     17  O   UNL     1       0.052  12.120  21.083  0.00  0.00    +0.000 OA
ATOM     18  H   UNL     1      -0.610  12.070  21.794  0.00  0.00    +0.000 HD
ENDBRANCH  14  17
BRANCH  15  19
ATOM     19  O   UNL     1       0.152  10.366  23.145  0.00  0.00    +0.000 OA
ATOM     20  H   UNL     1       0.706  11.148  23.340  0.00  0.00    +0.000 HD
ENDBRANCH  15  19
ENDBRANCH  10  11
ENDBRANCH   8   9
ENDBRANCH   1   8
BRANCH   4  21
ATOM     21  N   UNL     1       5.750   3.792  16.640  0.00  0.00    +0.000 N 
ATOM     22  H   UNL     1       5.634   3.053  15.946  0.00  0.00    +0.000 HD
BRANCH  21  23
ATOM     23  S   UNL     1       6.391   5.190  15.956  0.00  0.00    +0.000 S 
ATOM     24  O   UNL     1       5.297   6.134  15.883  0.00  0.00    +0.000 OA
ATOM     25  O   UNL     1       7.619   5.527  16.645  0.00  0.00    +0.000 OA
BRANCH  23  26
ATOM     26  C   UNL     1       6.783   4.721  14.288  0.00  0.00    +0.000 A 
ATOM     27  C   UNL     1       7.661   5.510  13.537  0.00  0.00    +0.000 A 
ATOM     28  C   UNL     1       7.867   5.223  12.186  0.00  0.00    +0.000 A 
ATOM     29  C   UNL     1       7.201   4.150  11.591  0.00  0.00    +0.000 A 
ATOM     30  C   UNL     1       6.342   3.364  12.356  0.00  0.00    +0.000 A 
ATOM     31  C   UNL     1       6.126   3.636  13.704  0.00  0.00    +0.000 A 
BRANCH  30  32
ATOM     32  O   UNL     1       5.668   2.315  11.805  0.00  0.00    +0.000 OA
ATOM     33  H   UNL     1       5.502   1.649  12.494  0.00  0.00    +0.000 HD
ENDBRANCH  30  32
ENDBRANCH  23  26
ENDBRANCH  21  23
ENDBRANCH   4  21
TORSDOF 9
ENDMDL
MODEL 4
REMARK VINA RESULT:      -8.2      4.989      8.810
REMARK  Name = 
REMARK  9 active torsions:
REMARK  status: ('A' for Active; 'I' for Inactive)
REMARK    1  A    between atoms: C_2  and  C_3
REMARK    2  A    between atoms: C_2  and  C_13
REMARK    3  A    between atoms: C_4  and  C_5
REMARK    4  A    between atoms: C_8  and  O_9
REMARK    5  A    between atoms: C_10  and  O_11
REMARK    6  A    between atoms: C_16  and  N_17
REMARK    7  A    between atoms: N_17  and  S_18
REMARK    8  A    between atoms: S_18  and  C_21
REMARK    9  A    between atoms: C_25  and  O_26
REMARK                            x       y       z     vdW  Elec       q    Type
REMARK                         _______ _______ _______ _____ _____    ______ ____
ROOT
ATOM      1  C   UNL     1       1.418   9.080  19.480  0.00  0.00    +0.000 A 
ATOM      2  C   UNL     1       1.812   9.069  18.135  0.00  0.00    +0.000 A 
ATOM      3  C   UNL     1       2.529   7.981  17.623  0.00  0.00    +0.000 A 
ATOM      4  C   UNL     1       2.839   6.902  18.454  0.00  0.00    +0.000 A 
ATOM      5  C   UNL     1       2.447   6.907  19.789  0.00  0.00    +0.000 A 
ATOM      6  C   UNL     1       1.733   7.990  20.302  0.00  0.00    +0.000 A 
ENDROOT
BRANCH   1   8
ATOM      7  O   UNL     1       1.138  11.034  20.783  0.00  0.00    +0.000 OA
ATOM      8  C   UNL     1       0.635  10.232  20.004  0.00  0.00    +0.000 C 
BRANCH   8   9
ATOM      9  C   UNL     1      -0.787  10.322  19.568  0.00  0.00    +0.000 C 
ATOM     10  C   UNL     1      -1.239  11.360  18.851  0.00  0.00    +0.000 C 
BRANCH  10  11
ATOM     11  C   UNL     1      -2.641  11.497  18.421  0.00  0.00    +0.000 A 
ATOM     12  C   UNL     1      -3.618  12.085  19.249  0.00  0.00    +0.000 A 
ATOM     13  C   UNL     1      -4.939  12.241  18.815  0.00  0.00    +0.000 A 
ATOM     14  C   UNL     1      -5.285  11.821  17.541  0.00  0.00    +0.000 A 
ATOM     15  C   UNL     1      -4.326  11.252  16.708  0.00  0.00    +0.000 A 
ATOM     16  C   UNL     1      -3.011  11.090  17.133  0.00  0.00    +0.000 A 
BRANCH  14  17
ATOM     17  O   UNL     1      -6.556  11.956  17.056  0.00  0.00    +0.000 OA
ATOM     18  H   UNL     1      -6.837  12.878  17.193  0.00  0.00    +0.000 HD
ENDBRANCH  14  17
BRANCH  15  19
ATOM     19  O   UNL     1      -4.677  10.850  15.449  0.00  0.00    +0.000 OA
ATOM     20  H   UNL     1      -3.835  10.834  14.953  0.00  0.00    +0.000 HD
ENDBRANCH  15  19
ENDBRANCH  10  11
ENDBRANCH   8   9
ENDBRANCH   1   8
BRANCH   4  21
ATOM     21  N   UNL     1       3.498   5.750  17.957  0.00  0.00    +0.000 N 
ATOM     22  H   UNL     1       4.418   5.528  18.339  0.00  0.00    +0.000 HD
BRANCH  21  23
ATOM     23  S   UNL     1       2.610   4.358  17.632  0.00  0.00    +0.000 S 
ATOM     24  O   UNL     1       1.254   4.799  17.389  0.00  0.00    +0.000 OA
ATOM     25  O   UNL     1       3.321   3.567  16.650  0.00  0.00    +0.000 OA
BRANCH  23  26
ATOM     26  C   UNL     1       2.599   3.476  19.174  0.00  0.00    +0.000 A 
ATOM     27  C   UNL     1       1.452   3.502  19.976  0.00  0.00    +0.000 A 
ATOM     28  C   UNL     1       1.484   2.925  21.247  0.00  0.00    +0.000 A 
ATOM     29  C   UNL     1       2.654   2.323  21.712  0.00  0.00    +0.000 A 
ATOM     30  C   UNL     1       3.782   2.291  20.895  0.00  0.00    +0.000 A 
ATOM     31  C   UNL     1       3.768   2.861  19.626  0.00  0.00    +0.000 A 
BRANCH  30  32
ATOM     32  O   UNL     1       4.945   1.720  21.321  0.00  0.00    +0.000 OA
ATOM     33  H   UNL     1       4.766   0.802  21.586  0.00  0.00    +0.000 HD
ENDBRANCH  30  32
ENDBRANCH  23  26
ENDBRANCH  21  23
ENDBRANCH   4  21
TORSDOF 9
ENDMDL
MODEL 5
REMARK VINA RESULT:      -8.2      3.449      7.283
REMARK  Name = 
REMARK  9 active torsions:
REMARK  status: ('A' for Active; 'I' for Inactive)
REMARK    1  A    between atoms: C_2  and  C_3
REMARK    2  A    between atoms: C_2  and  C_13
REMARK    3  A    between atoms: C_4  and  C_5
REMARK    4  A    between atoms: C_8  and  O_9
REMARK    5  A    between atoms: C_10  and  O_11
REMARK    6  A    between atoms: C_16  and  N_17
REMARK    7  A    between atoms: N_17  and  S_18
REMARK    8  A    between atoms: S_18  and  C_21
REMARK    9  A    between atoms: C_25  and  O_26
REMARK                            x       y       z     vdW  Elec       q    Type
REMARK                         _______ _______ _______ _____ _____    ______ ____
ROOT
ATOM      1  C   UNL     1       2.857   5.555  19.067  0.00  0.00    +0.000 A 
ATOM      2  C   UNL     1       3.087   4.306  18.475  0.00  0.00    +0.000 A 
ATOM      3  C   UNL     1       3.799   4.221  17.272  0.00  0.00    +0.000 A 
ATOM      4  C   UNL     1       4.289   5.383  16.672  0.00  0.00    +0.000 A 
ATOM      5  C   UNL     1       4.065   6.625  17.258  0.00  0.00    +0.000 A 
ATOM      6  C   UNL     1       3.357   6.713  18.457  0.00  0.00    +0.000 A 
ENDROOT
BRANCH   1   8
ATOM      7  O   UNL     1       2.242   4.749  21.204  0.00  0.00    +0.000 OA
ATOM      8  C   UNL     1       2.120   5.628  20.358  0.00  0.00    +0.000 C 
BRANCH   8   9
ATOM      9  C   UNL     1       1.206   6.791  20.537  0.00  0.00    +0.000 C 
ATOM     10  C   UNL     1       1.508   7.804  21.360  0.00  0.00    +0.000 C 
BRANCH  10  11
ATOM     11  C   UNL     1       0.621   8.960  21.580  0.00  0.00    +0.000 A 
ATOM     12  C   UNL     1       0.076   9.246  22.848  0.00  0.00    +0.000 A 
ATOM     13  C   UNL     1      -0.737  10.366  23.053  0.00  0.00    +0.000 A 
ATOM     14  C   UNL     1      -0.996  11.215  21.989  0.00  0.00    +0.000 A 
ATOM     15  C   UNL     1      -0.452  10.951  20.735  0.00  0.00    +0.000 A 
ATOM     16  C   UNL     1       0.354   9.838  20.522  0.00  0.00    +0.000 A 
BRANCH  14  17
ATOM     17  O   UNL     1      -1.774  12.331  22.127  0.00  0.00    +0.000 OA
ATOM     18  H   UNL     1      -2.522  12.257  21.509  0.00  0.00    +0.000 HD
ENDBRANCH  14  17
BRANCH  15  19
ATOM     19  O   UNL     1      -0.707  11.801  19.695  0.00  0.00    +0.000 OA
ATOM     20  H   UNL     1       0.175  12.116  19.413  0.00  0.00    +0.000 HD
ENDBRANCH  15  19
ENDBRANCH  10  11
ENDBRANCH   8   9
ENDBRANCH   1   8
BRANCH   4  21
ATOM     21  N   UNL     1       5.076   5.333  15.495  0.00  0.00    +0.000 N 
ATOM     22  H   UNL     1       4.880   6.018  14.765  0.00  0.00    +0.000 HD
BRANCH  21  23
ATOM     23  S   UNL     1       6.722   5.000  15.607  0.00  0.00    +0.000 S 
ATOM     24  O   UNL     1       6.821   3.598  15.949  0.00  0.00    +0.000 OA
ATOM     25  O   UNL     1       7.387   5.528  14.435  0.00  0.00    +0.000 OA
BRANCH  23  26
ATOM     26  C   UNL     1       7.258   5.919  17.030  0.00  0.00    +0.000 A 
ATOM     27  C   UNL     1       7.557   7.280  16.900  0.00  0.00    +0.000 A 
ATOM     28  C   UNL     1       8.107   7.973  17.981  0.00  0.00    +0.000 A 
ATOM     29  C   UNL     1       8.352   7.311  19.184  0.00  0.00    +0.000 A 
ATOM     30  C   UNL     1       8.033   5.960  19.303  0.00  0.00    +0.000 A 
ATOM     31  C   UNL     1       7.485   5.253  18.236  0.00  0.00    +0.000 A 
BRANCH  30  32
ATOM     32  O   UNL     1       8.268   5.279  20.460  0.00  0.00    +0.000 OA
ATOM     33  H   UNL     1       8.482   5.917  21.163  0.00  0.00    +0.000 HD
ENDBRANCH  30  32
ENDBRANCH  23  26
ENDBRANCH  21  23
ENDBRANCH   4  21
TORSDOF 9
ENDMDL
MODEL 6
REMARK VINA RESULT:      -8.2      0.546      1.054
REMARK  Name = 
REMARK  9 active torsions:
REMARK  status: ('A' for Active; 'I' for Inactive)
REMARK    1  A    between atoms: C_2  and  C_3
REMARK    2  A    between atoms: C_2  and  C_13
REMARK    3  A    between atoms: C_4  and  C_5
REMARK    4  A    between atoms: C_8  and  O_9
REMARK    5  A    between atoms: C_10  and  O_11
REMARK    6  A    between atoms: C_16  and  N_17
REMARK    7  A    between atoms: N_17  and  S_18
REMARK    8  A    between atoms: S_18  and  C_21
REMARK    9  A    between atoms: C_25  and  O_26
REMARK                            x       y       z     vdW  Elec       q    Type
REMARK                         _______ _______ _______ _____ _____    ______ ____
ROOT
ATOM      1  C   UNL     1       6.108   5.393  17.554  0.00  0.00    +0.000 A 
ATOM      2  C   UNL     1       5.364   4.437  16.850  0.00  0.00    +0.000 A 
ATOM      3  C   UNL     1       4.490   3.584  17.535  0.00  0.00    +0.000 A 
ATOM      4  C   UNL     1       4.354   3.698  18.920  0.00  0.00    +0.000 A 
ATOM      5  C   UNL     1       5.089   4.649  19.624  0.00  0.00    +0.000 A 
ATOM      6  C   UNL     1       5.960   5.500  18.943  0.00  0.00    +0.000 A 
ENDROOT
BRANCH   1   8
ATOM      7  O   UNL     1       7.614   5.928  15.811  0.00  0.00    +0.000 OA
ATOM      8  C   UNL     1       7.014   6.309  16.809  0.00  0.00    +0.000 C 
BRANCH   8   9
ATOM      9  C   UNL     1       7.181   7.679  17.370  0.00  0.00    +0.000 C 
ATOM     10  C   UNL     1       8.390   8.179  17.659  0.00  0.00    +0.000 C 
BRANCH  10  11
ATOM     11  C   UNL     1       8.595   9.520  18.236  0.00  0.00    +0.000 A 
ATOM     12  C   UNL     1       9.175   9.701  19.507  0.00  0.00    +0.000 A 
ATOM     13  C   UNL     1       9.397  10.980  20.028  0.00  0.00    +0.000 A 
ATOM     14  C   UNL     1       9.051  12.087  19.271  0.00  0.00    +0.000 A 
ATOM     15  C   UNL     1       8.489  11.922  18.007  0.00  0.00    +0.000 A 
ATOM     16  C   UNL     1       8.263  10.653  17.483  0.00  0.00    +0.000 A 
BRANCH  14  17
ATOM     17  O   UNL     1       9.251  13.363  19.720  0.00  0.00    +0.000 OA
ATOM     18  H   UNL     1       9.683  13.313  20.591  0.00  0.00    +0.000 HD
ENDBRANCH  14  17
BRANCH  15  19
ATOM     19  O   UNL     1       8.161  13.021  17.264  0.00  0.00    +0.000 OA
ATOM     20  H   UNL     1       8.389  12.775  16.346  0.00  0.00    +0.000 HD
ENDBRANCH  15  19
ENDBRANCH  10  11
ENDBRANCH   8   9
ENDBRANCH   1   8
BRANCH   4  21
ATOM     21  N   UNL     1       3.427   2.905  19.641  0.00  0.00    +0.000 N 
ATOM     22  H   UNL     1       3.730   2.516  20.534  0.00  0.00    +0.000 HD
BRANCH  21  23
ATOM     23  S   UNL     1       1.803   3.346  19.675  0.00  0.00    +0.000 S 
ATOM     24  O   UNL     1       1.215   2.791  18.476  0.00  0.00    +0.000 OA
ATOM     25  O   UNL     1       1.261   3.036  20.981  0.00  0.00    +0.000 OA
BRANCH  23  26
ATOM     26  C   UNL     1       1.825   5.110  19.472  0.00  0.00    +0.000 A 
ATOM     27  C   UNL     1       2.028   5.656  18.199  0.00  0.00    +0.000 A 
ATOM     28  C   UNL     1       2.180   7.037  18.054  0.00  0.00    +0.000 A 
ATOM     29  C   UNL     1       2.127   7.867  19.175  0.00  0.00    +0.000 A 
ATOM     30  C   UNL     1       1.907   7.310  20.433  0.00  0.00    +0.000 A 
ATOM     31  C   UNL     1       1.753   5.936  20.596  0.00  0.00    +0.000 A 
BRANCH  30  32
ATOM     32  O   UNL     1       1.859   8.090  21.550  0.00  0.00    +0.000 OA
ATOM     33  H   UNL     1       1.014   8.570  21.563  0.00  0.00    +0.000 HD
ENDBRANCH  30  32
ENDBRANCH  23  26
ENDBRANCH  21  23
ENDBRANCH   4  21
TORSDOF 9
ENDMDL
MODEL 7
REMARK VINA RESULT:      -8.1      3.795      8.184
REMARK  Name = 
REMARK  9 active torsions:
REMARK  status: ('A' for Active; 'I' for Inactive)
REMARK    1  A    between atoms: C_2  and  C_3
REMARK    2  A    between atoms: C_2  and  C_13
REMARK    3  A    between atoms: C_4  and  C_5
REMARK    4  A    between atoms: C_8  and  O_9
REMARK    5  A    between atoms: C_10  and  O_11
REMARK    6  A    between atoms: C_16  and  N_17
REMARK    7  A    between atoms: N_17  and  S_18
REMARK    8  A    between atoms: S_18  and  C_21
REMARK    9  A    between atoms: C_25  and  O_26
REMARK                            x       y       z     vdW  Elec       q    Type
REMARK                         _______ _______ _______ _____ _____    ______ ____
ROOT
ATOM      1  C   UNL     1       1.635   7.585  20.349  0.00  0.00    +0.000 A 
ATOM      2  C   UNL     1       2.262   7.763  19.109  0.00  0.00    +0.000 A 
ATOM      3  C   UNL     1       2.657   6.650  18.356  0.00  0.00    +0.000 A 
ATOM      4  C   UNL     1       2.412   5.363  18.840  0.00  0.00    +0.000 A 
ATOM      5  C   UNL     1       1.787   5.181  20.070  0.00  0.00    +0.000 A 
ATOM      6  C   UNL     1       1.392   6.288  20.822  0.00  0.00    +0.000 A 
ENDROOT
BRANCH   1   8
ATOM      7  O   UNL     1       1.830   9.155  22.106  0.00  0.00    +0.000 OA
ATOM      8  C   UNL     1       1.199   8.776  21.126  0.00  0.00    +0.000 C 
BRANCH   8   9
ATOM      9  C   UNL     1      -0.057   9.440  20.676  0.00  0.00    +0.000 C 
ATOM     10  C   UNL     1      -0.230   9.829  19.405  0.00  0.00    +0.000 C 
BRANCH  10  11
ATOM     11  C   UNL     1      -1.447  10.509  18.926  0.00  0.00    +0.000 A 
ATOM     12  C   UNL     1      -2.166  10.042  17.808  0.00  0.00    +0.000 A 
ATOM     13  C   UNL     1      -3.339  10.676  17.383  0.00  0.00    +0.000 A 
ATOM     14  C   UNL     1      -3.806  11.773  18.088  0.00  0.00    +0.000 A 
ATOM     15  C   UNL     1      -3.113  12.235  19.203  0.00  0.00    +0.000 A 
ATOM     16  C   UNL     1      -1.943  11.613  19.630  0.00  0.00    +0.000 A 
BRANCH  14  17
ATOM     17  O   UNL     1      -4.952  12.428  17.730  0.00  0.00    +0.000 OA
ATOM     18  H   UNL     1      -5.001  12.443  16.758  0.00  0.00    +0.000 HD
ENDBRANCH  14  17
BRANCH  15  19
ATOM     19  O   UNL     1      -3.588  13.313  19.897  0.00  0.00    +0.000 OA
ATOM     20  H   UNL     1      -3.738  12.976  20.802  0.00  0.00    +0.000 HD
ENDBRANCH  15  19
ENDBRANCH  10  11
ENDBRANCH   8   9
ENDBRANCH   1   8
BRANCH   4  21
ATOM     21  N   UNL     1       2.729   4.212  18.077  0.00  0.00    +0.000 N 
ATOM     22  H   UNL     1       2.618   4.269  17.064  0.00  0.00    +0.000 HD
BRANCH  21  23
ATOM     23  S   UNL     1       4.058   3.270  18.503  0.00  0.00    +0.000 S 
ATOM     24  O   UNL     1       3.993   3.118  19.940  0.00  0.00    +0.000 OA
ATOM     25  O   UNL     1       4.108   2.113  17.635  0.00  0.00    +0.000 OA
BRANCH  23  26
ATOM     26  C   UNL     1       5.457   4.306  18.155  0.00  0.00    +0.000 A 
ATOM     27  C   UNL     1       6.043   5.045  19.189  0.00  0.00    +0.000 A 
ATOM     28  C   UNL     1       7.056   5.962  18.896  0.00  0.00    +0.000 A 
ATOM     29  C   UNL     1       7.481   6.135  17.578  0.00  0.00    +0.000 A 
ATOM     30  C   UNL     1       6.900   5.379  16.562  0.00  0.00    +0.000 A 
ATOM     31  C   UNL     1       5.890   4.461  16.836  0.00  0.00    +0.000 A 
BRANCH  30  32
ATOM     32  O   UNL     1       7.285   5.530  15.263  0.00  0.00    +0.000 OA
ATOM     33  H   UNL     1       7.918   4.827  15.038  0.00  0.00    +0.000 HD
ENDBRANCH  30  32
ENDBRANCH  23  26
ENDBRANCH  21  23
ENDBRANCH   4  21
TORSDOF 9
ENDMDL
MODEL 8
REMARK VINA RESULT:      -8.1      3.433      7.204
REMARK  Name = 
REMARK  9 active torsions:
REMARK  status: ('A' for Active; 'I' for Inactive)
REMARK    1  A    between atoms: C_2  and  C_3
REMARK    2  A    between atoms: C_2  and  C_13
REMARK    3  A    between atoms: C_4  and  C_5
REMARK    4  A    between atoms: C_8  and  O_9
REMARK    5  A    between atoms: C_10  and  O_11
REMARK    6  A    between atoms: C_16  and  N_17
REMARK    7  A    between atoms: N_17  and  S_18
REMARK    8  A    between atoms: S_18  and  C_21
REMARK    9  A    between atoms: C_25  and  O_26
REMARK                            x       y       z     vdW  Elec       q    Type
REMARK                         _______ _______ _______ _____ _____    ______ ____
ROOT
ATOM      1  C   UNL     1       2.816   5.566  19.162  0.00  0.00    +0.000 A 
ATOM      2  C   UNL     1       3.237   6.723  18.493  0.00  0.00    +0.000 A 
ATOM      3  C   UNL     1       3.975   6.619  17.308  0.00  0.00    +0.000 A 
ATOM      4  C   UNL     1       4.278   5.358  16.788  0.00  0.00    +0.000 A 
ATOM      5  C   UNL     1       3.859   4.206  17.448  0.00  0.00    +0.000 A 
ATOM      6  C   UNL     1       3.124   4.308  18.629  0.00  0.00    +0.000 A 
ENDROOT
BRANCH   1   8
ATOM      7  O   UNL     1       1.607   4.699  21.000  0.00  0.00    +0.000 OA
ATOM      8  C   UNL     1       2.011   5.693  20.408  0.00  0.00    +0.000 C 
BRANCH   8   9
ATOM      9  C   UNL     1       1.693   7.077  20.855  0.00  0.00    +0.000 C 
ATOM     10  C   UNL     1       0.428   7.496  21.003  0.00  0.00    +0.000 C 
BRANCH  10  11
ATOM     11  C   UNL     1       0.072   8.863  21.422  0.00  0.00    +0.000 A 
ATOM     12  C   UNL     1      -0.502   9.128  22.681  0.00  0.00    +0.000 A 
ATOM     13  C   UNL     1      -0.803  10.435  23.081  0.00  0.00    +0.000 A 
ATOM     14  C   UNL     1      -0.517  11.486  22.225  0.00  0.00    +0.000 A 
ATOM     15  C   UNL     1       0.063  11.238  20.984  0.00  0.00    +0.000 A 
ATOM     16  C   UNL     1       0.363   9.942  20.577  0.00  0.00    +0.000 A 
BRANCH  14  17
ATOM     17  O   UNL     1      -0.778  12.785  22.562  0.00  0.00    +0.000 OA
ATOM     18  H   UNL     1       0.072  13.244  22.679  0.00  0.00    +0.000 HD
ENDBRANCH  14  17
BRANCH  15  19
ATOM     19  O   UNL     1       0.351  12.284  20.151  0.00  0.00    +0.000 OA
ATOM     20  H   UNL     1       1.069  12.768  20.604  0.00  0.00    +0.000 HD
ENDBRANCH  15  19
ENDBRANCH  10  11
ENDBRANCH   8   9
ENDBRANCH   1   8
BRANCH   4  21
ATOM     21  N   UNL     1       4.959   5.210  15.554  0.00  0.00    +0.000 N 
ATOM     22  H   UNL     1       4.651   5.786  14.771  0.00  0.00    +0.000 HD
BRANCH  21  23
ATOM     23  S   UNL     1       6.628   4.991  15.545  0.00  0.00    +0.000 S 
ATOM     24  O   UNL     1       6.846   3.590  15.830  0.00  0.00    +0.000 OA
ATOM     25  O   UNL     1       7.172   5.600  14.350  0.00  0.00    +0.000 OA
BRANCH  23  26
ATOM     26  C   UNL     1       7.196   5.902  16.959  0.00  0.00    +0.000 A 
ATOM     27  C   UNL     1       7.502   7.262  16.827  0.00  0.00    +0.000 A 
ATOM     28  C   UNL     1       8.076   7.948  17.899  0.00  0.00    +0.000 A 
ATOM     29  C   UNL     1       8.340   7.280  19.096  0.00  0.00    +0.000 A 
ATOM     30  C   UNL     1       8.015   5.931  19.217  0.00  0.00    +0.000 A 
ATOM     31  C   UNL     1       7.442   5.231  18.159  0.00  0.00    +0.000 A 
BRANCH  30  32
ATOM     32  O   UNL     1       8.267   5.246  20.368  0.00  0.00    +0.000 OA
ATOM     33  H   UNL     1       8.431   4.312  20.149  0.00  0.00    +0.000 HD
ENDBRANCH  30  32
ENDBRANCH  23  26
ENDBRANCH  21  23
ENDBRANCH   4  21
TORSDOF 9
ENDMDL
MODEL 9
REMARK VINA RESULT:      -8.1      4.770      9.070
REMARK  Name = 
REMARK  9 active torsions:
REMARK  status: ('A' for Active; 'I' for Inactive)
REMARK    1  A    between atoms: C_2  and  C_3
REMARK    2  A    between atoms: C_2  and  C_13
REMARK    3  A    between atoms: C_4  and  C_5
REMARK    4  A    between atoms: C_8  and  O_9
REMARK    5  A    between atoms: C_10  and  O_11
REMARK    6  A    between atoms: C_16  and  N_17
REMARK    7  A    between atoms: N_17  and  S_18
REMARK    8  A    between atoms: S_18  and  C_21
REMARK    9  A    between atoms: C_25  and  O_26
REMARK                            x       y       z     vdW  Elec       q    Type
REMARK                         _______ _______ _______ _____ _____    ______ ____
ROOT
ATOM      1  C   UNL     1       1.464   9.183  18.952  0.00  0.00    +0.000 A 
ATOM      2  C   UNL     1       1.265   8.571  20.196  0.00  0.00    +0.000 A 
ATOM      3  C   UNL     1       1.881   7.346  20.483  0.00  0.00    +0.000 A 
ATOM      4  C   UNL     1       2.704   6.744  19.529  0.00  0.00    +0.000 A 
ATOM      5  C   UNL     1       2.907   7.350  18.292  0.00  0.00    +0.000 A 
ATOM      6  C   UNL     1       2.295   8.570  18.005  0.00  0.00    +0.000 A 
ENDROOT
BRANCH   1   8
ATOM      7  O   UNL     1       1.481  11.530  18.666  0.00  0.00    +0.000 OA
ATOM      8  C   UNL     1       0.823  10.496  18.671  0.00  0.00    +0.000 C 
BRANCH   8   9
ATOM      9  C   UNL     1      -0.650  10.482  18.446  0.00  0.00    +0.000 C 
ATOM     10  C   UNL     1      -1.341  11.612  18.240  0.00  0.00    +0.000 C 
BRANCH  10  11
ATOM     11  C   UNL     1      -2.800  11.642  18.037  0.00  0.00    +0.000 A 
ATOM     12  C   UNL     1      -3.384  11.298  16.802  0.00  0.00    +0.000 A 
ATOM     13  C   UNL     1      -4.773  11.297  16.631  0.00  0.00    +0.000 A 
ATOM     14  C   UNL     1      -5.585  11.627  17.704  0.00  0.00    +0.000 A 
ATOM     15  C   UNL     1      -5.020  11.956  18.933  0.00  0.00    +0.000 A 
ATOM     16  C   UNL     1      -3.641  11.963  19.110  0.00  0.00    +0.000 A 
BRANCH  14  17
ATOM     17  O   UNL     1      -6.949  11.634  17.603  0.00  0.00    +0.000 OA
ATOM     18  H   UNL     1      -7.184  11.907  16.700  0.00  0.00    +0.000 HD
ENDBRANCH  14  17
BRANCH  15  19
ATOM     19  O   UNL     1      -5.832  12.271  19.987  0.00  0.00    +0.000 OA
ATOM     20  H   UNL     1      -5.403  11.854  20.761  0.00  0.00    +0.000 HD
ENDBRANCH  15  19
ENDBRANCH  10  11
ENDBRANCH   8   9
ENDBRANCH   1   8
BRANCH   4  21
ATOM     21  N   UNL     1       3.403   5.544  19.806  0.00  0.00    +0.000 N 
ATOM     22  H   UNL     1       3.429   5.222  20.774  0.00  0.00    +0.000 HD
BRANCH  21  23
ATOM     23  S   UNL     1       3.305   4.255  18.728  0.00  0.00    +0.000 S 
ATOM     24  O   UNL     1       3.276   3.058  19.540  0.00  0.00    +0.000 OA
ATOM     25  O   UNL     1       2.256   4.527  17.768  0.00  0.00    +0.000 OA
BRANCH  23  26
ATOM     26  C   UNL     1       4.868   4.270  17.884  0.00  0.00    +0.000 A 
ATOM     27  C   UNL     1       5.983   4.843  18.507  0.00  0.00    +0.000 A 
ATOM     28  C   UNL     1       7.177   4.979  17.796  0.00  0.00    +0.000 A 
ATOM     29  C   UNL     1       7.258   4.540  16.474  0.00  0.00    +0.000 A 
ATOM     30  C   UNL     1       6.144   3.956  15.874  0.00  0.00    +0.000 A 
ATOM     31  C   UNL     1       4.946   3.813  16.567  0.00  0.00    +0.000 A 
BRANCH  30  32
ATOM     32  O   UNL     1       6.185   3.526  14.581  0.00  0.00    +0.000 OA
ATOM     33  H   UNL     1       6.303   2.561  14.574  0.00  0.00    +0.000 HD
ENDBRANCH  30  32
ENDBRANCH  23  26
ENDBRANCH  21  23
ENDBRANCH   4  21
TORSDOF 9
ENDMDL
