MODEL 1
REMARK VINA RESULT:      -6.6      0.000      0.000
REMARK  Name = 
REMARK  3 active torsions:
REMARK  status: ('A' for Active; 'I' for Inactive)
REMARK    1  A    between atoms: C_1  and  S_2
REMARK    2  A    between atoms: S_2  and  N_5
REMARK    3  A    between atoms: N_12  and  C_13
REMARK                            x       y       z     vdW  Elec       q    Type
REMARK                         _______ _______ _______ _____ _____    ______ ____
ROOT
ATOM      1  N   UNL     1       3.447   3.447  19.388  0.00  0.00    +0.000 NA
ATOM      2  C   UNL     1       3.729   2.645  18.174  0.00  0.00    +0.000 C 
ATOM      3  C   UNL     1       4.028   3.534  16.965  0.00  0.00    +0.000 C 
ATOM      4  C   UNL     1       4.990   4.701  17.280  0.00  0.00    +0.000 C 
ATOM      5  C   UNL     1       4.757   5.372  18.636  0.00  0.00    +0.000 C 
ATOM      6  C   UNL     1       4.580   4.331  19.729  0.00  0.00    +0.000 C 
ATOM      7  C   UNL     1       5.050   5.756  16.150  0.00  0.00    +0.000 C 
ATOM      8  N   UNL     1       6.295   5.186  15.722  0.00  0.00    +0.000 N 
ATOM      9  C   UNL     1       6.461   4.404  16.920  0.00  0.00    +0.000 C 
ENDROOT
BRANCH   8  10
ATOM     10  C   UNL     1       6.617   4.813  14.397  0.00  0.00    +0.000 A 
ATOM     11  C   UNL     1       7.633   5.448  13.680  0.00  0.00    +0.000 A 
ATOM     12  C   UNL     1       7.864   5.068  12.365  0.00  0.00    +0.000 A 
ATOM     13  N   UNL     1       7.160   4.111  11.722  0.00  0.00    +0.000 NA
ATOM     14  C   UNL     1       6.206   3.491  12.442  0.00  0.00    +0.000 A 
ATOM     15  C   UNL     1       5.916   3.789  13.761  0.00  0.00    +0.000 A 
ENDBRANCH   8  10
BRANCH   1  17
ATOM     16  C   UNL     1       1.266   2.948  20.904  0.00  0.00    +0.000 C 
ATOM     17  S   UNL     1       1.880   4.042  19.644  0.00  0.00    +0.000 S 
ATOM     18  O   UNL     1       1.105   3.821  18.434  0.00  0.00    +0.000 OA
ATOM     19  O   UNL     1       1.982   5.358  20.233  0.00  0.00    +0.000 OA
ENDBRANCH   1  17
TORSDOF 2
ENDMDL
MODEL 2
REMARK VINA RESULT:      -6.6      0.626      1.240
REMARK  Name = 
REMARK  3 active torsions:
REMARK  status: ('A' for Active; 'I' for Inactive)
REMARK    1  A    between atoms: C_1  and  S_2
REMARK    2  A    between atoms: S_2  and  N_5
REMARK    3  A    between atoms: N_12  and  C_13
REMARK                            x       y       z     vdW  Elec       q    Type
REMARK                         _______ _______ _______ _____ _____    ______ ____
ROOT
ATOM      1  N   UNL     1       3.204   2.768  19.350  0.00  0.00    +0.000 NA
ATOM      2  C   UNL     1       3.522   2.096  18.069  0.00  0.00    +0.000 C 
ATOM      3  C   UNL     1       3.815   3.105  16.957  0.00  0.00    +0.000 C 
ATOM      4  C   UNL     1       4.742   4.259  17.399  0.00  0.00    +0.000 C 
ATOM      5  C   UNL     1       4.473   4.789  18.809  0.00  0.00    +0.000 C 
ATOM      6  C   UNL     1       4.309   3.642  19.793  0.00  0.00    +0.000 C 
ATOM      7  C   UNL     1       4.790   5.421  16.377  0.00  0.00    +0.000 C 
ATOM      8  N   UNL     1       6.055   4.925  15.916  0.00  0.00    +0.000 N 
ATOM      9  C   UNL     1       6.225   4.034  17.034  0.00  0.00    +0.000 C 
ENDROOT
BRANCH   8  10
ATOM     10  C   UNL     1       6.404   4.691  14.567  0.00  0.00    +0.000 A 
ATOM     11  C   UNL     1       5.732   3.748  13.786  0.00  0.00    +0.000 A 
ATOM     12  C   UNL     1       6.157   3.531  12.482  0.00  0.00    +0.000 A 
ATOM     13  N   UNL     1       7.194   4.181  11.910  0.00  0.00    +0.000 NA
ATOM     14  C   UNL     1       7.807   5.106  12.670  0.00  0.00    +0.000 A 
ATOM     15  C   UNL     1       7.444   5.403  13.971  0.00  0.00    +0.000 A 
ENDBRANCH   8  10
BRANCH   1  17
ATOM     16  C   UNL     1       1.401   2.906  21.359  0.00  0.00    +0.000 C 
ATOM     17  S   UNL     1       1.619   3.297  19.638  0.00  0.00    +0.000 S 
ATOM     18  O   UNL     1       0.713   2.464  18.865  0.00  0.00    +0.000 OA
ATOM     19  O   UNL     1       1.590   4.737  19.520  0.00  0.00    +0.000 OA
ENDBRANCH   1  17
TORSDOF 2
ENDMDL
MODEL 3
REMARK VINA RESULT:      -6.3      0.630      1.242
REMARK  Name = 
REMARK  3 active torsions:
REMARK  status: ('A' for Active; 'I' for Inactive)
REMARK    1  A    between atoms: C_1  and  S_2
REMARK    2  A    between atoms: S_2  and  N_5
REMARK    3  A    between atoms: N_12  and  C_13
REMARK                            x       y       z     vdW  Elec       q    Type
REMARK                         _______ _______ _______ _____ _____    ______ ____
ROOT
ATOM      1  N   UNL     1       3.823   3.999  19.423  0.00  0.00    +0.000 NA
ATOM      2  C   UNL     1       3.914   3.111  18.241  0.00  0.00    +0.000 C 
ATOM      3  C   UNL     1       4.186   3.900  16.958  0.00  0.00    +0.000 C 
ATOM      4  C   UNL     1       5.280   4.979  17.118  0.00  0.00    +0.000 C 
ATOM      5  C   UNL     1       5.236   5.741  18.444  0.00  0.00    +0.000 C 
ATOM      6  C   UNL     1       5.061   4.782  19.611  0.00  0.00    +0.000 C 
ATOM      7  C   UNL     1       5.336   5.962  15.924  0.00  0.00    +0.000 C 
ATOM      8  N   UNL     1       6.478   5.248  15.427  0.00  0.00    +0.000 N 
ATOM      9  C   UNL     1       6.676   4.517  16.652  0.00  0.00    +0.000 C 
ENDROOT
BRANCH   8  10
ATOM     10  C   UNL     1       6.640   4.776  14.105  0.00  0.00    +0.000 A 
ATOM     11  C   UNL     1       5.861   3.735  13.594  0.00  0.00    +0.000 A 
ATOM     12  C   UNL     1       6.105   3.284  12.304  0.00  0.00    +0.000 A 
ATOM     13  N   UNL     1       7.062   3.793  11.497  0.00  0.00    +0.000 NA
ATOM     14  C   UNL     1       7.780   4.815  11.998  0.00  0.00    +0.000 A 
ATOM     15  C   UNL     1       7.597   5.341  13.264  0.00  0.00    +0.000 A 
ENDBRANCH   8  10
BRANCH   1  17
ATOM     16  C   UNL     1       1.979   4.129  21.394  0.00  0.00    +0.000 C 
ATOM     17  S   UNL     1       2.350   4.762  19.775  0.00  0.00    +0.000 S 
ATOM     18  O   UNL     1       1.345   4.261  18.851  0.00  0.00    +0.000 OA
ATOM     19  O   UNL     1       2.592   6.180  19.915  0.00  0.00    +0.000 OA
ENDBRANCH   1  17
TORSDOF 2
ENDMDL
MODEL 4
REMARK VINA RESULT:      -6.1      0.875      1.132
REMARK  Name = 
REMARK  3 active torsions:
REMARK  status: ('A' for Active; 'I' for Inactive)
REMARK    1  A    between atoms: C_1  and  S_2
REMARK    2  A    between atoms: S_2  and  N_5
REMARK    3  A    between atoms: N_12  and  C_13
REMARK                            x       y       z     vdW  Elec       q    Type
REMARK                         _______ _______ _______ _____ _____    ______ ____
ROOT
ATOM      1  N   UNL     1       3.341   3.349  19.370  0.00  0.00    +0.000 NA
ATOM      2  C   UNL     1       3.656   2.566  18.151  0.00  0.00    +0.000 C 
ATOM      3  C   UNL     1       3.977   3.475  16.963  0.00  0.00    +0.000 C 
ATOM      4  C   UNL     1       4.923   4.644  17.316  0.00  0.00    +0.000 C 
ATOM      5  C   UNL     1       4.653   5.294  18.675  0.00  0.00    +0.000 C 
ATOM      6  C   UNL     1       4.460   4.236  19.749  0.00  0.00    +0.000 C 
ATOM      7  C   UNL     1       5.000   5.716  16.202  0.00  0.00    +0.000 C 
ATOM      8  N   UNL     1       6.259   5.160  15.795  0.00  0.00    +0.000 N 
ATOM      9  C   UNL     1       6.403   4.363  16.985  0.00  0.00    +0.000 C 
ENDROOT
BRANCH   8  10
ATOM     10  C   UNL     1       6.613   4.809  14.473  0.00  0.00    +0.000 A 
ATOM     11  C   UNL     1       7.634   5.468  13.785  0.00  0.00    +0.000 A 
ATOM     12  C   UNL     1       7.899   5.108  12.470  0.00  0.00    +0.000 A 
ATOM     13  N   UNL     1       7.222   4.149  11.801  0.00  0.00    +0.000 NA
ATOM     14  C   UNL     1       6.262   3.507  12.493  0.00  0.00    +0.000 A 
ATOM     15  C   UNL     1       5.941   3.784  13.809  0.00  0.00    +0.000 A 
ENDBRANCH   8  10
BRANCH   1  17
ATOM     16  C   UNL     1       1.259   4.303  17.935  0.00  0.00    +0.000 C 
ATOM     17  S   UNL     1       1.765   3.929  19.599  0.00  0.00    +0.000 S 
ATOM     18  O   UNL     1       1.842   5.177  20.340  0.00  0.00    +0.000 OA
ATOM     19  O   UNL     1       0.939   2.837  20.061  0.00  0.00    +0.000 OA
ENDBRANCH   1  17
TORSDOF 2
ENDMDL
MODEL 5
REMARK VINA RESULT:      -6.0      0.942      1.590
REMARK  Name = 
REMARK  3 active torsions:
REMARK  status: ('A' for Active; 'I' for Inactive)
REMARK    1  A    between atoms: C_1  and  S_2
REMARK    2  A    between atoms: S_2  and  N_5
REMARK    3  A    between atoms: N_12  and  C_13
REMARK                            x       y       z     vdW  Elec       q    Type
REMARK                         _______ _______ _______ _____ _____    ______ ____
ROOT
ATOM      1  N   UNL     1       3.626   3.751  19.539  0.00  0.00    +0.000 NA
ATOM      2  C   UNL     1       3.804   2.886  18.349  0.00  0.00    +0.000 C 
ATOM      3  C   UNL     1       4.055   3.708  17.083  0.00  0.00    +0.000 C 
ATOM      4  C   UNL     1       5.072   4.854  17.283  0.00  0.00    +0.000 C 
ATOM      5  C   UNL     1       4.947   5.593  18.617  0.00  0.00    +0.000 C 
ATOM      6  C   UNL     1       4.806   4.609  19.767  0.00  0.00    +0.000 C 
ATOM      7  C   UNL     1       5.094   5.855  16.103  0.00  0.00    +0.000 C 
ATOM      8  N   UNL     1       6.291   5.222  15.626  0.00  0.00    +0.000 N 
ATOM      9  C   UNL     1       6.506   4.489  16.846  0.00  0.00    +0.000 C 
ENDROOT
BRANCH   8  10
ATOM     10  C   UNL     1       6.515   4.779  14.303  0.00  0.00    +0.000 A 
ATOM     11  C   UNL     1       5.725   3.789  13.714  0.00  0.00    +0.000 A 
ATOM     12  C   UNL     1       6.030   3.364  12.428  0.00  0.00    +0.000 A 
ATOM     13  N   UNL     1       7.057   3.850  11.698  0.00  0.00    +0.000 NA
ATOM     14  C   UNL     1       7.786   4.824  12.273  0.00  0.00    +0.000 A 
ATOM     15  C   UNL     1       7.548   5.324  13.540  0.00  0.00    +0.000 A 
ENDBRANCH   8  10
BRANCH   1  17
ATOM     16  C   UNL     1       2.442   6.156  19.874  0.00  0.00    +0.000 C 
ATOM     17  S   UNL     1       2.099   4.412  19.863  0.00  0.00    +0.000 S 
ATOM     18  O   UNL     1       1.708   4.018  21.207  0.00  0.00    +0.000 OA
ATOM     19  O   UNL     1       1.239   4.152  18.731  0.00  0.00    +0.000 OA
ENDBRANCH   1  17
TORSDOF 2
ENDMDL
MODEL 6
REMARK VINA RESULT:      -6.0      4.487      7.209
REMARK  Name = 
REMARK  3 active torsions:
REMARK  status: ('A' for Active; 'I' for Inactive)
REMARK    1  A    between atoms: C_1  and  S_2
REMARK    2  A    between atoms: S_2  and  N_5
REMARK    3  A    between atoms: N_12  and  C_13
REMARK                            x       y       z     vdW  Elec       q    Type
REMARK                         _______ _______ _______ _____ _____    ______ ____
ROOT
ATOM      1  N   UNL     1       5.972   4.263  17.753  0.00  0.00    +0.000 NA
ATOM      2  C   UNL     1       5.472   4.663  19.090  0.00  0.00    +0.000 C 
ATOM      3  C   UNL     1       4.853   6.061  19.068  0.00  0.00    +0.000 C 
ATOM      4  C   UNL     1       3.918   6.304  17.862  0.00  0.00    +0.000 C 
ATOM      5  C   UNL     1       4.412   5.707  16.543  0.00  0.00    +0.000 C 
ATOM      6  C   UNL     1       4.894   4.280  16.744  0.00  0.00    +0.000 C 
ATOM      7  C   UNL     1       3.540   7.794  17.682  0.00  0.00    +0.000 C 
ATOM      8  N   UNL     1       2.267   7.514  18.283  0.00  0.00    +0.000 N 
ATOM      9  C   UNL     1       2.425   6.086  18.184  0.00  0.00    +0.000 C 
ENDROOT
BRANCH   8  10
ATOM     10  C   UNL     1       1.677   8.246  19.338  0.00  0.00    +0.000 A 
ATOM     11  C   UNL     1       1.731   7.803  20.661  0.00  0.00    +0.000 A 
ATOM     12  C   UNL     1       1.088   8.543  21.644  0.00  0.00    +0.000 A 
ATOM     13  N   UNL     1       0.402   9.682  21.401  0.00  0.00    +0.000 NA
ATOM     14  C   UNL     1       0.389  10.106  20.124  0.00  0.00    +0.000 A 
ATOM     15  C   UNL     1       1.014   9.446  19.082  0.00  0.00    +0.000 A 
ENDBRANCH   8  10
BRANCH   1  17
ATOM     16  C   UNL     1       7.578   6.434  17.862  0.00  0.00    +0.000 C 
ATOM     17  S   UNL     1       7.517   4.761  17.263  0.00  0.00    +0.000 S 
ATOM     18  O   UNL     1       7.544   4.798  15.810  0.00  0.00    +0.000 OA
ATOM     19  O   UNL     1       8.498   4.004  18.007  0.00  0.00    +0.000 OA
ENDBRANCH   1  17
TORSDOF 2
ENDMDL
MODEL 7
REMARK VINA RESULT:      -5.8      4.369      7.224
REMARK  Name = 
REMARK  3 active torsions:
REMARK  status: ('A' for Active; 'I' for Inactive)
REMARK    1  A    between atoms: C_1  and  S_2
REMARK    2  A    between atoms: S_2  and  N_5
REMARK    3  A    between atoms: N_12  and  C_13
REMARK                            x       y       z     vdW  Elec       q    Type
REMARK                         _______ _______ _______ _____ _____    ______ ____
ROOT
ATOM      1  N   UNL     1       6.581   5.467  16.788  0.00  0.00    +0.000 NA
ATOM      2  C   UNL     1       6.334   6.815  17.353  0.00  0.00    +0.000 C 
ATOM      3  C   UNL     1       4.839   7.111  17.480  0.00  0.00    +0.000 C 
ATOM      4  C   UNL     1       4.024   5.938  18.069  0.00  0.00    +0.000 C 
ATOM      5  C   UNL     1       4.452   4.553  17.576  0.00  0.00    +0.000 C 
ATOM      6  C   UNL     1       5.965   4.411  17.616  0.00  0.00    +0.000 C 
ATOM      7  C   UNL     1       2.496   6.126  17.914  0.00  0.00    +0.000 C 
ATOM      8  N   UNL     1       2.435   6.521  19.293  0.00  0.00    +0.000 N 
ATOM      9  C   UNL     1       3.768   6.064  19.585  0.00  0.00    +0.000 C 
ENDROOT
BRANCH   8  10
ATOM     10  C   UNL     1       1.792   7.679  19.787  0.00  0.00    +0.000 A 
ATOM     11  C   UNL     1       1.643   8.828  19.008  0.00  0.00    +0.000 A 
ATOM     12  C   UNL     1       1.046   9.948  19.571  0.00  0.00    +0.000 A 
ATOM     13  N   UNL     1       0.596  10.002  20.844  0.00  0.00    +0.000 NA
ATOM     14  C   UNL     1       0.723   8.875  21.567  0.00  0.00    +0.000 A 
ATOM     15  C   UNL     1       1.287   7.707  21.087  0.00  0.00    +0.000 A 
ENDBRANCH   8  10
BRANCH   1  17
ATOM     16  C   UNL     1       6.201   3.524  14.948  0.00  0.00    +0.000 C 
ATOM     17  S   UNL     1       6.564   5.257  15.105  0.00  0.00    +0.000 S 
ATOM     18  O   UNL     1       7.909   5.486  14.604  0.00  0.00    +0.000 OA
ATOM     19  O   UNL     1       5.435   5.981  14.566  0.00  0.00    +0.000 OA
ENDBRANCH   1  17
TORSDOF 2
ENDMDL
MODEL 8
REMARK VINA RESULT:      -5.8      4.490      7.313
REMARK  Name = 
REMARK  3 active torsions:
REMARK  status: ('A' for Active; 'I' for Inactive)
REMARK    1  A    between atoms: C_1  and  S_2
REMARK    2  A    between atoms: S_2  and  N_5
REMARK    3  A    between atoms: N_12  and  C_13
REMARK                            x       y       z     vdW  Elec       q    Type
REMARK                         _______ _______ _______ _____ _____    ______ ____
ROOT
ATOM      1  N   UNL     1       5.799   4.334  18.022  0.00  0.00    +0.000 NA
ATOM      2  C   UNL     1       5.739   5.185  19.234  0.00  0.00    +0.000 C 
ATOM      3  C   UNL     1       4.833   6.400  19.029  0.00  0.00    +0.000 C 
ATOM      4  C   UNL     1       3.494   6.062  18.336  0.00  0.00    +0.000 C 
ATOM      5  C   UNL     1       3.601   5.036  17.205  0.00  0.00    +0.000 C 
ATOM      6  C   UNL     1       4.458   3.854  17.630  0.00  0.00    +0.000 C 
ATOM      7  C   UNL     1       2.724   7.319  17.864  0.00  0.00    +0.000 C 
ATOM      8  N   UNL     1       1.868   7.189  19.009  0.00  0.00    +0.000 N 
ATOM      9  C   UNL     1       2.323   5.859  19.321  0.00  0.00    +0.000 C 
ENDROOT
BRANCH   8  10
ATOM     10  C   UNL     1       1.544   8.224  19.914  0.00  0.00    +0.000 A 
ATOM     11  C   UNL     1       1.143   9.488  19.475  0.00  0.00    +0.000 A 
ATOM     12  C   UNL     1       0.887  10.476  20.415  0.00  0.00    +0.000 A 
ATOM     13  N   UNL     1       1.004  10.294  21.749  0.00  0.00    +0.000 NA
ATOM     14  C   UNL     1       1.362   9.061  22.152  0.00  0.00    +0.000 A 
ATOM     15  C   UNL     1       1.620   8.011  21.290  0.00  0.00    +0.000 A 
ENDBRANCH   8  10
BRANCH   1  17
ATOM     16  C   UNL     1       6.254   3.785  15.415  0.00  0.00    +0.000 C 
ATOM     17  S   UNL     1       6.886   4.730  16.782  0.00  0.00    +0.000 S 
ATOM     18  O   UNL     1       8.192   4.199  17.135  0.00  0.00    +0.000 OA
ATOM     19  O   UNL     1       6.713   6.126  16.453  0.00  0.00    +0.000 OA
ENDBRANCH   1  17
TORSDOF 2
ENDMDL
MODEL 9
REMARK VINA RESULT:      -5.8      4.421      7.283
REMARK  Name = 
REMARK  3 active torsions:
REMARK  status: ('A' for Active; 'I' for Inactive)
REMARK    1  A    between atoms: C_1  and  S_2
REMARK    2  A    between atoms: S_2  and  N_5
REMARK    3  A    between atoms: N_12  and  C_13
REMARK                            x       y       z     vdW  Elec       q    Type
REMARK                         _______ _______ _______ _____ _____    ______ ____
ROOT
ATOM      1  N   UNL     1       6.389   5.255  16.881  0.00  0.00    +0.000 NA
ATOM      2  C   UNL     1       6.297   6.559  17.579  0.00  0.00    +0.000 C 
ATOM      3  C   UNL     1       4.854   7.059  17.657  0.00  0.00    +0.000 C 
ATOM      4  C   UNL     1       3.842   5.966  18.067  0.00  0.00    +0.000 C 
ATOM      5  C   UNL     1       4.102   4.591  17.446  0.00  0.00    +0.000 C 
ATOM      6  C   UNL     1       5.573   4.222  17.551  0.00  0.00    +0.000 C 
ATOM      7  C   UNL     1       2.370   6.394  17.853  0.00  0.00    +0.000 C 
ATOM      8  N   UNL     1       2.271   6.650  19.261  0.00  0.00    +0.000 N 
ATOM      9  C   UNL     1       3.502   5.972  19.572  0.00  0.00    +0.000 C 
ENDROOT
BRANCH   8  10
ATOM     10  C   UNL     1       1.766   7.833  19.847  0.00  0.00    +0.000 A 
ATOM     11  C   UNL     1       1.472   7.912  21.210  0.00  0.00    +0.000 A 
ATOM     12  C   UNL     1       0.932   9.088  21.713  0.00  0.00    +0.000 A 
ATOM     13  N   UNL     1       0.666  10.177  20.959  0.00  0.00    +0.000 NA
ATOM     14  C   UNL     1       0.984  10.090  19.655  0.00  0.00    +0.000 A 
ATOM     15  C   UNL     1       1.542   8.968  19.069  0.00  0.00    +0.000 A 
ENDBRANCH   8  10
BRANCH   1  17
ATOM     16  C   UNL     1       6.023   3.538  14.825  0.00  0.00    +0.000 C 
ATOM     17  S   UNL     1       6.459   5.224  15.187  0.00  0.00    +0.000 S 
ATOM     18  O   UNL     1       7.841   5.431  14.784  0.00  0.00    +0.000 OA
ATOM     19  O   UNL     1       5.399   6.059  14.671  0.00  0.00    +0.000 OA
ENDBRANCH   1  17
TORSDOF 2
ENDMDL
