MODEL 1
REMARK VINA RESULT:      -7.4      0.000      0.000
REMARK  Name = 
REMARK  9 active torsions:
REMARK  status: ('A' for Active; 'I' for Inactive)
REMARK    1  A    between atoms: C_1  and  C_2
REMARK    2  A    between atoms: C_2  and  C_3
REMARK    3  A    between atoms: C_3  and  C_4
REMARK    4  A    between atoms: N_6  and  C_7
REMARK    5  A    between atoms: C_7  and  C_8
REMARK    6  A    between atoms: N_10  and  C_11
REMARK    7  A    between atoms: N_10  and  C_12
REMARK    8  A    between atoms: C_18  and  C_19
REMARK    9  A    between atoms: C_19  and  C_21
REMARK                            x       y       z     vdW  Elec       q    Type
REMARK                         _______ _______ _______ _____ _____    ______ ____
ROOT
ATOM      1  C   UNL     1       6.653   5.569  16.553  0.00  0.00    +0.000 A 
ATOM      2  C   UNL     1       7.468   5.341  15.428  0.00  0.00    +0.000 A 
ATOM      3  C   UNL     1       6.982   4.676  14.301  0.00  0.00    +0.000 A 
ATOM      4  C   UNL     1       5.667   4.231  14.284  0.00  0.00    +0.000 A 
ATOM      5 CL   UNL     1       5.062   3.404  12.903  0.00  0.00    +0.000 Cl
ATOM      6  C   UNL     1       4.840   4.453  15.380  0.00  0.00    +0.000 A 
ATOM      7  C   UNL     1       5.316   5.129  16.526  0.00  0.00    +0.000 A 
ENDROOT
BRANCH   1  10
ATOM      8  C   UNL     1       7.459   7.576  17.661  0.00  0.00    +0.000 C 
ATOM      9  O   UNL     1       6.960   8.300  16.785  0.00  0.00    +0.000 OA
ATOM     10  N   UNL     1       7.257   6.191  17.694  0.00  0.00    +0.000 N 
ATOM     11  C   UNL     1       8.045   5.287  18.538  0.00  0.00    +0.000 C 
BRANCH   8  12
ATOM     12  C   UNL     1       8.359   8.234  18.712  0.00  0.00    +0.000 C 
BRANCH  12  15
ATOM     13  C   UNL     1       9.256  10.487  19.153  0.00  0.00    +0.000 C 
ATOM     14  O   UNL     1       9.325  10.278  20.359  0.00  0.00    +0.000 OA
ATOM     15  N   UNL     1       8.764   9.557  18.271  0.00  0.00    +0.000 N 
ATOM     16  H   UNL     1       8.807   9.729  17.272  0.00  0.00    +0.000 HD
BRANCH  13  17
ATOM     17  C   UNL     1       9.667  11.797  18.510  0.00  0.00    +0.000 C 
BRANCH  17  19
ATOM     18  C   UNL     1      11.646  12.984  17.472  0.00  0.00    +0.000 C 
ATOM     19  C   UNL     1      10.995  11.645  17.775  0.00  0.00    +0.000 C 
ENDBRANCH  17  19
ENDBRANCH  13  17
ENDBRANCH  12  15
ENDBRANCH   8  12
ENDBRANCH   1  10
BRANCH   7  20
ATOM     20  C   UNL     1       4.302   5.311  17.605  0.00  0.00    +0.000 C 
ATOM     21  O   UNL     1       3.975   6.468  17.863  0.00  0.00    +0.000 OA
BRANCH  20  22
ATOM     22  C   UNL     1       3.764   4.209  18.449  0.00  0.00    +0.000 A 
ATOM     23  C   UNL     1       4.623   3.509  19.313  0.00  0.00    +0.000 A 
ATOM     24  C   UNL     1       4.131   2.512  20.162  0.00  0.00    +0.000 A 
ATOM     25  C   UNL     1       2.767   2.240  20.202  0.00  0.00    +0.000 A 
ATOM     26  C   UNL     1       1.898   2.946  19.373  0.00  0.00    +0.000 A 
ATOM     27  C   UNL     1       2.388   3.916  18.486  0.00  0.00    +0.000 A 
ATOM     28 CL   UNL     1       1.213   4.651  17.450  0.00  0.00    +0.000 Cl
ENDBRANCH  20  22
ENDBRANCH   7  20
TORSDOF 7
ENDMDL
MODEL 2
REMARK VINA RESULT:      -7.3      2.973      4.386
REMARK  Name = 
REMARK  9 active torsions:
REMARK  status: ('A' for Active; 'I' for Inactive)
REMARK    1  A    between atoms: C_1  and  C_2
REMARK    2  A    between atoms: C_2  and  C_3
REMARK    3  A    between atoms: C_3  and  C_4
REMARK    4  A    between atoms: N_6  and  C_7
REMARK    5  A    between atoms: C_7  and  C_8
REMARK    6  A    between atoms: N_10  and  C_11
REMARK    7  A    between atoms: N_10  and  C_12
REMARK    8  A    between atoms: C_18  and  C_19
REMARK    9  A    between atoms: C_19  and  C_21
REMARK                            x       y       z     vdW  Elec       q    Type
REMARK                         _______ _______ _______ _____ _____    ______ ____
ROOT
ATOM      1  C   UNL     1       4.113   4.778  18.251  0.00  0.00    +0.000 A 
ATOM      2  C   UNL     1       4.115   3.369  18.258  0.00  0.00    +0.000 A 
ATOM      3  C   UNL     1       2.934   2.642  18.418  0.00  0.00    +0.000 A 
ATOM      4  C   UNL     1       1.731   3.316  18.570  0.00  0.00    +0.000 A 
ATOM      5 CL   UNL     1       0.272   2.429  18.774  0.00  0.00    +0.000 Cl
ATOM      6  C   UNL     1       1.703   4.708  18.557  0.00  0.00    +0.000 A 
ATOM      7  C   UNL     1       2.889   5.457  18.392  0.00  0.00    +0.000 A 
ENDROOT
BRANCH   1  10
ATOM      8  C   UNL     1       5.896   5.703  16.885  0.00  0.00    +0.000 C 
ATOM      9  O   UNL     1       5.221   5.569  15.853  0.00  0.00    +0.000 OA
ATOM     10  N   UNL     1       5.380   5.441  18.159  0.00  0.00    +0.000 N 
ATOM     11  C   UNL     1       6.220   5.324  19.355  0.00  0.00    +0.000 C 
BRANCH   8  12
ATOM     12  C   UNL     1       7.360   6.132  16.735  0.00  0.00    +0.000 C 
BRANCH  12  15
ATOM     13  C   UNL     1       8.115   8.145  17.941  0.00  0.00    +0.000 C 
ATOM     14  O   UNL     1       8.562   7.482  18.870  0.00  0.00    +0.000 OA
ATOM     15  N   UNL     1       7.478   7.574  16.867  0.00  0.00    +0.000 N 
ATOM     16  H   UNL     1       7.203   8.144  16.075  0.00  0.00    +0.000 HD
BRANCH  13  17
ATOM     17  C   UNL     1       8.180   9.659  17.892  0.00  0.00    +0.000 C 
BRANCH  17  19
ATOM     18  C   UNL     1       9.655  11.592  18.593  0.00  0.00    +0.000 C 
ATOM     19  C   UNL     1       9.167  10.192  18.926  0.00  0.00    +0.000 C 
ENDBRANCH  17  19
ENDBRANCH  13  17
ENDBRANCH  12  15
ENDBRANCH   8  12
ENDBRANCH   1  10
BRANCH   7  20
ATOM     20  C   UNL     1       2.690   6.936  18.374  0.00  0.00    +0.000 C 
ATOM     21  O   UNL     1       3.293   7.562  17.503  0.00  0.00    +0.000 OA
BRANCH  20  22
ATOM     22  C   UNL     1       1.919   7.694  19.397  0.00  0.00    +0.000 A 
ATOM     23  C   UNL     1       1.741   7.151  20.680  0.00  0.00    +0.000 A 
ATOM     24  C   UNL     1       1.075   7.870  21.678  0.00  0.00    +0.000 A 
ATOM     25  C   UNL     1       0.628   9.163  21.426  0.00  0.00    +0.000 A 
ATOM     26  C   UNL     1       0.823   9.728  20.168  0.00  0.00    +0.000 A 
ATOM     27  C   UNL     1       1.450   8.998  19.147  0.00  0.00    +0.000 A 
ATOM     28 CL   UNL     1       1.547   9.784  17.609  0.00  0.00    +0.000 Cl
ENDBRANCH  20  22
ENDBRANCH   7  20
TORSDOF 7
ENDMDL
MODEL 3
REMARK VINA RESULT:      -7.1      4.181      6.248
REMARK  Name = 
REMARK  9 active torsions:
REMARK  status: ('A' for Active; 'I' for Inactive)
REMARK    1  A    between atoms: C_1  and  C_2
REMARK    2  A    between atoms: C_2  and  C_3
REMARK    3  A    between atoms: C_3  and  C_4
REMARK    4  A    between atoms: N_6  and  C_7
REMARK    5  A    between atoms: C_7  and  C_8
REMARK    6  A    between atoms: N_10  and  C_11
REMARK    7  A    between atoms: N_10  and  C_12
REMARK    8  A    between atoms: C_18  and  C_19
REMARK    9  A    between atoms: C_19  and  C_21
REMARK                            x       y       z     vdW  Elec       q    Type
REMARK                         _______ _______ _______ _____ _____    ______ ____
ROOT
ATOM      1  C   UNL     1       3.862   6.175  17.667  0.00  0.00    +0.000 A 
ATOM      2  C   UNL     1       4.938   6.957  17.205  0.00  0.00    +0.000 A 
ATOM      3  C   UNL     1       5.920   6.421  16.369  0.00  0.00    +0.000 A 
ATOM      4  C   UNL     1       5.836   5.091  15.980  0.00  0.00    +0.000 A 
ATOM      5 CL   UNL     1       7.044   4.421  14.957  0.00  0.00    +0.000 Cl
ATOM      6  C   UNL     1       4.777   4.302  16.416  0.00  0.00    +0.000 A 
ATOM      7  C   UNL     1       3.774   4.831  17.258  0.00  0.00    +0.000 A 
ENDROOT
BRANCH   1  10
ATOM      8  C   UNL     1       2.334   7.986  18.201  0.00  0.00    +0.000 C 
ATOM      9  O   UNL     1       2.400   8.429  17.044  0.00  0.00    +0.000 OA
ATOM     10  N   UNL     1       2.945   6.785  18.582  0.00  0.00    +0.000 N 
ATOM     11  C   UNL     1       3.117   6.383  19.981  0.00  0.00    +0.000 C 
BRANCH   8  12
ATOM     12  C   UNL     1       1.589   8.821  19.249  0.00  0.00    +0.000 C 
BRANCH  12  15
ATOM     13  C   UNL     1      -0.441  10.216  19.324  0.00  0.00    +0.000 C 
ATOM     14  O   UNL     1      -0.604  10.002  20.521  0.00  0.00    +0.000 OA
ATOM     15  N   UNL     1       0.586   9.653  18.608  0.00  0.00    +0.000 N 
ATOM     16  H   UNL     1       0.744   9.924  17.644  0.00  0.00    +0.000 HD
BRANCH  13  17
ATOM     17  C   UNL     1      -1.368  11.088  18.500  0.00  0.00    +0.000 C 
BRANCH  17  19
ATOM     18  C   UNL     1      -3.290   9.741  17.553  0.00  0.00    +0.000 C 
ATOM     19  C   UNL     1      -1.908  10.318  17.298  0.00  0.00    +0.000 C 
ENDBRANCH  17  19
ENDBRANCH  13  17
ENDBRANCH  12  15
ENDBRANCH   8  12
ENDBRANCH   1  10
BRANCH   7  20
ATOM     20  C   UNL     1       2.694   3.866  17.617  0.00  0.00    +0.000 C 
ATOM     21  O   UNL     1       2.002   3.444  16.691  0.00  0.00    +0.000 OA
BRANCH  20  22
ATOM     22  C   UNL     1       2.334   3.485  19.011  0.00  0.00    +0.000 A 
ATOM     23  C   UNL     1       0.986   3.481  19.406  0.00  0.00    +0.000 A 
ATOM     24  C   UNL     1       0.616   3.067  20.691  0.00  0.00    +0.000 A 
ATOM     25  C   UNL     1       1.580   2.598  21.577  0.00  0.00    +0.000 A 
ATOM     26  C   UNL     1       2.918   2.568  21.190  0.00  0.00    +0.000 A 
ATOM     27  C   UNL     1       3.304   3.023  19.920  0.00  0.00    +0.000 A 
ATOM     28 CL   UNL     1       5.005   3.015  19.602  0.00  0.00    +0.000 Cl
ENDBRANCH  20  22
ENDBRANCH   7  20
TORSDOF 7
ENDMDL
MODEL 4
REMARK VINA RESULT:      -7.1      1.135      1.531
REMARK  Name = 
REMARK  9 active torsions:
REMARK  status: ('A' for Active; 'I' for Inactive)
REMARK    1  A    between atoms: C_1  and  C_2
REMARK    2  A    between atoms: C_2  and  C_3
REMARK    3  A    between atoms: C_3  and  C_4
REMARK    4  A    between atoms: N_6  and  C_7
REMARK    5  A    between atoms: C_7  and  C_8
REMARK    6  A    between atoms: N_10  and  C_11
REMARK    7  A    between atoms: N_10  and  C_12
REMARK    8  A    between atoms: C_18  and  C_19
REMARK    9  A    between atoms: C_19  and  C_21
REMARK                            x       y       z     vdW  Elec       q    Type
REMARK                         _______ _______ _______ _____ _____    ______ ____
ROOT
ATOM      1  C   UNL     1       6.582   5.551  16.565  0.00  0.00    +0.000 A 
ATOM      2  C   UNL     1       7.427   5.225  15.486  0.00  0.00    +0.000 A 
ATOM      3  C   UNL     1       6.938   4.577  14.351  0.00  0.00    +0.000 A 
ATOM      4  C   UNL     1       5.592   4.248  14.276  0.00  0.00    +0.000 A 
ATOM      5 CL   UNL     1       4.982   3.444  12.884  0.00  0.00    +0.000 Cl
ATOM      6  C   UNL     1       4.735   4.570  15.325  0.00  0.00    +0.000 A 
ATOM      7  C   UNL     1       5.214   5.229  16.479  0.00  0.00    +0.000 A 
ENDROOT
BRANCH   1  10
ATOM      8  C   UNL     1       7.454   7.519  17.692  0.00  0.00    +0.000 C 
ATOM      9  O   UNL     1       7.016   8.264  16.802  0.00  0.00    +0.000 OA
ATOM     10  N   UNL     1       7.183   6.145  17.721  0.00  0.00    +0.000 N 
ATOM     11  C   UNL     1       7.901   5.206  18.588  0.00  0.00    +0.000 C 
BRANCH   8  12
ATOM     12  C   UNL     1       8.355   8.135  18.768  0.00  0.00    +0.000 C 
BRANCH  12  15
ATOM     13  C   UNL     1       9.311  10.367  19.190  0.00  0.00    +0.000 C 
ATOM     14  O   UNL     1       9.196  10.241  20.404  0.00  0.00    +0.000 OA
ATOM     15  N   UNL     1       8.895   9.401  18.307  0.00  0.00    +0.000 N 
ATOM     16  H   UNL     1       9.089   9.499  17.317  0.00  0.00    +0.000 HD
BRANCH  13  17
ATOM     17  C   UNL     1       9.885  11.606  18.532  0.00  0.00    +0.000 C 
BRANCH  17  19
ATOM     18  C   UNL     1      12.218  12.475  18.984  0.00  0.00    +0.000 C 
ATOM     19  C   UNL     1      10.793  12.360  19.498  0.00  0.00    +0.000 C 
ENDBRANCH  17  19
ENDBRANCH  13  17
ENDBRANCH  12  15
ENDBRANCH   8  12
ENDBRANCH   1  10
BRANCH   7  20
ATOM     20  C   UNL     1       4.170   5.526  17.501  0.00  0.00    +0.000 C 
ATOM     21  O   UNL     1       4.181   6.656  17.989  0.00  0.00    +0.000 OA
BRANCH  20  22
ATOM     22  C   UNL     1       3.211   4.523  18.043  0.00  0.00    +0.000 A 
ATOM     23  C   UNL     1       1.865   4.559  17.644  0.00  0.00    +0.000 A 
ATOM     24  C   UNL     1       0.958   3.591  18.089  0.00  0.00    +0.000 A 
ATOM     25  C   UNL     1       1.396   2.542  18.891  0.00  0.00    +0.000 A 
ATOM     26  C   UNL     1       2.734   2.475  19.271  0.00  0.00    +0.000 A 
ATOM     27  C   UNL     1       3.641   3.466  18.867  0.00  0.00    +0.000 A 
ATOM     28 CL   UNL     1       5.250   3.311  19.484  0.00  0.00    +0.000 Cl
ENDBRANCH  20  22
ENDBRANCH   7  20
TORSDOF 7
ENDMDL
MODEL 5
REMARK VINA RESULT:      -7.1      1.205      1.673
REMARK  Name = 
REMARK  9 active torsions:
REMARK  status: ('A' for Active; 'I' for Inactive)
REMARK    1  A    between atoms: C_1  and  C_2
REMARK    2  A    between atoms: C_2  and  C_3
REMARK    3  A    between atoms: C_3  and  C_4
REMARK    4  A    between atoms: N_6  and  C_7
REMARK    5  A    between atoms: C_7  and  C_8
REMARK    6  A    between atoms: N_10  and  C_11
REMARK    7  A    between atoms: N_10  and  C_12
REMARK    8  A    between atoms: C_18  and  C_19
REMARK    9  A    between atoms: C_19  and  C_21
REMARK                            x       y       z     vdW  Elec       q    Type
REMARK                         _______ _______ _______ _____ _____    ______ ____
ROOT
ATOM      1  C   UNL     1       6.633   5.612  16.587  0.00  0.00    +0.000 A 
ATOM      2  C   UNL     1       7.487   5.285  15.516  0.00  0.00    +0.000 A 
ATOM      3  C   UNL     1       7.013   4.618  14.386  0.00  0.00    +0.000 A 
ATOM      4  C   UNL     1       5.671   4.270  14.310  0.00  0.00    +0.000 A 
ATOM      5 CL   UNL     1       5.079   3.442  12.924  0.00  0.00    +0.000 Cl
ATOM      6  C   UNL     1       4.806   4.592  15.351  0.00  0.00    +0.000 A 
ATOM      7  C   UNL     1       5.271   5.270  16.500  0.00  0.00    +0.000 A 
ENDROOT
BRANCH   1  10
ATOM      8  C   UNL     1       7.481   7.602  17.693  0.00  0.00    +0.000 C 
ATOM      9  O   UNL     1       7.044   8.332  16.789  0.00  0.00    +0.000 OA
ATOM     10  N   UNL     1       7.222   6.227  17.740  0.00  0.00    +0.000 N 
ATOM     11  C   UNL     1       7.941   5.307  18.625  0.00  0.00    +0.000 C 
BRANCH   8  12
ATOM     12  C   UNL     1       8.369   8.241  18.766  0.00  0.00    +0.000 C 
BRANCH  12  15
ATOM     13  C   UNL     1       9.267  10.480  19.272  0.00  0.00    +0.000 C 
ATOM     14  O   UNL     1       9.370  10.224  20.466  0.00  0.00    +0.000 OA
ATOM     15  N   UNL     1       8.756   9.582  18.367  0.00  0.00    +0.000 N 
ATOM     16  H   UNL     1       8.771   9.794  17.375  0.00  0.00    +0.000 HD
BRANCH  13  17
ATOM     17  C   UNL     1       9.654  11.816  18.669  0.00  0.00    +0.000 C 
BRANCH  17  19
ATOM     18  C   UNL     1       8.058  13.612  17.875  0.00  0.00    +0.000 C 
ATOM     19  C   UNL     1       8.649  12.240  17.602  0.00  0.00    +0.000 C 
ENDBRANCH  17  19
ENDBRANCH  13  17
ENDBRANCH  12  15
ENDBRANCH   8  12
ENDBRANCH   1  10
BRANCH   7  20
ATOM     20  C   UNL     1       4.218   5.565  17.514  0.00  0.00    +0.000 C 
ATOM     21  O   UNL     1       4.210   6.701  17.987  0.00  0.00    +0.000 OA
BRANCH  20  22
ATOM     22  C   UNL     1       3.273   4.554  18.065  0.00  0.00    +0.000 A 
ATOM     23  C   UNL     1       1.925   4.571  17.669  0.00  0.00    +0.000 A 
ATOM     24  C   UNL     1       1.031   3.595  18.123  0.00  0.00    +0.000 A 
ATOM     25  C   UNL     1       1.483   2.557  18.931  0.00  0.00    +0.000 A 
ATOM     26  C   UNL     1       2.823   2.509  19.308  0.00  0.00    +0.000 A 
ATOM     27  C   UNL     1       3.717   3.508  18.895  0.00  0.00    +0.000 A 
ATOM     28 CL   UNL     1       5.329   3.376  19.509  0.00  0.00    +0.000 Cl
ENDBRANCH  20  22
ENDBRANCH   7  20
TORSDOF 7
ENDMDL
MODEL 6
REMARK VINA RESULT:      -7.0      4.137      6.710
REMARK  Name = 
REMARK  9 active torsions:
REMARK  status: ('A' for Active; 'I' for Inactive)
REMARK    1  A    between atoms: C_1  and  C_2
REMARK    2  A    between atoms: C_2  and  C_3
REMARK    3  A    between atoms: C_3  and  C_4
REMARK    4  A    between atoms: N_6  and  C_7
REMARK    5  A    between atoms: C_7  and  C_8
REMARK    6  A    between atoms: N_10  and  C_11
REMARK    7  A    between atoms: N_10  and  C_12
REMARK    8  A    between atoms: C_18  and  C_19
REMARK    9  A    between atoms: C_19  and  C_21
REMARK                            x       y       z     vdW  Elec       q    Type
REMARK                         _______ _______ _______ _____ _____    ______ ____
ROOT
ATOM      1  C   UNL     1       4.293   4.420  19.048  0.00  0.00    +0.000 A 
ATOM      2  C   UNL     1       4.397   3.111  19.556  0.00  0.00    +0.000 A 
ATOM      3  C   UNL     1       3.427   2.584  20.410  0.00  0.00    +0.000 A 
ATOM      4  C   UNL     1       2.333   3.361  20.766  0.00  0.00    +0.000 A 
ATOM      5 CL   UNL     1       1.137   2.723  21.822  0.00  0.00    +0.000 Cl
ATOM      6  C   UNL     1       2.204   4.654  20.268  0.00  0.00    +0.000 A 
ATOM      7  C   UNL     1       3.175   5.200  19.399  0.00  0.00    +0.000 A 
ENDROOT
BRANCH   1  10
ATOM      8  C   UNL     1       5.455   4.466  16.915  0.00  0.00    +0.000 C 
ATOM      9  O   UNL     1       4.534   3.845  16.361  0.00  0.00    +0.000 OA
ATOM     10  N   UNL     1       5.373   4.905  18.241  0.00  0.00    +0.000 N 
ATOM     11  C   UNL     1       6.533   5.389  18.997  0.00  0.00    +0.000 C 
BRANCH   8  12
ATOM     12  C   UNL     1       6.738   4.714  16.113  0.00  0.00    +0.000 C 
BRANCH  12  15
ATOM     13  C   UNL     1       7.259   4.588  13.708  0.00  0.00    +0.000 C 
ATOM     14  O   UNL     1       7.834   5.670  13.724  0.00  0.00    +0.000 OA
ATOM     15  N   UNL     1       6.660   4.054  14.822  0.00  0.00    +0.000 N 
ATOM     16  H   UNL     1       6.275   3.117  14.794  0.00  0.00    +0.000 HD
BRANCH  13  17
ATOM     17  C   UNL     1       7.111   3.742  12.458  0.00  0.00    +0.000 C 
BRANCH  17  19
ATOM     18  C   UNL     1       5.451   2.152  11.400  0.00  0.00    +0.000 C 
ATOM     19  C   UNL     1       5.641   3.442  12.179  0.00  0.00    +0.000 C 
ENDBRANCH  17  19
ENDBRANCH  13  17
ENDBRANCH  12  15
ENDBRANCH   8  12
ENDBRANCH   1  10
BRANCH   7  20
ATOM     20  C   UNL     1       2.881   6.586  18.933  0.00  0.00    +0.000 C 
ATOM     21  O   UNL     1       3.469   6.963  17.920  0.00  0.00    +0.000 OA
BRANCH  20  22
ATOM     22  C   UNL     1       2.030   7.560  19.671  0.00  0.00    +0.000 A 
ATOM     23  C   UNL     1       1.726   7.336  21.024  0.00  0.00    +0.000 A 
ATOM     24  C   UNL     1       0.981   8.267  21.756  0.00  0.00    +0.000 A 
ATOM     25  C   UNL     1       0.579   9.459  21.164  0.00  0.00    +0.000 A 
ATOM     26  C   UNL     1       0.898   9.710  19.832  0.00  0.00    +0.000 A 
ATOM     27  C   UNL     1       1.606   8.763  19.076  0.00  0.00    +0.000 A 
ATOM     28 CL   UNL     1       1.856   9.163  17.411  0.00  0.00    +0.000 Cl
ENDBRANCH  20  22
ENDBRANCH   7  20
TORSDOF 7
ENDMDL
MODEL 7
REMARK VINA RESULT:      -7.0      1.174      1.195
REMARK  Name = 
REMARK  9 active torsions:
REMARK  status: ('A' for Active; 'I' for Inactive)
REMARK    1  A    between atoms: C_1  and  C_2
REMARK    2  A    between atoms: C_2  and  C_3
REMARK    3  A    between atoms: C_3  and  C_4
REMARK    4  A    between atoms: N_6  and  C_7
REMARK    5  A    between atoms: C_7  and  C_8
REMARK    6  A    between atoms: N_10  and  C_11
REMARK    7  A    between atoms: N_10  and  C_12
REMARK    8  A    between atoms: C_18  and  C_19
REMARK    9  A    between atoms: C_19  and  C_21
REMARK                            x       y       z     vdW  Elec       q    Type
REMARK                         _______ _______ _______ _____ _____    ______ ____
ROOT
ATOM      1  C   UNL     1       6.659   5.848  16.838  0.00  0.00    +0.000 A 
ATOM      2  C   UNL     1       7.525   5.316  15.864  0.00  0.00    +0.000 A 
ATOM      3  C   UNL     1       7.035   4.610  14.764  0.00  0.00    +0.000 A 
ATOM      4  C   UNL     1       5.666   4.428  14.622  0.00  0.00    +0.000 A 
ATOM      5 CL   UNL     1       5.055   3.553  13.274  0.00  0.00    +0.000 Cl
ATOM      6  C   UNL     1       4.790   4.953  15.567  0.00  0.00    +0.000 A 
ATOM      7  C   UNL     1       5.271   5.674  16.683  0.00  0.00    +0.000 A 
ENDROOT
BRANCH   1  10
ATOM      8  C   UNL     1       7.667   7.821  17.835  0.00  0.00    +0.000 C 
ATOM      9  O   UNL     1       7.361   8.515  16.852  0.00  0.00    +0.000 OA
ATOM     10  N   UNL     1       7.253   6.491  17.973  0.00  0.00    +0.000 N 
ATOM     11  C   UNL     1       7.818   5.576  18.968  0.00  0.00    +0.000 C 
BRANCH   8  12
ATOM     12  C   UNL     1       8.565   8.449  18.906  0.00  0.00    +0.000 C 
BRANCH  12  15
ATOM     13  C   UNL     1       9.352  10.722  19.440  0.00  0.00    +0.000 C 
ATOM     14  O   UNL     1       9.342  10.497  20.645  0.00  0.00    +0.000 OA
ATOM     15  N   UNL     1       8.956   9.791  18.512  0.00  0.00    +0.000 N 
ATOM     16  H   UNL     1       9.065   9.979  17.522  0.00  0.00    +0.000 HD
BRANCH  13  17
ATOM     17  C   UNL     1       9.765  12.055  18.845  0.00  0.00    +0.000 C 
BRANCH  17  19
ATOM     18  C   UNL     1      12.011  12.649  17.842  0.00  0.00    +0.000 C 
ATOM     19  C   UNL     1      10.728  11.851  17.679  0.00  0.00    +0.000 C 
ENDBRANCH  17  19
ENDBRANCH  13  17
ENDBRANCH  12  15
ENDBRANCH   8  12
ENDBRANCH   1  10
BRANCH   7  20
ATOM     20  C   UNL     1       4.207   6.193  17.590  0.00  0.00    +0.000 C 
ATOM     21  O   UNL     1       3.944   7.392  17.502  0.00  0.00    +0.000 OA
BRANCH  20  22
ATOM     22  C   UNL     1       3.542   5.391  18.655  0.00  0.00    +0.000 A 
ATOM     23  C   UNL     1       3.874   4.036  18.817  0.00  0.00    +0.000 A 
ATOM     24  C   UNL     1       3.311   3.277  19.849  0.00  0.00    +0.000 A 
ATOM     25  C   UNL     1       2.454   3.876  20.767  0.00  0.00    +0.000 A 
ATOM     26  C   UNL     1       2.139   5.226  20.638  0.00  0.00    +0.000 A 
ATOM     27  C   UNL     1       2.663   5.984  19.580  0.00  0.00    +0.000 A 
ATOM     28 CL   UNL     1       2.118   7.623  19.486  0.00  0.00    +0.000 Cl
ENDBRANCH  20  22
ENDBRANCH   7  20
TORSDOF 7
ENDMDL
MODEL 8
REMARK VINA RESULT:      -6.9      1.567      2.227
REMARK  Name = 
REMARK  9 active torsions:
REMARK  status: ('A' for Active; 'I' for Inactive)
REMARK    1  A    between atoms: C_1  and  C_2
REMARK    2  A    between atoms: C_2  and  C_3
REMARK    3  A    between atoms: C_3  and  C_4
REMARK    4  A    between atoms: N_6  and  C_7
REMARK    5  A    between atoms: C_7  and  C_8
REMARK    6  A    between atoms: N_10  and  C_11
REMARK    7  A    between atoms: N_10  and  C_12
REMARK    8  A    between atoms: C_18  and  C_19
REMARK    9  A    between atoms: C_19  and  C_21
REMARK                            x       y       z     vdW  Elec       q    Type
REMARK                         _______ _______ _______ _____ _____    ______ ____
ROOT
ATOM      1  C   UNL     1       6.703   5.393  16.433  0.00  0.00    +0.000 A 
ATOM      2  C   UNL     1       7.469   5.397  15.251  0.00  0.00    +0.000 A 
ATOM      3  C   UNL     1       7.034   4.737  14.101  0.00  0.00    +0.000 A 
ATOM      4  C   UNL     1       5.820   4.065  14.115  0.00  0.00    +0.000 A 
ATOM      5 CL   UNL     1       5.279   3.244  12.705  0.00  0.00    +0.000 Cl
ATOM      6  C   UNL     1       5.040   4.056  15.268  0.00  0.00    +0.000 A 
ATOM      7  C   UNL     1       5.466   4.722  16.439  0.00  0.00    +0.000 A 
ENDROOT
BRANCH   1  10
ATOM      8  C   UNL     1       7.392   7.424  17.575  0.00  0.00    +0.000 C 
ATOM      9  O   UNL     1       6.864   8.133  16.704  0.00  0.00    +0.000 OA
ATOM     10  N   UNL     1       7.263   6.030  17.588  0.00  0.00    +0.000 N 
ATOM     11  C   UNL     1       8.089   5.157  18.427  0.00  0.00    +0.000 C 
BRANCH   8  12
ATOM     12  C   UNL     1       8.246   8.114  18.644  0.00  0.00    +0.000 C 
BRANCH  12  15
ATOM     13  C   UNL     1       9.226  10.342  19.029  0.00  0.00    +0.000 C 
ATOM     14  O   UNL     1       9.306  10.153  20.238  0.00  0.00    +0.000 OA
ATOM     15  N   UNL     1       8.689   9.414  18.172  0.00  0.00    +0.000 N 
ATOM     16  H   UNL     1       8.723   9.565  17.170  0.00  0.00    +0.000 HD
BRANCH  13  17
ATOM     17  C   UNL     1       9.672  11.625  18.355  0.00  0.00    +0.000 C 
BRANCH  17  19
ATOM     18  C   UNL     1      11.792  12.993  18.156  0.00  0.00    +0.000 C 
ATOM     19  C   UNL     1      11.176  11.605  18.097  0.00  0.00    +0.000 C 
ENDBRANCH  17  19
ENDBRANCH  13  17
ENDBRANCH  12  15
ENDBRANCH   8  12
ENDBRANCH   1  10
BRANCH   7  20
ATOM     20  C   UNL     1       4.509   4.641  17.581  0.00  0.00    +0.000 C 
ATOM     21  O   UNL     1       4.274   3.517  18.024  0.00  0.00    +0.000 OA
BRANCH  20  22
ATOM     22  C   UNL     1       3.747   5.798  18.125  0.00  0.00    +0.000 A 
ATOM     23  C   UNL     1       3.653   6.984  17.379  0.00  0.00    +0.000 A 
ATOM     24  C   UNL     1       2.892   8.064  17.840  0.00  0.00    +0.000 A 
ATOM     25  C   UNL     1       2.169   7.953  19.023  0.00  0.00    +0.000 A 
ATOM     26  C   UNL     1       2.228   6.773  19.760  0.00  0.00    +0.000 A 
ATOM     27  C   UNL     1       3.024   5.702  19.329  0.00  0.00    +0.000 A 
ATOM     28 CL   UNL     1       3.078   4.331  20.384  0.00  0.00    +0.000 Cl
ENDBRANCH  20  22
ENDBRANCH   7  20
TORSDOF 7
ENDMDL
MODEL 9
REMARK VINA RESULT:      -6.9      2.858      4.345
REMARK  Name = 
REMARK  9 active torsions:
REMARK  status: ('A' for Active; 'I' for Inactive)
REMARK    1  A    between atoms: C_1  and  C_2
REMARK    2  A    between atoms: C_2  and  C_3
REMARK    3  A    between atoms: C_3  and  C_4
REMARK    4  A    between atoms: N_6  and  C_7
REMARK    5  A    between atoms: C_7  and  C_8
REMARK    6  A    between atoms: N_10  and  C_11
REMARK    7  A    between atoms: N_10  and  C_12
REMARK    8  A    between atoms: C_18  and  C_19
REMARK    9  A    between atoms: C_19  and  C_21
REMARK                            x       y       z     vdW  Elec       q    Type
REMARK                         _______ _______ _______ _____ _____    ______ ____
ROOT
ATOM      1  C   UNL     1       4.118   4.744  18.131  0.00  0.00    +0.000 A 
ATOM      2  C   UNL     1       4.134   3.338  18.202  0.00  0.00    +0.000 A 
ATOM      3  C   UNL     1       2.954   2.603  18.325  0.00  0.00    +0.000 A 
ATOM      4  C   UNL     1       1.736   3.268  18.376  0.00  0.00    +0.000 A 
ATOM      5 CL   UNL     1       0.277   2.372  18.534  0.00  0.00    +0.000 Cl
ATOM      6  C   UNL     1       1.695   4.657  18.299  0.00  0.00    +0.000 A 
ATOM      7  C   UNL     1       2.881   5.414  18.170  0.00  0.00    +0.000 A 
ENDROOT
BRANCH   1  10
ATOM      8  C   UNL     1       5.957   5.653  16.830  0.00  0.00    +0.000 C 
ATOM      9  O   UNL     1       5.335   5.485  15.770  0.00  0.00    +0.000 OA
ATOM     10  N   UNL     1       5.381   5.419  18.084  0.00  0.00    +0.000 N 
ATOM     11  C   UNL     1       6.163   5.343  19.322  0.00  0.00    +0.000 C 
BRANCH   8  12
ATOM     12  C   UNL     1       7.422   6.095  16.741  0.00  0.00    +0.000 C 
BRANCH  12  15
ATOM     13  C   UNL     1       8.112   8.138  17.935  0.00  0.00    +0.000 C 
ATOM     14  O   UNL     1       8.533   7.497  18.891  0.00  0.00    +0.000 OA
ATOM     15  N   UNL     1       7.520   7.539  16.850  0.00  0.00    +0.000 N 
ATOM     16  H   UNL     1       7.268   8.092  16.038  0.00  0.00    +0.000 HD
BRANCH  13  17
ATOM     17  C   UNL     1       8.163   9.651  17.859  0.00  0.00    +0.000 C 
BRANCH  17  19
ATOM     18  C   UNL     1       9.471  11.689  18.594  0.00  0.00    +0.000 C 
ATOM     19  C   UNL     1       9.226  10.204  18.804  0.00  0.00    +0.000 C 
ENDBRANCH  17  19
ENDBRANCH  13  17
ENDBRANCH  12  15
ENDBRANCH   8  12
ENDBRANCH   1  10
BRANCH   7  20
ATOM     20  C   UNL     1       2.669   6.887  18.074  0.00  0.00    +0.000 C 
ATOM     21  O   UNL     1       3.148   7.450  17.091  0.00  0.00    +0.000 OA
BRANCH  20  22
ATOM     22  C   UNL     1       2.029   7.717  19.133  0.00  0.00    +0.000 A 
ATOM     23  C   UNL     1       1.525   8.988  18.813  0.00  0.00    +0.000 A 
ATOM     24  C   UNL     1       0.865   9.761  19.774  0.00  0.00    +0.000 A 
ATOM     25  C   UNL     1       0.648   9.251  21.050  0.00  0.00    +0.000 A 
ATOM     26  C   UNL     1       1.115   7.980  21.374  0.00  0.00    +0.000 A 
ATOM     27  C   UNL     1       1.818   7.216  20.431  0.00  0.00    +0.000 A 
ATOM     28 CL   UNL     1       2.421   5.694  20.993  0.00  0.00    +0.000 Cl
ENDBRANCH  20  22
ENDBRANCH   7  20
TORSDOF 7
ENDMDL
