MODEL 1
REMARK VINA RESULT:      -5.4      0.000      0.000
REMARK  Name = 
REMARK  3 active torsions:
REMARK  status: ('A' for Active; 'I' for Inactive)
REMARK    1  A    between atoms: C_1  and  C_2
REMARK    2  A    between atoms: C_5  and  O_6
REMARK    3  A    between atoms: C_7  and  O_8
REMARK                            x       y       z     vdW  Elec       q    Type
REMARK                         _______ _______ _______ _____ _____    ______ ____
ROOT
ATOM      1  C   UNL     1       4.054   3.477  19.019  0.00  0.00    +0.000 C 
ATOM      2  C   UNL     1       4.979   4.605  18.562  0.00  0.00    +0.000 C 
ATOM      3  N   UNL     1       6.363   4.086  18.502  0.00  0.00    +0.000 NA
ATOM      4  C   UNL     1       7.290   5.114  18.028  0.00  0.00    +0.000 C 
ATOM      5  C   UNL     1       6.884   5.760  16.695  0.00  0.00    +0.000 C 
ATOM      6  C   UNL     1       5.450   6.299  16.743  0.00  0.00    +0.000 C 
ATOM      7  C   UNL     1       4.492   5.209  17.226  0.00  0.00    +0.000 C 
ATOM      8  F   UNL     1       4.417   4.240  16.272  0.00  0.00    +0.000 F 
ATOM      9  F   UNL     1       3.242   5.718  17.362  0.00  0.00    +0.000 F 
ATOM     10  H   UNL     1       6.394   3.281  17.865  0.00  0.00    +0.000 HD
ENDROOT
BRANCH   5  11
ATOM     11  O   UNL     1       7.791   6.843  16.412  0.00  0.00    +0.000 OA
ATOM     12  H   UNL     1       8.631   6.624  16.866  0.00  0.00    +0.000 HD
ENDBRANCH   5  11
BRANCH   6  13
ATOM     13  O   UNL     1       5.119   6.792  15.431  0.00  0.00    +0.000 OA
ATOM     14  H   UNL     1       4.370   6.259  15.100  0.00  0.00    +0.000 HD
ENDBRANCH   6  13
TORSDOF 2
ENDMDL
MODEL 2
REMARK VINA RESULT:      -5.4      4.082      5.215
REMARK  Name = 
REMARK  3 active torsions:
REMARK  status: ('A' for Active; 'I' for Inactive)
REMARK    1  A    between atoms: C_1  and  C_2
REMARK    2  A    between atoms: C_5  and  O_6
REMARK    3  A    between atoms: C_7  and  O_8
REMARK                            x       y       z     vdW  Elec       q    Type
REMARK                         _______ _______ _______ _____ _____    ______ ____
ROOT
ATOM      1  C   UNL     1       3.851   6.184  17.741  0.00  0.00    +0.000 C 
ATOM      2  C   UNL     1       3.319   5.114  18.695  0.00  0.00    +0.000 C 
ATOM      3  N   UNL     1       2.785   5.782  19.903  0.00  0.00    +0.000 NA
ATOM      4  C   UNL     1       2.221   4.807  20.836  0.00  0.00    +0.000 C 
ATOM      5  C   UNL     1       1.174   3.872  20.213  0.00  0.00    +0.000 C 
ATOM      6  C   UNL     1       1.714   3.176  18.958  0.00  0.00    +0.000 C 
ATOM      7  C   UNL     1       2.286   4.210  17.986  0.00  0.00    +0.000 C 
ATOM      8  F   UNL     1       1.262   4.961  17.496  0.00  0.00    +0.000 F 
ATOM      9  F   UNL     1       2.852   3.583  16.924  0.00  0.00    +0.000 F 
ATOM     10  H   UNL     1       2.054   6.448  19.624  0.00  0.00    +0.000 HD
ENDROOT
BRANCH   5  11
ATOM     11  O   UNL     1       0.805   2.878  21.187  0.00  0.00    +0.000 OA
ATOM     12  H   UNL     1      -0.164   2.953  21.304  0.00  0.00    +0.000 HD
ENDBRANCH   5  11
BRANCH   6  13
ATOM     13  O   UNL     1       0.641   2.405  18.384  0.00  0.00    +0.000 OA
ATOM     14  H   UNL     1      -0.011   3.036  18.024  0.00  0.00    +0.000 HD
ENDBRANCH   6  13
TORSDOF 2
ENDMDL
MODEL 3
REMARK VINA RESULT:      -5.4      2.262      2.783
REMARK  Name = 
REMARK  3 active torsions:
REMARK  status: ('A' for Active; 'I' for Inactive)
REMARK    1  A    between atoms: C_1  and  C_2
REMARK    2  A    between atoms: C_5  and  O_6
REMARK    3  A    between atoms: C_7  and  O_8
REMARK                            x       y       z     vdW  Elec       q    Type
REMARK                         _______ _______ _______ _____ _____    ______ ____
ROOT
ATOM      1  C   UNL     1       5.736   4.171  14.587  0.00  0.00    +0.000 C 
ATOM      2  C   UNL     1       6.045   4.116  16.083  0.00  0.00    +0.000 C 
ATOM      3  N   UNL     1       7.394   4.681  16.307  0.00  0.00    +0.000 NA
ATOM      4  C   UNL     1       7.729   4.694  17.731  0.00  0.00    +0.000 C 
ATOM      5  C   UNL     1       6.684   5.391  18.616  0.00  0.00    +0.000 C 
ATOM      6  C   UNL     1       5.281   4.817  18.392  0.00  0.00    +0.000 C 
ATOM      7  C   UNL     1       4.941   4.823  16.900  0.00  0.00    +0.000 C 
ATOM      8  F   UNL     1       4.807   6.115  16.490  0.00  0.00    +0.000 F 
ATOM      9  F   UNL     1       3.741   4.224  16.696  0.00  0.00    +0.000 F 
ATOM     10  H   UNL     1       7.423   5.641  15.943  0.00  0.00    +0.000 HD
ENDROOT
BRANCH   5  11
ATOM     11  O   UNL     1       7.057   5.212  19.996  0.00  0.00    +0.000 OA
ATOM     12  H   UNL     1       7.117   4.246  20.143  0.00  0.00    +0.000 HD
ENDBRANCH   5  11
BRANCH   6  13
ATOM     13  O   UNL     1       4.356   5.590  19.179  0.00  0.00    +0.000 OA
ATOM     14  H   UNL     1       3.560   5.041  19.316  0.00  0.00    +0.000 HD
ENDBRANCH   6  13
TORSDOF 2
ENDMDL
MODEL 4
REMARK VINA RESULT:      -5.4      3.723      4.383
REMARK  Name = 
REMARK  3 active torsions:
REMARK  status: ('A' for Active; 'I' for Inactive)
REMARK    1  A    between atoms: C_1  and  C_2
REMARK    2  A    between atoms: C_5  and  O_6
REMARK    3  A    between atoms: C_7  and  O_8
REMARK                            x       y       z     vdW  Elec       q    Type
REMARK                         _______ _______ _______ _____ _____    ______ ____
ROOT
ATOM      1  C   UNL     1       2.583   6.696  18.260  0.00  0.00    +0.000 C 
ATOM      2  C   UNL     1       3.103   5.270  18.077  0.00  0.00    +0.000 C 
ATOM      3  N   UNL     1       4.209   5.043  19.033  0.00  0.00    +0.000 NA
ATOM      4  C   UNL     1       4.719   3.676  18.933  0.00  0.00    +0.000 C 
ATOM      5  C   UNL     1       3.640   2.591  19.068  0.00  0.00    +0.000 C 
ATOM      6  C   UNL     1       2.487   2.816  18.085  0.00  0.00    +0.000 C 
ATOM      7  C   UNL     1       1.955   4.245  18.212  0.00  0.00    +0.000 C 
ATOM      8  F   UNL     1       1.347   4.377  19.424  0.00  0.00    +0.000 F 
ATOM      9  F   UNL     1       1.002   4.470  17.273  0.00  0.00    +0.000 F 
ATOM     10  H   UNL     1       3.868   5.210  19.989  0.00  0.00    +0.000 HD
ENDROOT
BRANCH   5  11
ATOM     11  O   UNL     1       4.242   1.308  18.811  0.00  0.00    +0.000 OA
ATOM     12  H   UNL     1       3.506   0.691  18.620  0.00  0.00    +0.000 HD
ENDBRANCH   5  11
BRANCH   6  13
ATOM     13  O   UNL     1       1.480   1.820  18.349  0.00  0.00    +0.000 OA
ATOM     14  H   UNL     1       1.470   1.665  19.313  0.00  0.00    +0.000 HD
ENDBRANCH   6  13
TORSDOF 2
ENDMDL
MODEL 5
REMARK VINA RESULT:      -5.3      3.560      4.272
REMARK  Name = 
REMARK  3 active torsions:
REMARK  status: ('A' for Active; 'I' for Inactive)
REMARK    1  A    between atoms: C_1  and  C_2
REMARK    2  A    between atoms: C_5  and  O_6
REMARK    3  A    between atoms: C_7  and  O_8
REMARK                            x       y       z     vdW  Elec       q    Type
REMARK                         _______ _______ _______ _____ _____    ______ ____
ROOT
ATOM      1  C   UNL     1       1.015   4.612  20.631  0.00  0.00    +0.000 C 
ATOM      2  C   UNL     1       2.242   4.410  19.741  0.00  0.00    +0.000 C 
ATOM      3  N   UNL     1       3.224   5.475  20.044  0.00  0.00    +0.000 NA
ATOM      4  C   UNL     1       4.442   5.308  19.250  0.00  0.00    +0.000 C 
ATOM      5  C   UNL     1       5.082   3.916  19.365  0.00  0.00    +0.000 C 
ATOM      6  C   UNL     1       4.073   2.804  19.058  0.00  0.00    +0.000 C 
ATOM      7  C   UNL     1       2.813   2.984  19.906  0.00  0.00    +0.000 C 
ATOM      8  F   UNL     1       3.128   2.751  21.210  0.00  0.00    +0.000 F 
ATOM      9  F   UNL     1       1.885   2.057  19.559  0.00  0.00    +0.000 F 
ATOM     10  H   UNL     1       3.463   5.440  21.043  0.00  0.00    +0.000 HD
ENDROOT
BRANCH   5  11
ATOM     11  O   UNL     1       6.179   3.835  18.436  0.00  0.00    +0.000 OA
ATOM     12  H   UNL     1       6.007   4.508  17.747  0.00  0.00    +0.000 HD
ENDBRANCH   5  11
BRANCH   6  13
ATOM     13  O   UNL     1       4.725   1.540  19.288  0.00  0.00    +0.000 OA
ATOM     14  H   UNL     1       4.356   0.901  18.648  0.00  0.00    +0.000 HD
ENDBRANCH   6  13
TORSDOF 2
ENDMDL
MODEL 6
REMARK VINA RESULT:      -5.3      2.923      3.869
REMARK  Name = 
REMARK  3 active torsions:
REMARK  status: ('A' for Active; 'I' for Inactive)
REMARK    1  A    between atoms: C_1  and  C_2
REMARK    2  A    between atoms: C_5  and  O_6
REMARK    3  A    between atoms: C_7  and  O_8
REMARK                            x       y       z     vdW  Elec       q    Type
REMARK                         _______ _______ _______ _____ _____    ______ ____
ROOT
ATOM      1  C   UNL     1       7.799   7.521  17.618  0.00  0.00    +0.000 C 
ATOM      2  C   UNL     1       6.534   6.664  17.596  0.00  0.00    +0.000 C 
ATOM      3  N   UNL     1       6.203   6.348  16.189  0.00  0.00    +0.000 NA
ATOM      4  C   UNL     1       5.021   5.490  16.106  0.00  0.00    +0.000 C 
ATOM      5  C   UNL     1       5.111   4.212  16.953  0.00  0.00    +0.000 C 
ATOM      6  C   UNL     1       5.457   4.525  18.413  0.00  0.00    +0.000 C 
ATOM      7  C   UNL     1       6.703   5.410  18.482  0.00  0.00    +0.000 C 
ATOM      8  F   UNL     1       7.777   4.682  18.068  0.00  0.00    +0.000 F 
ATOM      9  F   UNL     1       6.947   5.766  19.768  0.00  0.00    +0.000 F 
ATOM     10  H   UNL     1       7.001   5.868  15.753  0.00  0.00    +0.000 HD
ENDROOT
BRANCH   5  11
ATOM     11  O   UNL     1       3.842   3.533  16.899  0.00  0.00    +0.000 OA
ATOM     12  H   UNL     1       3.966   2.764  16.306  0.00  0.00    +0.000 HD
ENDBRANCH   5  11
BRANCH   6  13
ATOM     13  O   UNL     1       5.621   3.274  19.107  0.00  0.00    +0.000 OA
ATOM     14  H   UNL     1       5.439   3.439  20.052  0.00  0.00    +0.000 HD
ENDBRANCH   6  13
TORSDOF 2
ENDMDL
MODEL 7
REMARK VINA RESULT:      -5.3      4.113      4.975
REMARK  Name = 
REMARK  3 active torsions:
REMARK  status: ('A' for Active; 'I' for Inactive)
REMARK    1  A    between atoms: C_1  and  C_2
REMARK    2  A    between atoms: C_5  and  O_6
REMARK    3  A    between atoms: C_7  and  O_8
REMARK                            x       y       z     vdW  Elec       q    Type
REMARK                         _______ _______ _______ _____ _____    ______ ____
ROOT
ATOM      1  C   UNL     1       4.132   3.868  16.834  0.00  0.00    +0.000 C 
ATOM      2  C   UNL     1       3.509   3.175  18.046  0.00  0.00    +0.000 C 
ATOM      3  N   UNL     1       4.542   3.042  19.097  0.00  0.00    +0.000 NA
ATOM      4  C   UNL     1       3.990   2.422  20.301  0.00  0.00    +0.000 C 
ATOM      5  C   UNL     1       2.734   3.117  20.847  0.00  0.00    +0.000 C 
ATOM      6  C   UNL     1       1.656   3.265  19.767  0.00  0.00    +0.000 C 
ATOM      7  C   UNL     1       2.245   3.927  18.520  0.00  0.00    +0.000 C 
ATOM      8  F   UNL     1       2.552   5.220  18.818  0.00  0.00    +0.000 F 
ATOM      9  F   UNL     1       1.315   3.965  17.533  0.00  0.00    +0.000 F 
ATOM     10  H   UNL     1       4.907   3.973  19.331  0.00  0.00    +0.000 HD
ENDROOT
BRANCH   5  11
ATOM     11  O   UNL     1       2.211   2.336  21.938  0.00  0.00    +0.000 OA
ATOM     12  H   UNL     1       1.285   2.625  22.066  0.00  0.00    +0.000 HD
ENDBRANCH   5  11
BRANCH   6  13
ATOM     13  O   UNL     1       0.563   4.013  20.333  0.00  0.00    +0.000 OA
ATOM     14  H   UNL     1       0.228   3.506  21.097  0.00  0.00    +0.000 HD
ENDBRANCH   6  13
TORSDOF 2
ENDMDL
MODEL 8
REMARK VINA RESULT:      -5.2      3.016      4.151
REMARK  Name = 
REMARK  3 active torsions:
REMARK  status: ('A' for Active; 'I' for Inactive)
REMARK    1  A    between atoms: C_1  and  C_2
REMARK    2  A    between atoms: C_5  and  O_6
REMARK    3  A    between atoms: C_7  and  O_8
REMARK                            x       y       z     vdW  Elec       q    Type
REMARK                         _______ _______ _______ _____ _____    ______ ____
ROOT
ATOM      1  C   UNL     1       6.037   5.143  18.853  0.00  0.00    +0.000 C 
ATOM      2  C   UNL     1       5.028   4.074  18.430  0.00  0.00    +0.000 C 
ATOM      3  N   UNL     1       4.916   3.074  19.515  0.00  0.00    +0.000 NA
ATOM      4  C   UNL     1       3.930   2.047  19.184  0.00  0.00    +0.000 C 
ATOM      5  C   UNL     1       2.550   2.601  18.799  0.00  0.00    +0.000 C 
ATOM      6  C   UNL     1       2.652   3.640  17.677  0.00  0.00    +0.000 C 
ATOM      7  C   UNL     1       3.676   4.716  18.046  0.00  0.00    +0.000 C 
ATOM      8  F   UNL     1       3.188   5.444  19.088  0.00  0.00    +0.000 F 
ATOM      9  F   UNL     1       3.836   5.577  17.010  0.00  0.00    +0.000 F 
ATOM     10  H   UNL     1       4.635   3.548  20.383  0.00  0.00    +0.000 HD
ENDROOT
BRANCH   5  11
ATOM     11  O   UNL     1       1.720   1.508  18.361  0.00  0.00    +0.000 OA
ATOM     12  H   UNL     1       2.241   0.692  18.505  0.00  0.00    +0.000 HD
ENDBRANCH   5  11
BRANCH   6  13
ATOM     13  O   UNL     1       1.335   4.178  17.452  0.00  0.00    +0.000 OA
ATOM     14  H   UNL     1       1.411   5.152  17.467  0.00  0.00    +0.000 HD
ENDBRANCH   6  13
TORSDOF 2
ENDMDL
MODEL 9
REMARK VINA RESULT:      -5.2      3.663      4.314
REMARK  Name = 
REMARK  3 active torsions:
REMARK  status: ('A' for Active; 'I' for Inactive)
REMARK    1  A    between atoms: C_1  and  C_2
REMARK    2  A    between atoms: C_5  and  O_6
REMARK    3  A    between atoms: C_7  and  O_8
REMARK                            x       y       z     vdW  Elec       q    Type
REMARK                         _______ _______ _______ _____ _____    ______ ____
ROOT
ATOM      1  C   UNL     1       1.868   2.543  21.920  0.00  0.00    +0.000 C 
ATOM      2  C   UNL     1       2.464   3.259  20.709  0.00  0.00    +0.000 C 
ATOM      3  N   UNL     1       3.646   2.500  20.245  0.00  0.00    +0.000 NA
ATOM      4  C   UNL     1       4.235   3.117  19.057  0.00  0.00    +0.000 C 
ATOM      5  C   UNL     1       3.241   3.346  17.908  0.00  0.00    +0.000 C 
ATOM      6  C   UNL     1       2.009   4.129  18.376  0.00  0.00    +0.000 C 
ATOM      7  C   UNL     1       1.397   3.463  19.610  0.00  0.00    +0.000 C 
ATOM      8  F   UNL     1       0.868   2.264  19.240  0.00  0.00    +0.000 F 
ATOM      9  F   UNL     1       0.368   4.213  20.078  0.00  0.00    +0.000 F 
ATOM     10  H   UNL     1       3.363   1.537  20.023  0.00  0.00    +0.000 HD
ENDROOT
BRANCH   5  11
ATOM     11  O   UNL     1       3.904   4.081  16.863  0.00  0.00    +0.000 OA
ATOM     12  H   UNL     1       3.214   4.318  16.211  0.00  0.00    +0.000 HD
ENDBRANCH   5  11
BRANCH   6  13
ATOM     13  O   UNL     1       1.089   4.208  17.270  0.00  0.00    +0.000 OA
ATOM     14  H   UNL     1       0.726   5.115  17.258  0.00  0.00    +0.000 HD
ENDBRANCH   6  13
TORSDOF 2
ENDMDL
