MODEL 1
REMARK VINA RESULT:      -8.1      0.000      0.000
REMARK  Name = 
REMARK  10 active torsions:
REMARK  status: ('A' for Active; 'I' for Inactive)
REMARK    1  A    between atoms: N_2  and  C_4
REMARK    2  A    between atoms: C_9  and  C_10
REMARK    3  A    between atoms: C_11  and  C_12
REMARK    4  A    between atoms: C_11  and  C_21
REMARK    5  A    between atoms: C_21  and  P_22
REMARK    6  A    between atoms: C_21  and  P_26
REMARK    7  A    between atoms: P_22  and  O_24
REMARK    8  A    between atoms: P_22  and  O_25
REMARK    9  A    between atoms: P_26  and  O_28
REMARK   10  A    between atoms: P_26  and  O_29
REMARK                            x       y       z     vdW  Elec       q    Type
REMARK                         _______ _______ _______ _____ _____    ______ ____
ROOT
ATOM      1  C   UNL     1       4.191   4.504  18.948  0.00  0.00    +0.000 C 
ATOM      2  C   UNL     1       4.442   5.797  18.588  0.00  0.00    +0.000 C 
ENDROOT
BRANCH   2   3
ATOM      3  C   UNL     1       3.542   6.925  18.676  0.00  0.00    +0.000 A 
ATOM      4  N   UNL     1       2.915   7.160  19.818  0.00  0.00    +0.000 NA
ATOM      5  C   UNL     1       1.934   8.131  19.693  0.00  0.00    +0.000 A 
ATOM      6  C   UNL     1       0.998   8.455  20.700  0.00  0.00    +0.000 A 
ATOM      7  C   UNL     1      -0.048   9.331  20.416  0.00  0.00    +0.000 A 
ATOM      8  C   UNL     1      -0.127   9.928  19.164  0.00  0.00    +0.000 A 
ATOM      9  C   UNL     1       0.824   9.662  18.163  0.00  0.00    +0.000 A 
ATOM     10  C   UNL     1       1.840   8.716  18.436  0.00  0.00    +0.000 A 
ATOM     11  S   UNL     1       3.086   8.031  17.429  0.00  0.00    +0.000 S 
ENDBRANCH   2   3
BRANCH   1  17
ATOM     12  C   UNL     1       1.965   3.246  18.955  0.00  0.00    +0.000 A 
ATOM     13  C   UNL     1       0.847   2.716  19.637  0.00  0.00    +0.000 A 
ATOM     14  C   UNL     1       0.886   2.595  21.022  0.00  0.00    +0.000 A 
ATOM     15  C   UNL     1       2.029   3.005  21.702  0.00  0.00    +0.000 A 
ATOM     16  C   UNL     1       3.143   3.526  21.004  0.00  0.00    +0.000 A 
ATOM     17  C   UNL     1       3.148   3.653  19.599  0.00  0.00    +0.000 A 
BRANCH  12  19
ATOM     18  O   UNL     1       1.043   4.529  17.303  0.00  0.00    +0.000 OA
ATOM     19  N   UNL     1       1.762   3.560  17.561  0.00  0.00    +0.000 N 
ATOM     20  O   UNL     1       2.376   2.873  16.736  0.00  0.00    +0.000 OA
ENDBRANCH  12  19
ENDBRANCH   1  17
BRANCH   2  21
ATOM     21  C   UNL     1       5.887   6.061  18.011  0.00  0.00    +0.000 C 
BRANCH  21  22
ATOM     22  P   UNL     1       7.281   5.648  19.124  0.00  0.00    +0.000 P 
ATOM     23  O   UNL     1       7.714   4.473  18.242  0.00  0.00    +0.000 OA
BRANCH  22  24
ATOM     24  O   UNL     1       8.206   6.867  18.520  0.00  0.00    +0.000 OA
ATOM     25  H   UNL     1       9.148   6.610  18.558  0.00  0.00    +0.000 HD
ENDBRANCH  22  24
BRANCH  22  26
ATOM     26  O   UNL     1       8.597   5.257  20.176  0.00  0.00    +0.000 OA
ATOM     27  H   UNL     1       8.229   5.346  21.080  0.00  0.00    +0.000 HD
ENDBRANCH  22  26
ENDBRANCH  21  22
BRANCH  21  28
ATOM     28  P   UNL     1       6.242   5.298  16.391  0.00  0.00    +0.000 P 
ATOM     29  O   UNL     1       7.560   5.641  15.781  0.00  0.00    +0.000 OA
BRANCH  28  30
ATOM     30  O   UNL     1       6.042   3.713  16.448  0.00  0.00    +0.000 OA
ATOM     31  H   UNL     1       5.979   3.341  17.358  0.00  0.00    +0.000 HD
ENDBRANCH  28  30
BRANCH  28  32
ATOM     32  O   UNL     1       5.039   5.677  15.406  0.00  0.00    +0.000 OA
ATOM     33  H   UNL     1       5.133   5.174  14.571  0.00  0.00    +0.000 HD
ENDBRANCH  28  32
ENDBRANCH  21  28
ENDBRANCH   2  21
TORSDOF 10
ENDMDL
MODEL 2
REMARK VINA RESULT:      -8.1      0.502      1.126
REMARK  Name = 
REMARK  10 active torsions:
REMARK  status: ('A' for Active; 'I' for Inactive)
REMARK    1  A    between atoms: N_2  and  C_4
REMARK    2  A    between atoms: C_9  and  C_10
REMARK    3  A    between atoms: C_11  and  C_12
REMARK    4  A    between atoms: C_11  and  C_21
REMARK    5  A    between atoms: C_21  and  P_22
REMARK    6  A    between atoms: C_21  and  P_26
REMARK    7  A    between atoms: P_22  and  O_24
REMARK    8  A    between atoms: P_22  and  O_25
REMARK    9  A    between atoms: P_26  and  O_28
REMARK   10  A    between atoms: P_26  and  O_29
REMARK                            x       y       z     vdW  Elec       q    Type
REMARK                         _______ _______ _______ _____ _____    ______ ____
ROOT
ATOM      1  C   UNL     1       4.158   4.540  18.804  0.00  0.00    +0.000 C 
ATOM      2  C   UNL     1       4.379   5.843  18.461  0.00  0.00    +0.000 C 
ENDROOT
BRANCH   2   3
ATOM      3  C   UNL     1       3.488   6.966  18.651  0.00  0.00    +0.000 A 
ATOM      4  N   UNL     1       2.894   7.124  19.823  0.00  0.00    +0.000 NA
ATOM      5  C   UNL     1       1.915   8.105  19.792  0.00  0.00    +0.000 A 
ATOM      6  C   UNL     1       1.009   8.363  20.844  0.00  0.00    +0.000 A 
ATOM      7  C   UNL     1      -0.039   9.260  20.651  0.00  0.00    +0.000 A 
ATOM      8  C   UNL     1      -0.149   9.943  19.445  0.00  0.00    +0.000 A 
ATOM      9  C   UNL     1       0.773   9.742  18.402  0.00  0.00    +0.000 A 
ATOM     10  C   UNL     1       1.791   8.776  18.582  0.00  0.00    +0.000 A 
ATOM     11  S   UNL     1       3.005   8.157  17.496  0.00  0.00    +0.000 S 
ENDBRANCH   2   3
BRANCH   1  17
ATOM     12  C   UNL     1       1.973   3.218  18.925  0.00  0.00    +0.000 A 
ATOM     13  C   UNL     1       0.901   2.665  19.663  0.00  0.00    +0.000 A 
ATOM     14  C   UNL     1       1.004   2.566  21.046  0.00  0.00    +0.000 A 
ATOM     15  C   UNL     1       2.163   3.019  21.670  0.00  0.00    +0.000 A 
ATOM     16  C   UNL     1       3.229   3.563  20.917  0.00  0.00    +0.000 A 
ATOM     17  C   UNL     1       3.169   3.669  19.511  0.00  0.00    +0.000 A 
BRANCH  12  19
ATOM     18  O   UNL     1       0.973   4.473  17.297  0.00  0.00    +0.000 OA
ATOM     19  N   UNL     1       1.699   3.505  17.537  0.00  0.00    +0.000 N 
ATOM     20  O   UNL     1       2.268   2.798  16.696  0.00  0.00    +0.000 OA
ENDBRANCH  12  19
ENDBRANCH   1  17
BRANCH   2  21
ATOM     21  C   UNL     1       5.774   6.126  17.779  0.00  0.00    +0.000 C 
BRANCH  21  22
ATOM     22  P   UNL     1       7.251   5.671  18.760  0.00  0.00    +0.000 P 
ATOM     23  O   UNL     1       6.401   5.315  19.984  0.00  0.00    +0.000 OA
BRANCH  22  24
ATOM     24  O   UNL     1       7.373   4.210  18.013  0.00  0.00    +0.000 OA
ATOM     25  H   UNL     1       8.277   4.097  17.662  0.00  0.00    +0.000 HD
ENDBRANCH  22  24
BRANCH  22  26
ATOM     26  O   UNL     1       8.646   5.240  19.686  0.00  0.00    +0.000 OA
ATOM     27  H   UNL     1       9.313   4.968  19.021  0.00  0.00    +0.000 HD
ENDBRANCH  22  26
ENDBRANCH  21  22
BRANCH  21  28
ATOM     28  P   UNL     1       5.993   5.424  16.109  0.00  0.00    +0.000 P 
ATOM     29  O   UNL     1       5.615   3.989  15.947  0.00  0.00    +0.000 OA
BRANCH  28  30
ATOM     30  O   UNL     1       5.265   6.327  15.008  0.00  0.00    +0.000 OA
ATOM     31  H   UNL     1       5.622   7.240  14.927  0.00  0.00    +0.000 HD
ENDBRANCH  28  30
BRANCH  28  32
ATOM     32  O   UNL     1       7.515   5.667  15.678  0.00  0.00    +0.000 OA
ATOM     33  H   UNL     1       7.557   5.836  14.714  0.00  0.00    +0.000 HD
ENDBRANCH  28  32
ENDBRANCH  21  28
ENDBRANCH   2  21
TORSDOF 10
ENDMDL
MODEL 3
REMARK VINA RESULT:      -7.8      0.858      1.009
REMARK  Name = 
REMARK  10 active torsions:
REMARK  status: ('A' for Active; 'I' for Inactive)
REMARK    1  A    between atoms: N_2  and  C_4
REMARK    2  A    between atoms: C_9  and  C_10
REMARK    3  A    between atoms: C_11  and  C_12
REMARK    4  A    between atoms: C_11  and  C_21
REMARK    5  A    between atoms: C_21  and  P_22
REMARK    6  A    between atoms: C_21  and  P_26
REMARK    7  A    between atoms: P_22  and  O_24
REMARK    8  A    between atoms: P_22  and  O_25
REMARK    9  A    between atoms: P_26  and  O_28
REMARK   10  A    between atoms: P_26  and  O_29
REMARK                            x       y       z     vdW  Elec       q    Type
REMARK                         _______ _______ _______ _____ _____    ______ ____
ROOT
ATOM      1  C   UNL     1       3.942   4.754  18.605  0.00  0.00    +0.000 C 
ATOM      2  C   UNL     1       4.049   6.055  18.203  0.00  0.00    +0.000 C 
ENDROOT
BRANCH   2   3
ATOM      3  C   UNL     1       3.194   7.162  18.570  0.00  0.00    +0.000 A 
ATOM      4  N   UNL     1       2.690   7.207  19.794  0.00  0.00    +0.000 NA
ATOM      5  C   UNL     1       1.729   8.196  19.933  0.00  0.00    +0.000 A 
ATOM      6  C   UNL     1       0.907   8.355  21.071  0.00  0.00    +0.000 A 
ATOM      7  C   UNL     1      -0.137   9.278  21.046  0.00  0.00    +0.000 A 
ATOM      8  C   UNL     1      -0.322  10.080  19.926  0.00  0.00    +0.000 A 
ATOM      9  C   UNL     1       0.518   9.976  18.803  0.00  0.00    +0.000 A 
ATOM     10  C   UNL     1       1.528   8.986  18.809  0.00  0.00    +0.000 A 
ATOM     11  S   UNL     1       2.649   8.468  17.579  0.00  0.00    +0.000 S 
ENDBRANCH   2   3
BRANCH   1  17
ATOM     12  C   UNL     1       2.063   3.095  19.110  0.00  0.00    +0.000 A 
ATOM     13  C   UNL     1       1.135   2.513  20.003  0.00  0.00    +0.000 A 
ATOM     14  C   UNL     1       1.279   2.722  21.370  0.00  0.00    +0.000 A 
ATOM     15  C   UNL     1       2.336   3.506  21.825  0.00  0.00    +0.000 A 
ATOM     16  C   UNL     1       3.261   4.075  20.919  0.00  0.00    +0.000 A 
ATOM     17  C   UNL     1       3.157   3.876  19.526  0.00  0.00    +0.000 A 
BRANCH  12  19
ATOM     18  O   UNL     1       0.975   3.919  17.277  0.00  0.00    +0.000 OA
ATOM     19  N   UNL     1       1.716   3.033  17.711  0.00  0.00    +0.000 N 
ATOM     20  O   UNL     1       2.240   2.134  17.042  0.00  0.00    +0.000 OA
ENDBRANCH  12  19
ENDBRANCH   1  17
BRANCH   2  21
ATOM     21  C   UNL     1       5.251   6.355  17.225  0.00  0.00    +0.000 C 
BRANCH  21  22
ATOM     22  P   UNL     1       6.830   6.830  18.020  0.00  0.00    +0.000 P 
ATOM     23  O   UNL     1       6.895   5.519  18.809  0.00  0.00    +0.000 OA
BRANCH  22  24
ATOM     24  O   UNL     1       7.695   6.445  16.674  0.00  0.00    +0.000 OA
ATOM     25  H   UNL     1       8.107   7.251  16.310  0.00  0.00    +0.000 HD
ENDBRANCH  22  24
BRANCH  22  26
ATOM     26  O   UNL     1       8.321   7.280  18.770  0.00  0.00    +0.000 OA
ATOM     27  H   UNL     1       8.387   8.248  18.636  0.00  0.00    +0.000 HD
ENDBRANCH  22  26
ENDBRANCH  21  22
BRANCH  21  28
ATOM     28  P   UNL     1       5.626   5.044  16.011  0.00  0.00    +0.000 P 
ATOM     29  O   UNL     1       6.126   5.506  14.683  0.00  0.00    +0.000 OA
BRANCH  28  30
ATOM     30  O   UNL     1       6.611   3.951  16.636  0.00  0.00    +0.000 OA
ATOM     31  H   UNL     1       6.195   3.075  16.806  0.00  0.00    +0.000 HD
ENDBRANCH  28  30
BRANCH  28  32
ATOM     32  O   UNL     1       4.312   4.147  15.848  0.00  0.00    +0.000 OA
ATOM     33  H   UNL     1       3.757   4.233  16.650  0.00  0.00    +0.000 HD
ENDBRANCH  28  32
ENDBRANCH  21  28
ENDBRANCH   2  21
TORSDOF 10
ENDMDL
MODEL 4
REMARK VINA RESULT:      -7.8      0.925      1.301
REMARK  Name = 
REMARK  10 active torsions:
REMARK  status: ('A' for Active; 'I' for Inactive)
REMARK    1  A    between atoms: N_2  and  C_4
REMARK    2  A    between atoms: C_9  and  C_10
REMARK    3  A    between atoms: C_11  and  C_12
REMARK    4  A    between atoms: C_11  and  C_21
REMARK    5  A    between atoms: C_21  and  P_22
REMARK    6  A    between atoms: C_21  and  P_26
REMARK    7  A    between atoms: P_22  and  O_24
REMARK    8  A    between atoms: P_22  and  O_25
REMARK    9  A    between atoms: P_26  and  O_28
REMARK   10  A    between atoms: P_26  and  O_29
REMARK                            x       y       z     vdW  Elec       q    Type
REMARK                         _______ _______ _______ _____ _____    ______ ____
ROOT
ATOM      1  C   UNL     1       4.206   4.498  18.961  0.00  0.00    +0.000 C 
ATOM      2  C   UNL     1       4.320   5.824  18.658  0.00  0.00    +0.000 C 
ENDROOT
BRANCH   2   3
ATOM      3  C   UNL     1       3.302   6.845  18.776  0.00  0.00    +0.000 A 
ATOM      4  N   UNL     1       3.304   7.855  17.920  0.00  0.00    +0.000 NA
ATOM      5  C   UNL     1       2.414   8.855  18.282  0.00  0.00    +0.000 A 
ATOM      6  C   UNL     1       2.333  10.117  17.653  0.00  0.00    +0.000 A 
ATOM      7  C   UNL     1       1.519  11.109  18.196  0.00  0.00    +0.000 A 
ATOM      8  C   UNL     1       0.744  10.830  19.315  0.00  0.00    +0.000 A 
ATOM      9  C   UNL     1       0.768   9.563  19.926  0.00  0.00    +0.000 A 
ATOM     10  C   UNL     1       1.652   8.586  19.412  0.00  0.00    +0.000 A 
ATOM     11  S   UNL     1       2.061   6.986  19.969  0.00  0.00    +0.000 S 
ENDBRANCH   2   3
BRANCH   1  17
ATOM     12  C   UNL     1       2.098   3.052  18.899  0.00  0.00    +0.000 A 
ATOM     13  C   UNL     1       1.043   2.377  19.553  0.00  0.00    +0.000 A 
ATOM     14  C   UNL     1       1.117   2.159  20.924  0.00  0.00    +0.000 A 
ATOM     15  C   UNL     1       2.232   2.617  21.620  0.00  0.00    +0.000 A 
ATOM     16  C   UNL     1       3.284   3.284  20.950  0.00  0.00    +0.000 A 
ATOM     17  C   UNL     1       3.252   3.513  19.559  0.00  0.00    +0.000 A 
BRANCH  12  19
ATOM     18  O   UNL     1       1.080   4.401  17.361  0.00  0.00    +0.000 OA
ATOM     19  N   UNL     1       1.843   3.447  17.535  0.00  0.00    +0.000 N 
ATOM     20  O   UNL     1       2.461   2.842  16.651  0.00  0.00    +0.000 OA
ENDBRANCH  12  19
ENDBRANCH   1  17
BRANCH   2  21
ATOM     21  C   UNL     1       5.736   6.266  18.117  0.00  0.00    +0.000 C 
BRANCH  21  22
ATOM     22  P   UNL     1       7.176   5.719  19.106  0.00  0.00    +0.000 P 
ATOM     23  O   UNL     1       7.451   4.543  18.164  0.00  0.00    +0.000 OA
BRANCH  22  24
ATOM     24  O   UNL     1       8.141   6.886  18.461  0.00  0.00    +0.000 OA
ATOM     25  H   UNL     1       8.526   6.564  17.623  0.00  0.00    +0.000 HD
ENDBRANCH  22  24
BRANCH  22  26
ATOM     26  O   UNL     1       8.537   5.204  20.041  0.00  0.00    +0.000 OA
ATOM     27  H   UNL     1       8.547   5.801  20.817  0.00  0.00    +0.000 HD
ENDBRANCH  22  26
ENDBRANCH  21  22
BRANCH  21  28
ATOM     28  P   UNL     1       6.082   5.844  16.375  0.00  0.00    +0.000 P 
ATOM     29  O   UNL     1       7.482   6.071  15.912  0.00  0.00    +0.000 OA
BRANCH  28  30
ATOM     30  O   UNL     1       5.613   4.352  16.043  0.00  0.00    +0.000 OA
ATOM     31  H   UNL     1       5.916   3.674  16.691  0.00  0.00    +0.000 HD
ENDBRANCH  28  30
BRANCH  28  32
ATOM     32  O   UNL     1       5.041   6.651  15.467  0.00  0.00    +0.000 OA
ATOM     33  H   UNL     1       4.177   6.697  15.925  0.00  0.00    +0.000 HD
ENDBRANCH  28  32
ENDBRANCH  21  28
ENDBRANCH   2  21
TORSDOF 10
ENDMDL
MODEL 5
REMARK VINA RESULT:      -7.7      1.040      1.708
REMARK  Name = 
REMARK  10 active torsions:
REMARK  status: ('A' for Active; 'I' for Inactive)
REMARK    1  A    between atoms: N_2  and  C_4
REMARK    2  A    between atoms: C_9  and  C_10
REMARK    3  A    between atoms: C_11  and  C_12
REMARK    4  A    between atoms: C_11  and  C_21
REMARK    5  A    between atoms: C_21  and  P_22
REMARK    6  A    between atoms: C_21  and  P_26
REMARK    7  A    between atoms: P_22  and  O_24
REMARK    8  A    between atoms: P_22  and  O_25
REMARK    9  A    between atoms: P_26  and  O_28
REMARK   10  A    between atoms: P_26  and  O_29
REMARK                            x       y       z     vdW  Elec       q    Type
REMARK                         _______ _______ _______ _____ _____    ______ ____
ROOT
ATOM      1  C   UNL     1       4.188   4.436  18.811  0.00  0.00    +0.000 C 
ATOM      2  C   UNL     1       4.295   5.757  18.481  0.00  0.00    +0.000 C 
ENDROOT
BRANCH   2   3
ATOM      3  C   UNL     1       3.304   6.793  18.665  0.00  0.00    +0.000 A 
ATOM      4  N   UNL     1       3.299   7.831  17.842  0.00  0.00    +0.000 NA
ATOM      5  C   UNL     1       2.444   8.836  18.265  0.00  0.00    +0.000 A 
ATOM      6  C   UNL     1       2.369  10.120  17.680  0.00  0.00    +0.000 A 
ATOM      7  C   UNL     1       1.595  11.110  18.281  0.00  0.00    +0.000 A 
ATOM      8  C   UNL     1       0.851  10.810  19.416  0.00  0.00    +0.000 A 
ATOM      9  C   UNL     1       0.867   9.524  19.985  0.00  0.00    +0.000 A 
ATOM     10  C   UNL     1       1.713   8.546  19.410  0.00  0.00    +0.000 A 
ATOM     11  S   UNL     1       2.105   6.921  19.902  0.00  0.00    +0.000 S 
ENDBRANCH   2   3
BRANCH   1  17
ATOM     12  C   UNL     1       2.091   2.975  18.915  0.00  0.00    +0.000 A 
ATOM     13  C   UNL     1       1.074   2.324  19.648  0.00  0.00    +0.000 A 
ATOM     14  C   UNL     1       1.214   2.169  21.023  0.00  0.00    +0.000 A 
ATOM     15  C   UNL     1       2.357   2.666  21.644  0.00  0.00    +0.000 A 
ATOM     16  C   UNL     1       3.370   3.308  20.895  0.00  0.00    +0.000 A 
ATOM     17  C   UNL     1       3.271   3.474  19.497  0.00  0.00    +0.000 A 
BRANCH  12  19
ATOM     18  O   UNL     1       0.977   4.235  17.367  0.00  0.00    +0.000 OA
ATOM     19  N   UNL     1       1.769   3.306  17.548  0.00  0.00    +0.000 N 
ATOM     20  O   UNL     1       2.362   2.677  16.663  0.00  0.00    +0.000 OA
ENDBRANCH  12  19
ENDBRANCH   1  17
BRANCH   2  21
ATOM     21  C   UNL     1       5.669   6.170  17.822  0.00  0.00    +0.000 C 
BRANCH  21  22
ATOM     22  P   UNL     1       7.174   5.721  18.762  0.00  0.00    +0.000 P 
ATOM     23  O   UNL     1       6.356   5.310  19.990  0.00  0.00    +0.000 OA
BRANCH  22  24
ATOM     24  O   UNL     1       7.315   4.285  17.971  0.00  0.00    +0.000 OA
ATOM     25  H   UNL     1       8.242   4.158  17.690  0.00  0.00    +0.000 HD
ENDBRANCH  22  24
BRANCH  22  26
ATOM     26  O   UNL     1       8.596   5.297  19.650  0.00  0.00    +0.000 OA
ATOM     27  H   UNL     1       9.009   4.575  19.131  0.00  0.00    +0.000 HD
ENDBRANCH  22  26
ENDBRANCH  21  22
BRANCH  21  28
ATOM     28  P   UNL     1       5.917   5.615  16.101  0.00  0.00    +0.000 P 
ATOM     29  O   UNL     1       5.531   4.204  15.806  0.00  0.00    +0.000 OA
BRANCH  28  30
ATOM     30  O   UNL     1       5.220   6.619  15.070  0.00  0.00    +0.000 OA
ATOM     31  H   UNL     1       4.278   6.822  15.271  0.00  0.00    +0.000 HD
ENDBRANCH  28  30
BRANCH  28  32
ATOM     32  O   UNL     1       7.450   5.879  15.725  0.00  0.00    +0.000 OA
ATOM     33  H   UNL     1       7.838   5.062  15.348  0.00  0.00    +0.000 HD
ENDBRANCH  28  32
ENDBRANCH  21  28
ENDBRANCH   2  21
TORSDOF 10
ENDMDL
MODEL 6
REMARK VINA RESULT:      -7.6      0.660      1.205
REMARK  Name = 
REMARK  10 active torsions:
REMARK  status: ('A' for Active; 'I' for Inactive)
REMARK    1  A    between atoms: N_2  and  C_4
REMARK    2  A    between atoms: C_9  and  C_10
REMARK    3  A    between atoms: C_11  and  C_12
REMARK    4  A    between atoms: C_11  and  C_21
REMARK    5  A    between atoms: C_21  and  P_22
REMARK    6  A    between atoms: C_21  and  P_26
REMARK    7  A    between atoms: P_22  and  O_24
REMARK    8  A    between atoms: P_22  and  O_25
REMARK    9  A    between atoms: P_26  and  O_28
REMARK   10  A    between atoms: P_26  and  O_29
REMARK                            x       y       z     vdW  Elec       q    Type
REMARK                         _______ _______ _______ _____ _____    ______ ____
ROOT
ATOM      1  C   UNL     1       4.119   4.602  18.795  0.00  0.00    +0.000 C 
ATOM      2  C   UNL     1       4.307   5.910  18.448  0.00  0.00    +0.000 C 
ENDROOT
BRANCH   2   3
ATOM      3  C   UNL     1       3.413   7.021  18.689  0.00  0.00    +0.000 A 
ATOM      4  N   UNL     1       2.839   7.139  19.876  0.00  0.00    +0.000 NA
ATOM      5  C   UNL     1       1.855   8.114  19.892  0.00  0.00    +0.000 A 
ATOM      6  C   UNL     1       0.966   8.334  20.968  0.00  0.00    +0.000 A 
ATOM      7  C   UNL     1      -0.090   9.229  20.821  0.00  0.00    +0.000 A 
ATOM      8  C   UNL     1      -0.226   9.948  19.639  0.00  0.00    +0.000 A 
ATOM      9  C   UNL     1       0.678   9.786  18.575  0.00  0.00    +0.000 A 
ATOM     10  C   UNL     1       1.704   8.821  18.706  0.00  0.00    +0.000 A 
ATOM     11  S   UNL     1       2.902   8.244  17.580  0.00  0.00    +0.000 S 
ENDBRANCH   2   3
BRANCH   1  17
ATOM     12  C   UNL     1       2.022   3.151  18.976  0.00  0.00    +0.000 A 
ATOM     13  C   UNL     1       0.977   2.578  19.736  0.00  0.00    +0.000 A 
ATOM     14  C   UNL     1       1.064   2.574  21.123  0.00  0.00    +0.000 A 
ATOM     15  C   UNL     1       2.182   3.141  21.730  0.00  0.00    +0.000 A 
ATOM     16  C   UNL     1       3.223   3.703  20.956  0.00  0.00    +0.000 A 
ATOM     17  C   UNL     1       3.178   3.716  19.546  0.00  0.00    +0.000 A 
BRANCH  12  19
ATOM     18  O   UNL     1       2.257   2.514  16.793  0.00  0.00    +0.000 OA
ATOM     19  N   UNL     1       1.752   3.330  17.569  0.00  0.00    +0.000 N 
ATOM     20  O   UNL     1       0.983   4.248  17.258  0.00  0.00    +0.000 OA
ENDBRANCH  12  19
ENDBRANCH   1  17
BRANCH   2  21
ATOM     21  C   UNL     1       5.663   6.214  17.700  0.00  0.00    +0.000 C 
BRANCH  21  22
ATOM     22  P   UNL     1       7.158   5.422  18.399  0.00  0.00    +0.000 P 
ATOM     23  O   UNL     1       7.966   6.719  18.294  0.00  0.00    +0.000 OA
BRANCH  22  24
ATOM     24  O   UNL     1       6.572   5.527  19.933  0.00  0.00    +0.000 OA
ATOM     25  H   UNL     1       5.776   6.092  19.940  0.00  0.00    +0.000 HD
ENDBRANCH  22  24
BRANCH  22  26
ATOM     26  O   UNL     1       8.570   4.673  19.059  0.00  0.00    +0.000 OA
ATOM     27  H   UNL     1       9.228   4.699  18.334  0.00  0.00    +0.000 HD
ENDBRANCH  22  26
ENDBRANCH  21  22
BRANCH  21  28
ATOM     28  P   UNL     1       5.663   5.886  15.904  0.00  0.00    +0.000 P 
ATOM     29  O   UNL     1       5.009   6.920  15.050  0.00  0.00    +0.000 OA
BRANCH  28  30
ATOM     30  O   UNL     1       7.141   5.572  15.380  0.00  0.00    +0.000 OA
ATOM     31  H   UNL     1       7.857   5.800  16.015  0.00  0.00    +0.000 HD
ENDBRANCH  28  30
BRANCH  28  32
ATOM     32  O   UNL     1       4.996   4.449  15.675  0.00  0.00    +0.000 OA
ATOM     33  H   UNL     1       4.519   4.180  16.487  0.00  0.00    +0.000 HD
ENDBRANCH  28  32
ENDBRANCH  21  28
ENDBRANCH   2  21
TORSDOF 10
ENDMDL
MODEL 7
REMARK VINA RESULT:      -7.6      0.978      2.451
REMARK  Name = 
REMARK  10 active torsions:
REMARK  status: ('A' for Active; 'I' for Inactive)
REMARK    1  A    between atoms: N_2  and  C_4
REMARK    2  A    between atoms: C_9  and  C_10
REMARK    3  A    between atoms: C_11  and  C_12
REMARK    4  A    between atoms: C_11  and  C_21
REMARK    5  A    between atoms: C_21  and  P_22
REMARK    6  A    between atoms: C_21  and  P_26
REMARK    7  A    between atoms: P_22  and  O_24
REMARK    8  A    between atoms: P_22  and  O_25
REMARK    9  A    between atoms: P_26  and  O_28
REMARK   10  A    between atoms: P_26  and  O_29
REMARK                            x       y       z     vdW  Elec       q    Type
REMARK                         _______ _______ _______ _____ _____    ______ ____
ROOT
ATOM      1  C   UNL     1       4.357   3.424  19.015  0.00  0.00    +0.000 C 
ATOM      2  C   UNL     1       4.845   4.595  18.510  0.00  0.00    +0.000 C 
ENDROOT
BRANCH   2   3
ATOM      3  C   UNL     1       4.184   5.881  18.475  0.00  0.00    +0.000 A 
ATOM      4  N   UNL     1       3.480   6.270  19.526  0.00  0.00    +0.000 NA
ATOM      5  C   UNL     1       2.736   7.411  19.270  0.00  0.00    +0.000 A 
ATOM      6  C   UNL     1       1.766   7.945  20.147  0.00  0.00    +0.000 A 
ATOM      7  C   UNL     1       0.960   9.001  19.727  0.00  0.00    +0.000 A 
ATOM      8  C   UNL     1       1.157   9.562  18.471  0.00  0.00    +0.000 A 
ATOM      9  C   UNL     1       2.153   9.082  17.602  0.00  0.00    +0.000 A 
ATOM     10  C   UNL     1       2.918   7.963  18.008  0.00  0.00    +0.000 A 
ATOM     11  S   UNL     1       4.117   7.015  17.173  0.00  0.00    +0.000 S 
ENDBRANCH   2   3
BRANCH   1  17
ATOM     12  C   UNL     1       1.897   2.755  19.212  0.00  0.00    +0.000 A 
ATOM     13  C   UNL     1       0.735   2.532  19.984  0.00  0.00    +0.000 A 
ATOM     14  C   UNL     1       0.841   2.434  21.367  0.00  0.00    +0.000 A 
ATOM     15  C   UNL     1       2.096   2.564  21.957  0.00  0.00    +0.000 A 
ATOM     16  C   UNL     1       3.251   2.779  21.170  0.00  0.00    +0.000 A 
ATOM     17  C   UNL     1       3.186   2.871  19.763  0.00  0.00    +0.000 A 
BRANCH  12  19
ATOM     18  O   UNL     1       2.036   2.244  16.988  0.00  0.00    +0.000 OA
ATOM     19  N   UNL     1       1.677   3.079  17.822  0.00  0.00    +0.000 N 
ATOM     20  O   UNL     1       1.087   4.139  17.580  0.00  0.00    +0.000 OA
ENDBRANCH  12  19
ENDBRANCH   1  17
BRANCH   2  21
ATOM     21  C   UNL     1       6.297   4.504  17.899  0.00  0.00    +0.000 C 
BRANCH  21  22
ATOM     22  P   UNL     1       6.440   4.883  16.114  0.00  0.00    +0.000 P 
ATOM     23  O   UNL     1       7.922   4.495  16.090  0.00  0.00    +0.000 OA
BRANCH  22  24
ATOM     24  O   UNL     1       5.724   3.463  15.692  0.00  0.00    +0.000 OA
ATOM     25  H   UNL     1       4.802   3.631  15.420  0.00  0.00    +0.000 HD
ENDBRANCH  22  24
BRANCH  22  26
ATOM     26  O   UNL     1       6.575   5.242  14.428  0.00  0.00    +0.000 OA
ATOM     27  H   UNL     1       5.676   5.091  14.068  0.00  0.00    +0.000 HD
ENDBRANCH  22  26
ENDBRANCH  21  22
BRANCH  21  28
ATOM     28  P   UNL     1       7.579   5.474  18.765  0.00  0.00    +0.000 P 
ATOM     29  O   UNL     1       7.857   6.832  18.212  0.00  0.00    +0.000 OA
BRANCH  28  30
ATOM     30  O   UNL     1       7.274   5.555  20.332  0.00  0.00    +0.000 OA
ATOM     31  H   UNL     1       7.330   6.461  20.714  0.00  0.00    +0.000 HD
ENDBRANCH  28  30
BRANCH  28  32
ATOM     32  O   UNL     1       8.911   4.588  18.804  0.00  0.00    +0.000 OA
ATOM     33  H   UNL     1       8.867   3.969  19.562  0.00  0.00    +0.000 HD
ENDBRANCH  28  32
ENDBRANCH  21  28
ENDBRANCH   2  21
TORSDOF 10
ENDMDL
MODEL 8
REMARK VINA RESULT:      -7.6      0.791      1.032
REMARK  Name = 
REMARK  10 active torsions:
REMARK  status: ('A' for Active; 'I' for Inactive)
REMARK    1  A    between atoms: N_2  and  C_4
REMARK    2  A    between atoms: C_9  and  C_10
REMARK    3  A    between atoms: C_11  and  C_12
REMARK    4  A    between atoms: C_11  and  C_21
REMARK    5  A    between atoms: C_21  and  P_22
REMARK    6  A    between atoms: C_21  and  P_26
REMARK    7  A    between atoms: P_22  and  O_24
REMARK    8  A    between atoms: P_22  and  O_25
REMARK    9  A    between atoms: P_26  and  O_28
REMARK   10  A    between atoms: P_26  and  O_29
REMARK                            x       y       z     vdW  Elec       q    Type
REMARK                         _______ _______ _______ _____ _____    ______ ____
ROOT
ATOM      1  C   UNL     1       4.210   4.646  18.911  0.00  0.00    +0.000 C 
ATOM      2  C   UNL     1       4.398   5.941  18.519  0.00  0.00    +0.000 C 
ENDROOT
BRANCH   2   3
ATOM      3  C   UNL     1       3.481   7.049  18.670  0.00  0.00    +0.000 A 
ATOM      4  N   UNL     1       2.882   7.233  19.837  0.00  0.00    +0.000 NA
ATOM      5  C   UNL     1       1.881   8.189  19.771  0.00  0.00    +0.000 A 
ATOM      6  C   UNL     1       0.968   8.461  20.814  0.00  0.00    +0.000 A 
ATOM      7  C   UNL     1      -0.101   9.326  20.589  0.00  0.00    +0.000 A 
ATOM      8  C   UNL     1      -0.226   9.964  19.361  0.00  0.00    +0.000 A 
ATOM      9  C   UNL     1       0.701   9.749  18.325  0.00  0.00    +0.000 A 
ATOM     10  C   UNL     1       1.741   8.814  18.538  0.00  0.00    +0.000 A 
ATOM     11  S   UNL     1       2.970   8.187  17.475  0.00  0.00    +0.000 S 
ENDBRANCH   2   3
BRANCH   1  17
ATOM     12  C   UNL     1       2.538   2.718  19.059  0.00  0.00    +0.000 A 
ATOM     13  C   UNL     1       1.414   2.098  19.651  0.00  0.00    +0.000 A 
ATOM     14  C   UNL     1       0.952   2.554  20.880  0.00  0.00    +0.000 A 
ATOM     15  C   UNL     1       1.608   3.617  21.496  0.00  0.00    +0.000 A 
ATOM     16  C   UNL     1       2.736   4.221  20.894  0.00  0.00    +0.000 A 
ATOM     17  C   UNL     1       3.244   3.779  19.654  0.00  0.00    +0.000 A 
BRANCH  12  19
ATOM     18  O   UNL     1       2.269   3.028  16.810  0.00  0.00    +0.000 OA
ATOM     19  N   UNL     1       2.809   2.352  17.689  0.00  0.00    +0.000 N 
ATOM     20  O   UNL     1       3.614   1.431  17.503  0.00  0.00    +0.000 OA
ENDBRANCH  12  19
ENDBRANCH   1  17
BRANCH   2  21
ATOM     21  C   UNL     1       5.785   6.232  17.823  0.00  0.00    +0.000 C 
BRANCH  21  22
ATOM     22  P   UNL     1       7.271   5.683  18.739  0.00  0.00    +0.000 P 
ATOM     23  O   UNL     1       6.457   5.395  20.005  0.00  0.00    +0.000 OA
BRANCH  22  24
ATOM     24  O   UNL     1       7.257   4.211  18.003  0.00  0.00    +0.000 OA
ATOM     25  H   UNL     1       7.520   4.312  17.068  0.00  0.00    +0.000 HD
ENDBRANCH  22  24
BRANCH  22  26
ATOM     26  O   UNL     1       8.675   5.163  19.605  0.00  0.00    +0.000 OA
ATOM     27  H   UNL     1       8.334   4.848  20.468  0.00  0.00    +0.000 HD
ENDBRANCH  22  26
ENDBRANCH  21  22
BRANCH  21  28
ATOM     28  P   UNL     1       5.949   5.628  16.109  0.00  0.00    +0.000 P 
ATOM     29  O   UNL     1       7.344   5.456  15.606  0.00  0.00    +0.000 OA
BRANCH  28  30
ATOM     30  O   UNL     1       5.101   4.291  15.889  0.00  0.00    +0.000 OA
ATOM     31  H   UNL     1       4.170   4.439  15.604  0.00  0.00    +0.000 HD
ENDBRANCH  28  30
BRANCH  28  32
ATOM     32  O   UNL     1       5.120   6.619  15.166  0.00  0.00    +0.000 OA
ATOM     33  H   UNL     1       4.792   6.128  14.384  0.00  0.00    +0.000 HD
ENDBRANCH  28  32
ENDBRANCH  21  28
ENDBRANCH   2  21
TORSDOF 10
ENDMDL
MODEL 9
REMARK VINA RESULT:      -7.6      2.885      5.407
REMARK  Name = 
REMARK  10 active torsions:
REMARK  status: ('A' for Active; 'I' for Inactive)
REMARK    1  A    between atoms: N_2  and  C_4
REMARK    2  A    between atoms: C_9  and  C_10
REMARK    3  A    between atoms: C_11  and  C_12
REMARK    4  A    between atoms: C_11  and  C_21
REMARK    5  A    between atoms: C_21  and  P_22
REMARK    6  A    between atoms: C_21  and  P_26
REMARK    7  A    between atoms: P_22  and  O_24
REMARK    8  A    between atoms: P_22  and  O_25
REMARK    9  A    between atoms: P_26  and  O_28
REMARK   10  A    between atoms: P_26  and  O_29
REMARK                            x       y       z     vdW  Elec       q    Type
REMARK                         _______ _______ _______ _____ _____    ______ ____
ROOT
ATOM      1  C   UNL     1       4.690   3.810  17.547  0.00  0.00    +0.000 C 
ATOM      2  C   UNL     1       3.792   4.427  18.370  0.00  0.00    +0.000 C 
ENDROOT
BRANCH   2   3
ATOM      3  C   UNL     1       3.436   5.828  18.392  0.00  0.00    +0.000 A 
ATOM      4  N   UNL     1       2.782   6.308  19.438  0.00  0.00    +0.000 NA
ATOM      5  C   UNL     1       2.325   7.600  19.227  0.00  0.00    +0.000 A 
ATOM      6  C   UNL     1       1.453   8.290  20.099  0.00  0.00    +0.000 A 
ATOM      7  C   UNL     1       0.925   9.521  19.716  0.00  0.00    +0.000 A 
ATOM      8  C   UNL     1       1.308  10.091  18.508  0.00  0.00    +0.000 A 
ATOM      9  C   UNL     1       2.216   9.447  17.649  0.00  0.00    +0.000 A 
ATOM     10  C   UNL     1       2.691   8.164  18.012  0.00  0.00    +0.000 A 
ATOM     11  S   UNL     1       3.691   7.017  17.165  0.00  0.00    +0.000 S 
ENDBRANCH   2   3
BRANCH   1  17
ATOM     12  C   UNL     1       6.785   4.790  16.456  0.00  0.00    +0.000 A 
ATOM     13  C   UNL     1       7.465   5.313  15.333  0.00  0.00    +0.000 A 
ATOM     14  C   UNL     1       6.920   5.144  14.065  0.00  0.00    +0.000 A 
ATOM     15  C   UNL     1       5.712   4.464  13.936  0.00  0.00    +0.000 A 
ATOM     16  C   UNL     1       5.048   3.940  15.069  0.00  0.00    +0.000 A 
ATOM     17  C   UNL     1       5.574   4.079  16.371  0.00  0.00    +0.000 A 
BRANCH  12  19
ATOM     18  O   UNL     1       7.050   6.369  18.087  0.00  0.00    +0.000 OA
ATOM     19  N   UNL     1       7.284   5.207  17.745  0.00  0.00    +0.000 N 
ATOM     20  O   UNL     1       7.850   4.349  18.433  0.00  0.00    +0.000 OA
ENDBRANCH  12  19
ENDBRANCH   1  17
BRANCH   2  21
ATOM     21  C   UNL     1       3.075   3.476  19.407  0.00  0.00    +0.000 C 
BRANCH  21  22
ATOM     22  P   UNL     1       1.585   2.606  18.798  0.00  0.00    +0.000 P 
ATOM     23  O   UNL     1       0.786   2.974  20.052  0.00  0.00    +0.000 OA
BRANCH  22  24
ATOM     24  O   UNL     1       1.196   3.847  17.789  0.00  0.00    +0.000 OA
ATOM     25  H   UNL     1       1.640   4.663  18.090  0.00  0.00    +0.000 HD
ENDBRANCH  22  24
BRANCH  22  26
ATOM     26  O   UNL     1       0.176   1.784  18.222  0.00  0.00    +0.000 OA
ATOM     27  H   UNL     1      -0.511   1.964  18.897  0.00  0.00    +0.000 HD
ENDBRANCH  22  26
ENDBRANCH  21  22
BRANCH  21  28
ATOM     28  P   UNL     1       4.145   2.230  20.203  0.00  0.00    +0.000 P 
ATOM     29  O   UNL     1       3.787   1.861  21.605  0.00  0.00    +0.000 OA
BRANCH  28  30
ATOM     30  O   UNL     1       4.277   0.923  19.292  0.00  0.00    +0.000 OA
ATOM     31  H   UNL     1       3.673   0.186  19.543  0.00  0.00    +0.000 HD
ENDBRANCH  28  30
BRANCH  28  32
ATOM     32  O   UNL     1       5.652   2.760  20.118  0.00  0.00    +0.000 OA
ATOM     33  H   UNL     1       5.976   2.671  19.198  0.00  0.00    +0.000 HD
ENDBRANCH  28  32
ENDBRANCH  21  28
ENDBRANCH   2  21
TORSDOF 10
ENDMDL
