MODEL 1
REMARK VINA RESULT:      -8.0      0.000      0.000
REMARK  Name = 
REMARK  5 active torsions:
REMARK  status: ('A' for Active; 'I' for Inactive)
REMARK    1  A    between atoms: C_1  and  O_2
REMARK    2  A    between atoms: O_2  and  C_3
REMARK    3  A    between atoms: C_3  and  C_5
REMARK    4  A    between atoms: C_10  and  C_11
REMARK    5  A    between atoms: C_21  and  O_22
REMARK                            x       y       z     vdW  Elec       q    Type
REMARK                         _______ _______ _______ _____ _____    ______ ____
ROOT
ATOM      1  C   UNL     1       0.638   9.747  19.546  0.00  0.00    +0.000 A 
ATOM      2  C   UNL     1       1.266  10.311  18.438  0.00  0.00    +0.000 A 
ATOM      3  C   UNL     1       2.283   9.599  17.789  0.00  0.00    +0.000 A 
ATOM      4  C   UNL     1       2.675   8.341  18.232  0.00  0.00    +0.000 A 
ATOM      5  N   UNL     1       3.651   7.711  17.576  0.00  0.00    +0.000 NA
ATOM      6  C   UNL     1       4.019   6.464  18.002  0.00  0.00    +0.000 A 
ATOM      7  C   UNL     1       3.383   5.823  19.109  0.00  0.00    +0.000 A 
ATOM      8  N   UNL     1       3.640   4.554  19.592  0.00  0.00    +0.000 N 
ATOM      9  C   UNL     1       2.903   4.020  20.739  0.00  0.00    +0.000 C 
ATOM     10  C   UNL     1       3.532   2.644  20.981  0.00  0.00    +0.000 C 
ATOM     11  C   UNL     1       3.907   2.174  19.588  0.00  0.00    +0.000 C 
ATOM     12  C   UNL     1       4.340   3.473  18.904  0.00  0.00    +0.000 C 
ATOM     13  N   UNL     1       2.403   6.517  19.766  0.00  0.00    +0.000 NA
ATOM     14  C   UNL     1       2.044   7.753  19.343  0.00  0.00    +0.000 A 
ATOM     15  C   UNL     1       1.027   8.476  19.982  0.00  0.00    +0.000 A 
ENDROOT
BRANCH   6  16
ATOM     16  C   UNL     1       5.069   5.888  17.132  0.00  0.00    +0.000 A 
ATOM     17  C   UNL     1       6.411   5.798  17.523  0.00  0.00    +0.000 A 
ATOM     18  C   UNL     1       7.297   4.943  16.859  0.00  0.00    +0.000 A 
ATOM     19  C   UNL     1       6.906   4.315  15.681  0.00  0.00    +0.000 A 
ATOM     20  C   UNL     1       5.649   4.580  15.148  0.00  0.00    +0.000 A 
ATOM     21  C   UNL     1       4.735   5.350  15.875  0.00  0.00    +0.000 A 
ENDBRANCH   6  16
BRANCH   1  22
ATOM     22  C   UNL     1      -0.446  10.474  20.288  0.00  0.00    +0.000 C 
ATOM     23  O   UNL     1      -1.223  11.251  19.763  0.00  0.00    +0.000 OA
BRANCH  22  25
ATOM     24  C   UNL     1      -0.757  11.163  22.513  0.00  0.00    +0.000 C 
ATOM     25  O   UNL     1      -0.433  10.113  21.594  0.00  0.00    +0.000 OA
ENDBRANCH  22  25
ENDBRANCH   1  22
BRANCH  11  26
ATOM     26  O   UNL     1       4.959   1.214  19.641  0.00  0.00    +0.000 OA
ATOM     27  H   UNL     1       5.647   1.544  20.247  0.00  0.00    +0.000 HD
ENDBRANCH  11  26
TORSDOF 4
ENDMDL
MODEL 2
REMARK VINA RESULT:      -7.8      0.505      1.064
REMARK  Name = 
REMARK  5 active torsions:
REMARK  status: ('A' for Active; 'I' for Inactive)
REMARK    1  A    between atoms: C_1  and  O_2
REMARK    2  A    between atoms: O_2  and  C_3
REMARK    3  A    between atoms: C_3  and  C_5
REMARK    4  A    between atoms: C_10  and  C_11
REMARK    5  A    between atoms: C_21  and  O_22
REMARK                            x       y       z     vdW  Elec       q    Type
REMARK                         _______ _______ _______ _____ _____    ______ ____
ROOT
ATOM      1  C   UNL     1       0.863   9.406  19.662  0.00  0.00    +0.000 A 
ATOM      2  C   UNL     1       1.449   9.956  18.524  0.00  0.00    +0.000 A 
ATOM      3  C   UNL     1       2.404   9.215  17.818  0.00  0.00    +0.000 A 
ATOM      4  C   UNL     1       2.776   7.941  18.231  0.00  0.00    +0.000 A 
ATOM      5  N   UNL     1       3.692   7.282  17.519  0.00  0.00    +0.000 NA
ATOM      6  C   UNL     1       4.039   6.021  17.918  0.00  0.00    +0.000 A 
ATOM      7  C   UNL     1       3.442   5.394  19.053  0.00  0.00    +0.000 A 
ATOM      8  N   UNL     1       3.682   4.113  19.514  0.00  0.00    +0.000 N 
ATOM      9  C   UNL     1       2.989   3.596  20.697  0.00  0.00    +0.000 C 
ATOM     10  C   UNL     1       3.582   2.197  20.897  0.00  0.00    +0.000 C 
ATOM     11  C   UNL     1       3.865   1.725  19.482  0.00  0.00    +0.000 C 
ATOM     12  C   UNL     1       4.305   3.013  18.783  0.00  0.00    +0.000 C 
ATOM     13  N   UNL     1       2.524   6.115  19.767  0.00  0.00    +0.000 NA
ATOM     14  C   UNL     1       2.185   7.366  19.372  0.00  0.00    +0.000 A 
ATOM     15  C   UNL     1       1.231   8.118  20.069  0.00  0.00    +0.000 A 
ENDROOT
BRANCH   6  16
ATOM     16  C   UNL     1       5.020   5.415  16.988  0.00  0.00    +0.000 A 
ATOM     17  C   UNL     1       4.644   4.794  15.790  0.00  0.00    +0.000 A 
ATOM     18  C   UNL     1       5.581   4.561  14.777  0.00  0.00    +0.000 A 
ATOM     19  C   UNL     1       6.934   4.769  15.021  0.00  0.00    +0.000 A 
ATOM     20  C   UNL     1       7.350   5.163  16.288  0.00  0.00    +0.000 A 
ATOM     21  C   UNL     1       6.399   5.496  17.258  0.00  0.00    +0.000 A 
ENDBRANCH   6  16
BRANCH   1  22
ATOM     22  C   UNL     1      -0.154  10.163  20.466  0.00  0.00    +0.000 C 
ATOM     23  O   UNL     1      -0.701  11.181  20.081  0.00  0.00    +0.000 OA
BRANCH  22  25
ATOM     24  C   UNL     1      -0.513  10.401  22.776  0.00  0.00    +0.000 C 
ATOM     25  O   UNL     1      -0.372   9.533  21.645  0.00  0.00    +0.000 OA
ENDBRANCH  22  25
ENDBRANCH   1  22
BRANCH  11  26
ATOM     26  O   UNL     1       4.884   0.729  19.472  0.00  0.00    +0.000 OA
ATOM     27  H   UNL     1       4.459  -0.147  19.469  0.00  0.00    +0.000 HD
ENDBRANCH  11  26
TORSDOF 4
ENDMDL
MODEL 3
REMARK VINA RESULT:      -7.7      2.043      4.276
REMARK  Name = 
REMARK  5 active torsions:
REMARK  status: ('A' for Active; 'I' for Inactive)
REMARK    1  A    between atoms: C_1  and  O_2
REMARK    2  A    between atoms: O_2  and  C_3
REMARK    3  A    between atoms: C_3  and  C_5
REMARK    4  A    between atoms: C_10  and  C_11
REMARK    5  A    between atoms: C_21  and  O_22
REMARK                            x       y       z     vdW  Elec       q    Type
REMARK                         _______ _______ _______ _____ _____    ______ ____
ROOT
ATOM      1  C   UNL     1       1.377  11.280  18.925  0.00  0.00    +0.000 A 
ATOM      2  C   UNL     1       0.624  10.800  19.994  0.00  0.00    +0.000 A 
ATOM      3  C   UNL     1       0.659   9.434  20.300  0.00  0.00    +0.000 A 
ATOM      4  C   UNL     1       1.433   8.551  19.557  0.00  0.00    +0.000 A 
ATOM      5  N   UNL     1       1.426   7.260  19.894  0.00  0.00    +0.000 NA
ATOM      6  C   UNL     1       2.206   6.397  19.174  0.00  0.00    +0.000 A 
ATOM      7  C   UNL     1       3.027   6.841  18.093  0.00  0.00    +0.000 A 
ATOM      8  N   UNL     1       3.885   6.069  17.333  0.00  0.00    +0.000 N 
ATOM      9  C   UNL     1       4.675   6.662  16.251  0.00  0.00    +0.000 C 
ATOM     10  C   UNL     1       5.421   5.473  15.637  0.00  0.00    +0.000 C 
ATOM     11  C   UNL     1       5.674   4.560  16.823  0.00  0.00    +0.000 C 
ATOM     12  C   UNL     1       4.407   4.745  17.661  0.00  0.00    +0.000 C 
ATOM     13  N   UNL     1       2.984   8.170  17.768  0.00  0.00    +0.000 NA
ATOM     14  C   UNL     1       2.208   9.020  18.481  0.00  0.00    +0.000 A 
ATOM     15  C   UNL     1       2.164  10.390  18.186  0.00  0.00    +0.000 A 
ENDROOT
BRANCH   6  16
ATOM     16  C   UNL     1       2.125   5.021  19.716  0.00  0.00    +0.000 A 
ATOM     17  C   UNL     1       2.671   4.662  20.954  0.00  0.00    +0.000 A 
ATOM     18  C   UNL     1       2.277   3.484  21.598  0.00  0.00    +0.000 A 
ATOM     19  C   UNL     1       1.483   2.559  20.930  0.00  0.00    +0.000 A 
ATOM     20  C   UNL     1       1.124   2.792  19.607  0.00  0.00    +0.000 A 
ATOM     21  C   UNL     1       1.432   4.019  19.010  0.00  0.00    +0.000 A 
ENDBRANCH   6  16
BRANCH   1  22
ATOM     22  C   UNL     1       1.362  12.732  18.543  0.00  0.00    +0.000 C 
ATOM     23  O   UNL     1       0.399  13.461  18.689  0.00  0.00    +0.000 OA
BRANCH  22  25
ATOM     24  C   UNL     1       3.189  14.200  18.709  0.00  0.00    +0.000 C 
ATOM     25  O   UNL     1       2.571  13.090  18.046  0.00  0.00    +0.000 OA
ENDBRANCH  22  25
ENDBRANCH   1  22
BRANCH  11  26
ATOM     26  O   UNL     1       5.849   3.211  16.398  0.00  0.00    +0.000 OA
ATOM     27  H   UNL     1       6.031   2.662  17.181  0.00  0.00    +0.000 HD
ENDBRANCH  11  26
TORSDOF 4
ENDMDL
MODEL 4
REMARK VINA RESULT:      -7.7      0.580      1.096
REMARK  Name = 
REMARK  5 active torsions:
REMARK  status: ('A' for Active; 'I' for Inactive)
REMARK    1  A    between atoms: C_1  and  O_2
REMARK    2  A    between atoms: O_2  and  C_3
REMARK    3  A    between atoms: C_3  and  C_5
REMARK    4  A    between atoms: C_10  and  C_11
REMARK    5  A    between atoms: C_21  and  O_22
REMARK                            x       y       z     vdW  Elec       q    Type
REMARK                         _______ _______ _______ _____ _____    ______ ____
ROOT
ATOM      1  C   UNL     1       0.753   9.739  19.347  0.00  0.00    +0.000 A 
ATOM      2  C   UNL     1       1.458  10.311  18.291  0.00  0.00    +0.000 A 
ATOM      3  C   UNL     1       2.481   9.580  17.673  0.00  0.00    +0.000 A 
ATOM      4  C   UNL     1       2.803   8.296  18.095  0.00  0.00    +0.000 A 
ATOM      5  N   UNL     1       3.788   7.648  17.470  0.00  0.00    +0.000 NA
ATOM      6  C   UNL     1       4.087   6.376  17.875  0.00  0.00    +0.000 A 
ATOM      7  C   UNL     1       3.371   5.727  18.926  0.00  0.00    +0.000 A 
ATOM      8  N   UNL     1       3.556   4.435  19.381  0.00  0.00    +0.000 N 
ATOM      9  C   UNL     1       2.740   3.896  20.472  0.00  0.00    +0.000 C 
ATOM     10  C   UNL     1       3.304   2.490  20.702  0.00  0.00    +0.000 C 
ATOM     11  C   UNL     1       3.734   2.047  19.315  0.00  0.00    +0.000 C 
ATOM     12  C   UNL     1       4.250   3.349  18.696  0.00  0.00    +0.000 C 
ATOM     13  N   UNL     1       2.384   6.438  19.554  0.00  0.00    +0.000 NA
ATOM     14  C   UNL     1       2.093   7.699  19.153  0.00  0.00    +0.000 A 
ATOM     15  C   UNL     1       1.072   8.441  19.762  0.00  0.00    +0.000 A 
ENDROOT
BRANCH   6  16
ATOM     16  C   UNL     1       5.159   5.786  17.041  0.00  0.00    +0.000 A 
ATOM     17  C   UNL     1       6.462   5.584  17.515  0.00  0.00    +0.000 A 
ATOM     18  C   UNL     1       7.338   4.715  16.857  0.00  0.00    +0.000 A 
ATOM     19  C   UNL     1       6.995   4.187  15.618  0.00  0.00    +0.000 A 
ATOM     20  C   UNL     1       5.798   4.567  15.019  0.00  0.00    +0.000 A 
ATOM     21  C   UNL     1       4.883   5.349  15.732  0.00  0.00    +0.000 A 
ENDBRANCH   6  16
BRANCH   1  22
ATOM     22  C   UNL     1      -0.341  10.484  20.056  0.00  0.00    +0.000 C 
ATOM     23  O   UNL     1      -0.469  10.510  21.266  0.00  0.00    +0.000 OA
BRANCH  22  25
ATOM     24  C   UNL     1      -2.034  10.277  18.440  0.00  0.00    +0.000 C 
ATOM     25  O   UNL     1      -1.124  11.122  19.153  0.00  0.00    +0.000 OA
ENDBRANCH  22  25
ENDBRANCH   1  22
BRANCH  11  26
ATOM     26  O   UNL     1       4.746   1.047  19.391  0.00  0.00    +0.000 OA
ATOM     27  H   UNL     1       4.730   0.660  20.285  0.00  0.00    +0.000 HD
ENDBRANCH  11  26
TORSDOF 4
ENDMDL
MODEL 5
REMARK VINA RESULT:      -7.3      1.989      7.649
REMARK  Name = 
REMARK  5 active torsions:
REMARK  status: ('A' for Active; 'I' for Inactive)
REMARK    1  A    between atoms: C_1  and  O_2
REMARK    2  A    between atoms: O_2  and  C_3
REMARK    3  A    between atoms: C_3  and  C_5
REMARK    4  A    between atoms: C_10  and  C_11
REMARK    5  A    between atoms: C_21  and  O_22
REMARK                            x       y       z     vdW  Elec       q    Type
REMARK                         _______ _______ _______ _____ _____    ______ ____
ROOT
ATOM      1  C   UNL     1       4.096   5.485  18.545  0.00  0.00    +0.000 A 
ATOM      2  C   UNL     1       4.273   6.195  17.360  0.00  0.00    +0.000 A 
ATOM      3  C   UNL     1       3.582   7.399  17.171  0.00  0.00    +0.000 A 
ATOM      4  C   UNL     1       2.725   7.896  18.145  0.00  0.00    +0.000 A 
ATOM      5  N   UNL     1       2.093   9.048  17.909  0.00  0.00    +0.000 NA
ATOM      6  C   UNL     1       1.267   9.544  18.880  0.00  0.00    +0.000 A 
ATOM      7  C   UNL     1       1.078   8.878  20.128  0.00  0.00    +0.000 A 
ATOM      8  N   UNL     1       0.309   9.311  21.192  0.00  0.00    +0.000 N 
ATOM      9  C   UNL     1       0.209   8.522  22.422  0.00  0.00    +0.000 C 
ATOM     10  C   UNL     1      -0.772   9.311  23.295  0.00  0.00    +0.000 C 
ATOM     11  C   UNL     1      -0.496  10.757  22.924  0.00  0.00    +0.000 C 
ATOM     12  C   UNL     1      -0.190  10.663  21.427  0.00  0.00    +0.000 C 
ATOM     13  N   UNL     1       1.728   7.688  20.317  0.00  0.00    +0.000 NA
ATOM     14  C   UNL     1       2.543   7.197  19.353  0.00  0.00    +0.000 A 
ATOM     15  C   UNL     1       3.240   5.994  19.529  0.00  0.00    +0.000 A 
ENDROOT
BRANCH   6  16
ATOM     16  C   UNL     1       0.695  10.850  18.480  0.00  0.00    +0.000 A 
ATOM     17  C   UNL     1      -0.642  11.002  18.089  0.00  0.00    +0.000 A 
ATOM     18  C   UNL     1      -1.244  12.265  18.070  0.00  0.00    +0.000 A 
ATOM     19  C   UNL     1      -0.472  13.407  18.252  0.00  0.00    +0.000 A 
ATOM     20  C   UNL     1       0.905  13.286  18.406  0.00  0.00    +0.000 A 
ATOM     21  C   UNL     1       1.480  12.017  18.533  0.00  0.00    +0.000 A 
ENDBRANCH   6  16
BRANCH   1  22
ATOM     22  C   UNL     1       4.797   4.181  18.792  0.00  0.00    +0.000 C 
ATOM     23  O   UNL     1       5.890   4.089  19.321  0.00  0.00    +0.000 OA
BRANCH  22  25
ATOM     24  C   UNL     1       3.551   2.284  19.400  0.00  0.00    +0.000 C 
ATOM     25  O   UNL     1       4.026   3.153  18.364  0.00  0.00    +0.000 OA
ENDBRANCH  22  25
ENDBRANCH   1  22
BRANCH  11  26
ATOM     26  O   UNL     1      -1.629  11.576  23.194  0.00  0.00    +0.000 OA
ATOM     27  H   UNL     1      -2.132  11.690  22.367  0.00  0.00    +0.000 HD
ENDBRANCH  11  26
TORSDOF 4
ENDMDL
MODEL 6
REMARK VINA RESULT:      -7.1      1.969      4.401
REMARK  Name = 
REMARK  5 active torsions:
REMARK  status: ('A' for Active; 'I' for Inactive)
REMARK    1  A    between atoms: C_1  and  O_2
REMARK    2  A    between atoms: O_2  and  C_3
REMARK    3  A    between atoms: C_3  and  C_5
REMARK    4  A    between atoms: C_10  and  C_11
REMARK    5  A    between atoms: C_21  and  O_22
REMARK                            x       y       z     vdW  Elec       q    Type
REMARK                         _______ _______ _______ _____ _____    ______ ____
ROOT
ATOM      1  C   UNL     1       0.370  11.118  20.954  0.00  0.00    +0.000 A 
ATOM      2  C   UNL     1      -0.280  10.345  21.914  0.00  0.00    +0.000 A 
ATOM      3  C   UNL     1      -0.092   8.957  21.920  0.00  0.00    +0.000 A 
ATOM      4  C   UNL     1       0.731   8.339  20.986  0.00  0.00    +0.000 A 
ATOM      5  N   UNL     1       0.871   7.013  21.040  0.00  0.00    +0.000 NA
ATOM      6  C   UNL     1       1.700   6.412  20.133  0.00  0.00    +0.000 A 
ATOM      7  C   UNL     1       2.420   7.159  19.152  0.00  0.00    +0.000 A 
ATOM      8  N   UNL     1       3.316   6.662  18.224  0.00  0.00    +0.000 N 
ATOM      9  C   UNL     1       3.990   7.552  17.275  0.00  0.00    +0.000 C 
ATOM     10  C   UNL     1       4.824   6.608  16.403  0.00  0.00    +0.000 C 
ATOM     11  C   UNL     1       5.223   5.499  17.360  0.00  0.00    +0.000 C 
ATOM     12  C   UNL     1       3.984   5.364  18.248  0.00  0.00    +0.000 C 
ATOM     13  N   UNL     1       2.228   8.514  19.120  0.00  0.00    +0.000 NA
ATOM     14  C   UNL     1       1.404   9.106  20.017  0.00  0.00    +0.000 A 
ATOM     15  C   UNL     1       1.208  10.494  20.023  0.00  0.00    +0.000 A 
ENDROOT
BRANCH   6  16
ATOM     16  C   UNL     1       1.785   4.952  20.369  0.00  0.00    +0.000 A 
ATOM     17  C   UNL     1       2.491   4.400  21.445  0.00  0.00    +0.000 A 
ATOM     18  C   UNL     1       2.262   3.081  21.852  0.00  0.00    +0.000 A 
ATOM     19  C   UNL     1       1.471   2.241  21.076  0.00  0.00    +0.000 A 
ATOM     20  C   UNL     1       0.950   2.707  19.874  0.00  0.00    +0.000 A 
ATOM     21  C   UNL     1       1.095   4.055  19.531  0.00  0.00    +0.000 A 
ENDBRANCH   6  16
BRANCH   1  22
ATOM     22  C   UNL     1       0.190  12.607  20.892  0.00  0.00    +0.000 C 
ATOM     23  O   UNL     1       0.839  13.396  21.555  0.00  0.00    +0.000 OA
BRANCH  22  25
ATOM     24  C   UNL     1      -0.308  13.677  18.860  0.00  0.00    +0.000 C 
ATOM     25  O   UNL     1      -0.767  12.918  19.986  0.00  0.00    +0.000 OA
ENDBRANCH  22  25
ENDBRANCH   1  22
BRANCH  11  26
ATOM     26  O   UNL     1       5.514   4.297  16.652  0.00  0.00    +0.000 OA
ATOM     27  H   UNL     1       6.026   4.524  15.856  0.00  0.00    +0.000 HD
ENDBRANCH  11  26
TORSDOF 4
ENDMDL
MODEL 7
REMARK VINA RESULT:      -7.1      1.909      4.355
REMARK  Name = 
REMARK  5 active torsions:
REMARK  status: ('A' for Active; 'I' for Inactive)
REMARK    1  A    between atoms: C_1  and  O_2
REMARK    2  A    between atoms: O_2  and  C_3
REMARK    3  A    between atoms: C_3  and  C_5
REMARK    4  A    between atoms: C_10  and  C_11
REMARK    5  A    between atoms: C_21  and  O_22
REMARK                            x       y       z     vdW  Elec       q    Type
REMARK                         _______ _______ _______ _____ _____    ______ ____
ROOT
ATOM      1  C   UNL     1       0.579  10.976  20.829  0.00  0.00    +0.000 A 
ATOM      2  C   UNL     1      -0.153  10.261  21.774  0.00  0.00    +0.000 A 
ATOM      3  C   UNL     1      -0.051   8.864  21.809  0.00  0.00    +0.000 A 
ATOM      4  C   UNL     1       0.767   8.181  20.918  0.00  0.00    +0.000 A 
ATOM      5  N   UNL     1       0.824   6.850  20.997  0.00  0.00    +0.000 NA
ATOM      6  C   UNL     1       1.648   6.183  20.132  0.00  0.00    +0.000 A 
ATOM      7  C   UNL     1       2.449   6.868  19.169  0.00  0.00    +0.000 A 
ATOM      8  N   UNL     1       3.346   6.301  18.284  0.00  0.00    +0.000 N 
ATOM      9  C   UNL     1       4.110   7.131  17.349  0.00  0.00    +0.000 C 
ATOM     10  C   UNL     1       4.916   6.122  16.524  0.00  0.00    +0.000 C 
ATOM     11  C   UNL     1       5.210   5.008  17.513  0.00  0.00    +0.000 C 
ATOM     12  C   UNL     1       3.932   4.965  18.354  0.00  0.00    +0.000 C 
ATOM     13  N   UNL     1       2.342   8.231  19.108  0.00  0.00    +0.000 NA
ATOM     14  C   UNL     1       1.522   8.888  19.964  0.00  0.00    +0.000 A 
ATOM     15  C   UNL     1       1.412  10.285  19.940  0.00  0.00    +0.000 A 
ENDROOT
BRANCH   6  16
ATOM     16  C   UNL     1       1.633   4.725  20.394  0.00  0.00    +0.000 A 
ATOM     17  C   UNL     1       0.970   3.814  19.563  0.00  0.00    +0.000 A 
ATOM     18  C   UNL     1       1.265   2.447  19.617  0.00  0.00    +0.000 A 
ATOM     19  C   UNL     1       2.080   1.952  20.628  0.00  0.00    +0.000 A 
ATOM     20  C   UNL     1       2.559   2.815  21.607  0.00  0.00    +0.000 A 
ATOM     21  C   UNL     1       2.348   4.192  21.483  0.00  0.00    +0.000 A 
ENDBRANCH   6  16
BRANCH   1  22
ATOM     22  C   UNL     1       0.494  12.471  20.737  0.00  0.00    +0.000 C 
ATOM     23  O   UNL     1       0.803  13.225  21.641  0.00  0.00    +0.000 OA
BRANCH  22  25
ATOM     24  C   UNL     1       0.893  13.763  18.815  0.00  0.00    +0.000 C 
ATOM     25  O   UNL     1       0.052  12.833  19.508  0.00  0.00    +0.000 OA
ENDBRANCH  22  25
ENDBRANCH   1  22
BRANCH  11  26
ATOM     26  O   UNL     1       5.452   3.779  16.835  0.00  0.00    +0.000 OA
ATOM     27  H   UNL     1       4.750   3.149  17.078  0.00  0.00    +0.000 HD
ENDBRANCH  11  26
TORSDOF 4
ENDMDL
MODEL 8
REMARK VINA RESULT:      -7.0      2.015      7.682
REMARK  Name = 
REMARK  5 active torsions:
REMARK  status: ('A' for Active; 'I' for Inactive)
REMARK    1  A    between atoms: C_1  and  O_2
REMARK    2  A    between atoms: O_2  and  C_3
REMARK    3  A    between atoms: C_3  and  C_5
REMARK    4  A    between atoms: C_10  and  C_11
REMARK    5  A    between atoms: C_21  and  O_22
REMARK                            x       y       z     vdW  Elec       q    Type
REMARK                         _______ _______ _______ _____ _____    ______ ____
ROOT
ATOM      1  C   UNL     1       4.101   5.578  18.349  0.00  0.00    +0.000 A 
ATOM      2  C   UNL     1       4.291   6.331  17.192  0.00  0.00    +0.000 A 
ATOM      3  C   UNL     1       3.613   7.549  17.046  0.00  0.00    +0.000 A 
ATOM      4  C   UNL     1       2.756   8.017  18.034  0.00  0.00    +0.000 A 
ATOM      5  N   UNL     1       2.136   9.183  17.839  0.00  0.00    +0.000 NA
ATOM      6  C   UNL     1       1.310   9.650  18.824  0.00  0.00    +0.000 A 
ATOM      7  C   UNL     1       1.108   8.938  20.045  0.00  0.00    +0.000 A 
ATOM      8  N   UNL     1       0.337   9.339  21.121  0.00  0.00    +0.000 N 
ATOM      9  C   UNL     1       0.224   8.504  22.319  0.00  0.00    +0.000 C 
ATOM     10  C   UNL     1      -0.754   9.269  23.217  0.00  0.00    +0.000 C 
ATOM     11  C   UNL     1      -0.462  10.726  22.903  0.00  0.00    +0.000 C 
ATOM     12  C   UNL     1      -0.149  10.686  21.405  0.00  0.00    +0.000 C 
ATOM     13  N   UNL     1       1.746   7.736  20.192  0.00  0.00    +0.000 NA
ATOM     14  C   UNL     1       2.561   7.274  19.213  0.00  0.00    +0.000 A 
ATOM     15  C   UNL     1       3.245   6.059  19.347  0.00  0.00    +0.000 A 
ENDROOT
BRANCH   6  16
ATOM     16  C   UNL     1       0.752  10.976  18.471  0.00  0.00    +0.000 A 
ATOM     17  C   UNL     1      -0.589  11.162  18.114  0.00  0.00    +0.000 A 
ATOM     18  C   UNL     1      -1.169  12.435  18.141  0.00  0.00    +0.000 A 
ATOM     19  C   UNL     1      -0.373  13.558  18.336  0.00  0.00    +0.000 A 
ATOM     20  C   UNL     1       1.004  13.409  18.458  0.00  0.00    +0.000 A 
ATOM     21  C   UNL     1       1.559  12.128  18.538  0.00  0.00    +0.000 A 
ENDBRANCH   6  16
BRANCH   1  22
ATOM     22  C   UNL     1       4.788   4.260  18.549  0.00  0.00    +0.000 C 
ATOM     23  O   UNL     1       4.315   3.190  18.212  0.00  0.00    +0.000 OA
BRANCH  22  25
ATOM     24  C   UNL     1       7.073   4.693  18.212  0.00  0.00    +0.000 C 
ATOM     25  O   UNL     1       5.998   4.453  19.128  0.00  0.00    +0.000 OA
ENDBRANCH  22  25
ENDBRANCH   1  22
BRANCH  11  26
ATOM     26  O   UNL     1      -1.589  11.546  23.198  0.00  0.00    +0.000 OA
ATOM     27  H   UNL     1      -2.391  11.096  22.876  0.00  0.00    +0.000 HD
ENDBRANCH  11  26
TORSDOF 4
ENDMDL
MODEL 9
REMARK VINA RESULT:      -6.8      1.852      4.049
REMARK  Name = 
REMARK  5 active torsions:
REMARK  status: ('A' for Active; 'I' for Inactive)
REMARK    1  A    between atoms: C_1  and  O_2
REMARK    2  A    between atoms: O_2  and  C_3
REMARK    3  A    between atoms: C_3  and  C_5
REMARK    4  A    between atoms: C_10  and  C_11
REMARK    5  A    between atoms: C_21  and  O_22
REMARK                            x       y       z     vdW  Elec       q    Type
REMARK                         _______ _______ _______ _____ _____    ______ ____
ROOT
ATOM      1  C   UNL     1       1.505  10.451  19.102  0.00  0.00    +0.000 A 
ATOM      2  C   UNL     1       0.893   9.780  20.158  0.00  0.00    +0.000 A 
ATOM      3  C   UNL     1       1.089   8.401  20.301  0.00  0.00    +0.000 A 
ATOM      4  C   UNL     1       1.884   7.692  19.409  0.00  0.00    +0.000 A 
ATOM      5  N   UNL     1       2.034   6.379  19.594  0.00  0.00    +0.000 NA
ATOM      6  C   UNL     1       2.835   5.689  18.726  0.00  0.00    +0.000 A 
ATOM      7  C   UNL     1       3.516   6.333  17.649  0.00  0.00    +0.000 A 
ATOM      8  N   UNL     1       4.382   5.745  16.747  0.00  0.00    +0.000 N 
ATOM      9  C   UNL     1       5.018   6.533  15.688  0.00  0.00    +0.000 C 
ATOM     10  C   UNL     1       5.827   5.506  14.890  0.00  0.00    +0.000 C 
ATOM     11  C   UNL     1       6.266   4.502  15.942  0.00  0.00    +0.000 C 
ATOM     12  C   UNL     1       5.059   4.458  16.882  0.00  0.00    +0.000 C 
ATOM     13  N   UNL     1       3.315   7.676  17.484  0.00  0.00    +0.000 NA
ATOM     14  C   UNL     1       2.519   8.356  18.343  0.00  0.00    +0.000 A 
ATOM     15  C   UNL     1       2.314   9.736  18.212  0.00  0.00    +0.000 A 
ENDROOT
BRANCH   6  16
ATOM     16  C   UNL     1       2.936   4.262  19.109  0.00  0.00    +0.000 A 
ATOM     17  C   UNL     1       2.052   3.286  18.632  0.00  0.00    +0.000 A 
ATOM     18  C   UNL     1       2.374   1.926  18.709  0.00  0.00    +0.000 A 
ATOM     19  C   UNL     1       3.489   1.516  19.432  0.00  0.00    +0.000 A 
ATOM     20  C   UNL     1       4.250   2.459  20.113  0.00  0.00    +0.000 A 
ATOM     21  C   UNL     1       3.983   3.821  19.942  0.00  0.00    +0.000 A 
ENDBRANCH   6  16
BRANCH   1  22
ATOM     22  C   UNL     1       1.314  11.925  18.893  0.00  0.00    +0.000 C 
ATOM     23  O   UNL     1       0.264  12.508  19.093  0.00  0.00    +0.000 OA
BRANCH  22  25
ATOM     24  C   UNL     1       2.415  13.900  18.253  0.00  0.00    +0.000 C 
ATOM     25  O   UNL     1       2.476  12.487  18.479  0.00  0.00    +0.000 OA
ENDBRANCH  22  25
ENDBRANCH   1  22
BRANCH  11  26
ATOM     26  O   UNL     1       6.540   3.235  15.353  0.00  0.00    +0.000 OA
ATOM     27  H   UNL     1       6.945   3.381  14.479  0.00  0.00    +0.000 HD
ENDBRANCH  11  26
TORSDOF 4
ENDMDL
