MODEL 1
REMARK VINA RESULT:      -8.9      0.000      0.000
REMARK  Name = 
REMARK  7 active torsions:
REMARK  status: ('A' for Active; 'I' for Inactive)
REMARK    1  A    between atoms: C_2  and  C_3
REMARK    2  A    between atoms: N_12  and  C_13
REMARK    3  A    between atoms: C_13  and  C_14
REMARK    4  A    between atoms: C_14  and  O_15
REMARK    5  A    between atoms: C_14  and  C_16
REMARK    6  A    between atoms: C_16  and  O_17
REMARK    7  A    between atoms: O_17  and  C_18
REMARK                            x       y       z     vdW  Elec       q    Type
REMARK                         _______ _______ _______ _____ _____    ______ ____
ROOT
ATOM      1  C   UNL     1       2.892   4.617  18.824  0.00  0.00    +0.000 C 
ENDROOT
BRANCH   1   7
ATOM      2  O   UNL     1       7.452   6.248  16.170  0.00  0.00    +0.000 OA
ATOM      3  C   UNL     1       6.629   5.379  15.902  0.00  0.00    +0.000 C 
ATOM      4  N   UNL     1       5.713   5.012  16.868  0.00  0.00    +0.000 N 
ATOM      5  C   UNL     1       4.801   3.870  16.689  0.00  0.00    +0.000 C 
ATOM      6  C   UNL     1       4.599   3.096  18.009  0.00  0.00    +0.000 C 
ATOM      7  N   UNL     1       4.214   3.995  19.119  0.00  0.00    +0.000 NA
ATOM      8  C   UNL     1       5.338   4.934  19.325  0.00  0.00    +0.000 C 
ATOM      9  C   UNL     1       5.569   5.816  18.088  0.00  0.00    +0.000 C 
BRANCH   3  10
ATOM     10  C   UNL     1       6.671   4.826  14.503  0.00  0.00    +0.000 A 
ATOM     11  C   UNL     1       7.630   5.329  13.600  0.00  0.00    +0.000 A 
ATOM     12  C   UNL     1       7.703   4.846  12.292  0.00  0.00    +0.000 A 
ATOM     13  C   UNL     1       6.811   3.868  11.851  0.00  0.00    +0.000 A 
ATOM     14  C   UNL     1       5.827   3.391  12.710  0.00  0.00    +0.000 A 
ATOM     15  C   UNL     1       5.748   3.869  14.015  0.00  0.00    +0.000 A 
ENDBRANCH   3  10
ENDBRANCH   1   7
BRANCH   1  16
ATOM     16  C   UNL     1       1.761   4.358  19.835  0.00  0.00    +0.000 C 
BRANCH  16  17
ATOM     17  O   UNL     1       2.020   3.255  20.667  0.00  0.00    +0.000 OA
ATOM     18  H   UNL     1       2.504   2.572  20.136  0.00  0.00    +0.000 HD
ENDBRANCH  16  17
BRANCH  16  19
ATOM     19  C   UNL     1       1.613   5.629  20.685  0.00  0.00    +0.000 C 
BRANCH  19  20
ATOM     20  O   UNL     1       2.272   6.670  20.092  0.00  0.00    +0.000 OA
BRANCH  20  21
ATOM     21  C   UNL     1       1.820   7.899  19.727  0.00  0.00    +0.000 A 
ATOM     22  C   UNL     1       2.172   8.254  18.420  0.00  0.00    +0.000 A 
ATOM     23  C   UNL     1       1.851   9.493  17.890  0.00  0.00    +0.000 A 
ATOM     24  C   UNL     1       1.183  10.429  18.666  0.00  0.00    +0.000 A 
ATOM     25  C   UNL     1       0.807  10.125  19.980  0.00  0.00    +0.000 A 
ATOM     26  C   UNL     1       0.158  11.111  20.742  0.00  0.00    +0.000 A 
ATOM     27  C   UNL     1      -0.236  10.849  22.049  0.00  0.00    +0.000 A 
ATOM     28  C   UNL     1      -0.013   9.595  22.602  0.00  0.00    +0.000 A 
ATOM     29  C   UNL     1       0.635   8.601  21.866  0.00  0.00    +0.000 A 
ATOM     30  C   UNL     1       1.089   8.841  20.539  0.00  0.00    +0.000 A 
ENDBRANCH  20  21
ENDBRANCH  19  20
ENDBRANCH  16  19
ENDBRANCH   1  16
TORSDOF 7
ENDMDL
MODEL 2
REMARK VINA RESULT:      -8.7      5.543      8.252
REMARK  Name = 
REMARK  7 active torsions:
REMARK  status: ('A' for Active; 'I' for Inactive)
REMARK    1  A    between atoms: C_2  and  C_3
REMARK    2  A    between atoms: N_12  and  C_13
REMARK    3  A    between atoms: C_13  and  C_14
REMARK    4  A    between atoms: C_14  and  O_15
REMARK    5  A    between atoms: C_14  and  C_16
REMARK    6  A    between atoms: C_16  and  O_17
REMARK    7  A    between atoms: O_17  and  C_18
REMARK                            x       y       z     vdW  Elec       q    Type
REMARK                         _______ _______ _______ _____ _____    ______ ____
ROOT
ATOM      1  C   UNL     1       7.106   7.419  17.294  0.00  0.00    +0.000 C 
ENDROOT
BRANCH   1   7
ATOM      2  O   UNL     1       3.299   3.462  16.705  0.00  0.00    +0.000 OA
ATOM      3  C   UNL     1       3.769   3.987  17.708  0.00  0.00    +0.000 C 
ATOM      4  N   UNL     1       4.890   4.783  17.579  0.00  0.00    +0.000 N 
ATOM      5  C   UNL     1       5.612   5.315  18.746  0.00  0.00    +0.000 C 
ATOM      6  C   UNL     1       7.138   5.320  18.512  0.00  0.00    +0.000 C 
ATOM      7  N   UNL     1       7.497   5.982  17.239  0.00  0.00    +0.000 NA
ATOM      8  C   UNL     1       6.886   5.187  16.152  0.00  0.00    +0.000 C 
ATOM      9  C   UNL     1       5.352   5.189  16.246  0.00  0.00    +0.000 C 
BRANCH   3  10
ATOM     10  C   UNL     1       3.031   3.746  18.998  0.00  0.00    +0.000 A 
ATOM     11  C   UNL     1       1.862   4.487  19.263  0.00  0.00    +0.000 A 
ATOM     12  C   UNL     1       1.147   4.297  20.447  0.00  0.00    +0.000 A 
ATOM     13  C   UNL     1       1.593   3.380  21.400  0.00  0.00    +0.000 A 
ATOM     14  C   UNL     1       2.770   2.672  21.181  0.00  0.00    +0.000 A 
ATOM     15  C   UNL     1       3.487   2.858  20.003  0.00  0.00    +0.000 A 
ENDBRANCH   3  10
ENDBRANCH   1   7
BRANCH   1  16
ATOM     16  C   UNL     1       7.735   8.269  18.413  0.00  0.00    +0.000 C 
BRANCH  16  17
ATOM     17  O   UNL     1       8.825   7.631  19.029  0.00  0.00    +0.000 OA
ATOM     18  H   UNL     1       8.788   7.822  20.002  0.00  0.00    +0.000 HD
ENDBRANCH  16  17
BRANCH  16  19
ATOM     19  C   UNL     1       8.196   9.587  17.774  0.00  0.00    +0.000 C 
BRANCH  19  20
ATOM     20  O   UNL     1       9.414   9.954  18.277  0.00  0.00    +0.000 OA
BRANCH  20  21
ATOM     21  C   UNL     1       9.760  11.021  19.045  0.00  0.00    +0.000 A 
ATOM     22  C   UNL     1       9.336  10.908  20.374  0.00  0.00    +0.000 A 
ATOM     23  C   UNL     1       9.545  11.923  21.293  0.00  0.00    +0.000 A 
ATOM     24  C   UNL     1      10.168  13.099  20.901  0.00  0.00    +0.000 A 
ATOM     25  C   UNL     1      10.612  13.263  19.584  0.00  0.00    +0.000 A 
ATOM     26  C   UNL     1      11.210  14.481  19.220  0.00  0.00    +0.000 A 
ATOM     27  C   UNL     1      11.669  14.684  17.924  0.00  0.00    +0.000 A 
ATOM     28  C   UNL     1      11.560  13.668  16.983  0.00  0.00    +0.000 A 
ATOM     29  C   UNL     1      10.963  12.452  17.320  0.00  0.00    +0.000 A 
ATOM     30  C   UNL     1      10.446  12.218  18.624  0.00  0.00    +0.000 A 
ENDBRANCH  20  21
ENDBRANCH  19  20
ENDBRANCH  16  19
ENDBRANCH   1  16
TORSDOF 7
ENDMDL
MODEL 3
REMARK VINA RESULT:      -8.6      7.950     10.866
REMARK  Name = 
REMARK  7 active torsions:
REMARK  status: ('A' for Active; 'I' for Inactive)
REMARK    1  A    between atoms: C_2  and  C_3
REMARK    2  A    between atoms: N_12  and  C_13
REMARK    3  A    between atoms: C_13  and  C_14
REMARK    4  A    between atoms: C_14  and  O_15
REMARK    5  A    between atoms: C_14  and  C_16
REMARK    6  A    between atoms: C_16  and  O_17
REMARK    7  A    between atoms: O_17  and  C_18
REMARK                            x       y       z     vdW  Elec       q    Type
REMARK                         _______ _______ _______ _____ _____    ______ ____
ROOT
ATOM      1  C   UNL     1      -5.453  13.109  23.027  0.00  0.00    +0.000 C 
ENDROOT
BRANCH   1   7
ATOM      2  O   UNL     1      -6.947  10.728  18.275  0.00  0.00    +0.000 OA
ATOM      3  C   UNL     1      -5.879  11.207  18.636  0.00  0.00    +0.000 C 
ATOM      4  N   UNL     1      -5.846  11.962  19.792  0.00  0.00    +0.000 N 
ATOM      5  C   UNL     1      -4.646  12.706  20.208  0.00  0.00    +0.000 C 
ATOM      6  C   UNL     1      -5.015  14.065  20.841  0.00  0.00    +0.000 C 
ATOM      7  N   UNL     1      -6.023  13.917  21.913  0.00  0.00    +0.000 NA
ATOM      8  C   UNL     1      -7.247  13.375  21.283  0.00  0.00    +0.000 C 
ATOM      9  C   UNL     1      -7.005  11.977  20.692  0.00  0.00    +0.000 C 
BRANCH   3  10
ATOM     10  C   UNL     1      -4.677  10.875  17.792  0.00  0.00    +0.000 A 
ATOM     11  C   UNL     1      -4.521  11.515  16.547  0.00  0.00    +0.000 A 
ATOM     12  C   UNL     1      -3.423  11.237  15.731  0.00  0.00    +0.000 A 
ATOM     13  C   UNL     1      -2.469  10.299  16.130  0.00  0.00    +0.000 A 
ATOM     14  C   UNL     1      -2.627   9.621  17.333  0.00  0.00    +0.000 A 
ATOM     15  C   UNL     1      -3.721   9.894  18.150  0.00  0.00    +0.000 A 
ENDBRANCH   3  10
ENDBRANCH   1   7
BRANCH   1  16
ATOM     16  C   UNL     1      -4.092  13.560  23.587  0.00  0.00    +0.000 C 
BRANCH  16  17
ATOM     17  O   UNL     1      -4.210  14.267  24.796  0.00  0.00    +0.000 OA
ATOM     18  H   UNL     1      -4.168  13.615  25.543  0.00  0.00    +0.000 HD
ENDBRANCH  16  17
BRANCH  16  19
ATOM     19  C   UNL     1      -3.250  12.294  23.804  0.00  0.00    +0.000 C 
BRANCH  19  20
ATOM     20  O   UNL     1      -2.056  12.404  23.146  0.00  0.00    +0.000 OA
BRANCH  20  21
ATOM     21  C   UNL     1      -1.348  11.473  22.454  0.00  0.00    +0.000 A 
ATOM     22  C   UNL     1      -0.990  10.362  23.225  0.00  0.00    +0.000 A 
ATOM     23  C   UNL     1      -0.215   9.336  22.710  0.00  0.00    +0.000 A 
ATOM     24  C   UNL     1       0.245   9.402  21.403  0.00  0.00    +0.000 A 
ATOM     25  C   UNL     1      -0.083  10.492  20.587  0.00  0.00    +0.000 A 
ATOM     26  C   UNL     1       0.429  10.536  19.280  0.00  0.00    +0.000 A 
ATOM     27  C   UNL     1       0.122  11.596  18.436  0.00  0.00    +0.000 A 
ATOM     28  C   UNL     1      -0.717  12.611  18.875  0.00  0.00    +0.000 A 
ATOM     29  C   UNL     1      -1.234  12.592  20.172  0.00  0.00    +0.000 A 
ATOM     30  C   UNL     1      -0.914  11.546  21.080  0.00  0.00    +0.000 A 
ENDBRANCH  20  21
ENDBRANCH  19  20
ENDBRANCH  16  19
ENDBRANCH   1  16
TORSDOF 7
ENDMDL
MODEL 4
REMARK VINA RESULT:      -8.6      5.304      7.919
REMARK  Name = 
REMARK  7 active torsions:
REMARK  status: ('A' for Active; 'I' for Inactive)
REMARK    1  A    between atoms: C_2  and  C_3
REMARK    2  A    between atoms: N_12  and  C_13
REMARK    3  A    between atoms: C_13  and  C_14
REMARK    4  A    between atoms: C_14  and  O_15
REMARK    5  A    between atoms: C_14  and  C_16
REMARK    6  A    between atoms: C_16  and  O_17
REMARK    7  A    between atoms: O_17  and  C_18
REMARK                            x       y       z     vdW  Elec       q    Type
REMARK                         _______ _______ _______ _____ _____    ______ ____
ROOT
ATOM      1  C   UNL     1       7.289   7.060  17.416  0.00  0.00    +0.000 C 
ENDROOT
BRANCH   1   7
ATOM      2  O   UNL     1       3.852   2.745  17.154  0.00  0.00    +0.000 OA
ATOM      3  C   UNL     1       4.099   3.525  18.066  0.00  0.00    +0.000 C 
ATOM      4  N   UNL     1       5.186   4.369  17.944  0.00  0.00    +0.000 N 
ATOM      5  C   UNL     1       5.649   5.217  19.054  0.00  0.00    +0.000 C 
ATOM      6  C   UNL     1       7.190   5.307  19.092  0.00  0.00    +0.000 C 
ATOM      7  N   UNL     1       7.750   5.690  17.778  0.00  0.00    +0.000 NA
ATOM      8  C   UNL     1       7.393   4.615  16.825  0.00  0.00    +0.000 C 
ATOM      9  C   UNL     1       5.871   4.500  16.651  0.00  0.00    +0.000 C 
BRANCH   3  10
ATOM     10  C   UNL     1       3.144   3.519  19.229  0.00  0.00    +0.000 A 
ATOM     11  C   UNL     1       3.408   2.671  20.324  0.00  0.00    +0.000 A 
ATOM     12  C   UNL     1       2.548   2.632  21.424  0.00  0.00    +0.000 A 
ATOM     13  C   UNL     1       1.397   3.421  21.446  0.00  0.00    +0.000 A 
ATOM     14  C   UNL     1       1.092   4.231  20.357  0.00  0.00    +0.000 A 
ATOM     15  C   UNL     1       1.945   4.273  19.258  0.00  0.00    +0.000 A 
ENDBRANCH   3  10
ENDBRANCH   1   7
BRANCH   1  16
ATOM     16  C   UNL     1       7.762   8.213  18.319  0.00  0.00    +0.000 C 
BRANCH  16  17
ATOM     17  O   UNL     1       8.879   7.868  19.098  0.00  0.00    +0.000 OA
ATOM     18  H   UNL     1       8.579   7.257  19.819  0.00  0.00    +0.000 HD
ENDBRANCH  16  17
BRANCH  16  19
ATOM     19  C   UNL     1       8.111   9.393  17.399  0.00  0.00    +0.000 C 
BRANCH  19  20
ATOM     20  O   UNL     1       8.280  10.532  18.137  0.00  0.00    +0.000 OA
BRANCH  20  21
ATOM     21  C   UNL     1       9.180  11.541  17.999  0.00  0.00    +0.000 A 
ATOM     22  C   UNL     1      10.509  11.104  18.017  0.00  0.00    +0.000 A 
ATOM     23  C   UNL     1      11.569  11.994  17.948  0.00  0.00    +0.000 A 
ATOM     24  C   UNL     1      11.328  13.358  17.880  0.00  0.00    +0.000 A 
ATOM     25  C   UNL     1      10.016  13.848  17.858  0.00  0.00    +0.000 A 
ATOM     26  C   UNL     1       9.815  15.238  17.820  0.00  0.00    +0.000 A 
ATOM     27  C   UNL     1       8.530  15.766  17.793  0.00  0.00    +0.000 A 
ATOM     28  C   UNL     1       7.432  14.917  17.777  0.00  0.00    +0.000 A 
ATOM     29  C   UNL     1       7.607  13.532  17.821  0.00  0.00    +0.000 A 
ATOM     30  C   UNL     1       8.904  12.952  17.889  0.00  0.00    +0.000 A 
ENDBRANCH  20  21
ENDBRANCH  19  20
ENDBRANCH  16  19
ENDBRANCH   1  16
TORSDOF 7
ENDMDL
MODEL 5
REMARK VINA RESULT:      -8.5      7.304     11.107
REMARK  Name = 
REMARK  7 active torsions:
REMARK  status: ('A' for Active; 'I' for Inactive)
REMARK    1  A    between atoms: C_2  and  C_3
REMARK    2  A    between atoms: N_12  and  C_13
REMARK    3  A    between atoms: C_13  and  C_14
REMARK    4  A    between atoms: C_14  and  O_15
REMARK    5  A    between atoms: C_14  and  C_16
REMARK    6  A    between atoms: C_16  and  O_17
REMARK    7  A    between atoms: O_17  and  C_18
REMARK                            x       y       z     vdW  Elec       q    Type
REMARK                         _______ _______ _______ _____ _____    ______ ____
ROOT
ATOM      1  C   UNL     1      -1.808  10.562  17.764  0.00  0.00    +0.000 C 
ENDROOT
BRANCH   1   7
ATOM      2  O   UNL     1      -0.344  10.721  23.086  0.00  0.00    +0.000 OA
ATOM      3  C   UNL     1      -1.040  11.477  22.418  0.00  0.00    +0.000 C 
ATOM      4  N   UNL     1      -1.045  11.335  21.044  0.00  0.00    +0.000 N 
ATOM      5  C   UNL     1      -1.719  12.300  20.160  0.00  0.00    +0.000 C 
ATOM      6  C   UNL     1      -0.915  12.534  18.862  0.00  0.00    +0.000 C 
ATOM      7  N   UNL     1      -0.564  11.261  18.196  0.00  0.00    +0.000 NA
ATOM      8  C   UNL     1       0.308  10.511  19.127  0.00  0.00    +0.000 C 
ATOM      9  C   UNL     1      -0.432  10.153  20.426  0.00  0.00    +0.000 C 
BRANCH   3  10
ATOM     10  C   UNL     1      -1.873  12.470  23.182  0.00  0.00    +0.000 A 
ATOM     11  C   UNL     1      -1.315  13.723  23.505  0.00  0.00    +0.000 A 
ATOM     12  C   UNL     1      -2.051  14.674  24.214  0.00  0.00    +0.000 A 
ATOM     13  C   UNL     1      -3.351  14.389  24.633  0.00  0.00    +0.000 A 
ATOM     14  C   UNL     1      -3.906  13.142  24.366  0.00  0.00    +0.000 A 
ATOM     15  C   UNL     1      -3.176  12.190  23.660  0.00  0.00    +0.000 A 
ENDBRANCH   3  10
ENDBRANCH   1   7
BRANCH   1  16
ATOM     16  C   UNL     1      -2.566  11.168  16.569  0.00  0.00    +0.000 C 
BRANCH  16  17
ATOM     17  O   UNL     1      -2.367  10.448  15.379  0.00  0.00    +0.000 OA
ATOM     18  H   UNL     1      -3.097  10.679  14.749  0.00  0.00    +0.000 HD
ENDBRANCH  16  17
BRANCH  16  19
ATOM     19  C   UNL     1      -4.058  11.169  16.934  0.00  0.00    +0.000 C 
BRANCH  19  20
ATOM     20  O   UNL     1      -4.247  11.784  18.141  0.00  0.00    +0.000 OA
BRANCH  20  21
ATOM     21  C   UNL     1      -5.261  11.661  19.038  0.00  0.00    +0.000 A 
ATOM     22  C   UNL     1      -6.036  10.513  18.844  0.00  0.00    +0.000 A 
ATOM     23  C   UNL     1      -7.150  10.246  19.623  0.00  0.00    +0.000 A 
ATOM     24  C   UNL     1      -7.536  11.138  20.613  0.00  0.00    +0.000 A 
ATOM     25  C   UNL     1      -6.795  12.302  20.849  0.00  0.00    +0.000 A 
ATOM     26  C   UNL     1      -7.237  13.195  21.840  0.00  0.00    +0.000 A 
ATOM     27  C   UNL     1      -6.528  14.359  22.110  0.00  0.00    +0.000 A 
ATOM     28  C   UNL     1      -5.358  14.635  21.415  0.00  0.00    +0.000 A 
ATOM     29  C   UNL     1      -4.902  13.766  20.421  0.00  0.00    +0.000 A 
ATOM     30  C   UNL     1      -5.619  12.584  20.087  0.00  0.00    +0.000 A 
ENDBRANCH  20  21
ENDBRANCH  19  20
ENDBRANCH  16  19
ENDBRANCH   1  16
TORSDOF 7
ENDMDL
MODEL 6
REMARK VINA RESULT:      -8.4      0.998      1.298
REMARK  Name = 
REMARK  7 active torsions:
REMARK  status: ('A' for Active; 'I' for Inactive)
REMARK    1  A    between atoms: C_2  and  C_3
REMARK    2  A    between atoms: N_12  and  C_13
REMARK    3  A    between atoms: C_13  and  C_14
REMARK    4  A    between atoms: C_14  and  O_15
REMARK    5  A    between atoms: C_14  and  C_16
REMARK    6  A    between atoms: C_16  and  O_17
REMARK    7  A    between atoms: O_17  and  C_18
REMARK                            x       y       z     vdW  Elec       q    Type
REMARK                         _______ _______ _______ _____ _____    ______ ____
ROOT
ATOM      1  C   UNL     1       2.541   5.140  18.541  0.00  0.00    +0.000 C 
ENDROOT
BRANCH   1   7
ATOM      2  O   UNL     1       7.767   4.786  16.793  0.00  0.00    +0.000 OA
ATOM      3  C   UNL     1       6.708   4.553  16.222  0.00  0.00    +0.000 C 
ATOM      4  N   UNL     1       5.549   4.489  16.971  0.00  0.00    +0.000 N 
ATOM      5  C   UNL     1       4.267   4.055  16.394  0.00  0.00    +0.000 C 
ATOM      6  C   UNL     1       3.455   3.206  17.396  0.00  0.00    +0.000 C 
ATOM      7  N   UNL     1       3.319   3.880  18.705  0.00  0.00    +0.000 NA
ATOM      8  C   UNL     1       4.684   4.031  19.257  0.00  0.00    +0.000 C 
ATOM      9  C   UNL     1       5.553   4.936  18.369  0.00  0.00    +0.000 C 
BRANCH   3  10
ATOM     10  C   UNL     1       6.773   4.408  14.726  0.00  0.00    +0.000 A 
ATOM     11  C   UNL     1       7.628   5.257  13.994  0.00  0.00    +0.000 A 
ATOM     12  C   UNL     1       7.718   5.158  12.605  0.00  0.00    +0.000 A 
ATOM     13  C   UNL     1       6.943   4.227  11.913  0.00  0.00    +0.000 A 
ATOM     14  C   UNL     1       6.057   3.411  12.609  0.00  0.00    +0.000 A 
ATOM     15  C   UNL     1       5.962   3.505  13.994  0.00  0.00    +0.000 A 
ENDBRANCH   3  10
ENDBRANCH   1   7
BRANCH   1  16
ATOM     16  C   UNL     1       2.044   5.823  19.827  0.00  0.00    +0.000 C 
BRANCH  16  17
ATOM     17  O   UNL     1       2.496   5.179  20.992  0.00  0.00    +0.000 OA
ATOM     18  H   UNL     1       2.769   5.874  21.645  0.00  0.00    +0.000 HD
ENDBRANCH  16  17
BRANCH  16  19
ATOM     19  C   UNL     1       2.559   7.270  19.799  0.00  0.00    +0.000 C 
BRANCH  19  20
ATOM     20  O   UNL     1       1.671   8.073  19.136  0.00  0.00    +0.000 OA
BRANCH  20  21
ATOM     21  C   UNL     1       1.186   9.300  19.463  0.00  0.00    +0.000 A 
ATOM     22  C   UNL     1       1.483  10.284  18.514  0.00  0.00    +0.000 A 
ATOM     23  C   UNL     1       1.122  11.609  18.702  0.00  0.00    +0.000 A 
ATOM     24  C   UNL     1       0.469  11.993  19.863  0.00  0.00    +0.000 A 
ATOM     25  C   UNL     1       0.148  11.048  20.845  0.00  0.00    +0.000 A 
ATOM     26  C   UNL     1      -0.487  11.484  22.020  0.00  0.00    +0.000 A 
ATOM     27  C   UNL     1      -0.828  10.578  23.017  0.00  0.00    +0.000 A 
ATOM     28  C   UNL     1      -0.564   9.226  22.845  0.00  0.00    +0.000 A 
ATOM     29  C   UNL     1       0.072   8.770  21.688  0.00  0.00    +0.000 A 
ATOM     30  C   UNL     1       0.472   9.668  20.661  0.00  0.00    +0.000 A 
ENDBRANCH  20  21
ENDBRANCH  19  20
ENDBRANCH  16  19
ENDBRANCH   1  16
TORSDOF 7
ENDMDL
MODEL 7
REMARK VINA RESULT:      -8.4      1.589      2.506
REMARK  Name = 
REMARK  7 active torsions:
REMARK  status: ('A' for Active; 'I' for Inactive)
REMARK    1  A    between atoms: C_2  and  C_3
REMARK    2  A    between atoms: N_12  and  C_13
REMARK    3  A    between atoms: C_13  and  C_14
REMARK    4  A    between atoms: C_14  and  O_15
REMARK    5  A    between atoms: C_14  and  C_16
REMARK    6  A    between atoms: C_16  and  O_17
REMARK    7  A    between atoms: O_17  and  C_18
REMARK                            x       y       z     vdW  Elec       q    Type
REMARK                         _______ _______ _______ _____ _____    ______ ____
ROOT
ATOM      1  C   UNL     1       3.281   6.708  18.685  0.00  0.00    +0.000 C 
ENDROOT
BRANCH   1   7
ATOM      2  O   UNL     1       7.997   4.481  16.869  0.00  0.00    +0.000 OA
ATOM      3  C   UNL     1       6.927   4.677  16.305  0.00  0.00    +0.000 C 
ATOM      4  N   UNL     1       5.828   5.028  17.064  0.00  0.00    +0.000 N 
ATOM      5  C   UNL     1       4.476   5.120  16.491  0.00  0.00    +0.000 C 
ATOM      6  C   UNL     1       3.407   4.606  17.479  0.00  0.00    +0.000 C 
ATOM      7  N   UNL     1       3.533   5.245  18.807  0.00  0.00    +0.000 NA
ATOM      8  C   UNL     1       4.856   4.860  19.347  0.00  0.00    +0.000 C 
ATOM      9  C   UNL     1       6.000   5.401  18.474  0.00  0.00    +0.000 C 
BRANCH   3  10
ATOM     10  C   UNL     1       6.931   4.561  14.804  0.00  0.00    +0.000 A 
ATOM     11  C   UNL     1       6.112   3.591  14.192  0.00  0.00    +0.000 A 
ATOM     12  C   UNL     1       6.086   3.448  12.804  0.00  0.00    +0.000 A 
ATOM     13  C   UNL     1       6.891   4.253  11.997  0.00  0.00    +0.000 A 
ATOM     14  C   UNL     1       7.742   5.185  12.581  0.00  0.00    +0.000 A 
ATOM     15  C   UNL     1       7.773   5.332  13.965  0.00  0.00    +0.000 A 
ENDBRANCH   3  10
ENDBRANCH   1   7
BRANCH   1  16
ATOM     16  C   UNL     1       2.054   7.266  19.428  0.00  0.00    +0.000 C 
BRANCH  16  17
ATOM     17  O   UNL     1       2.228   7.288  20.822  0.00  0.00    +0.000 OA
ATOM     18  H   UNL     1       1.967   6.401  21.181  0.00  0.00    +0.000 HD
ENDBRANCH  16  17
BRANCH  16  19
ATOM     19  C   UNL     1       1.821   8.693  18.909  0.00  0.00    +0.000 C 
BRANCH  19  20
ATOM     20  O   UNL     1       1.077   9.406  19.808  0.00  0.00    +0.000 OA
BRANCH  20  21
ATOM     21  C   UNL     1      -0.030  10.172  19.618  0.00  0.00    +0.000 A 
ATOM     22  C   UNL     1      -0.473  10.185  18.291  0.00  0.00    +0.000 A 
ATOM     23  C   UNL     1      -1.552  10.957  17.891  0.00  0.00    +0.000 A 
ATOM     24  C   UNL     1      -2.210  11.761  18.810  0.00  0.00    +0.000 A 
ATOM     25  C   UNL     1      -1.807  11.785  20.150  0.00  0.00    +0.000 A 
ATOM     26  C   UNL     1      -2.480  12.636  21.043  0.00  0.00    +0.000 A 
ATOM     27  C   UNL     1      -2.115  12.687  22.383  0.00  0.00    +0.000 A 
ATOM     28  C   UNL     1      -1.095  11.872  22.854  0.00  0.00    +0.000 A 
ATOM     29  C   UNL     1      -0.407  11.023  21.985  0.00  0.00    +0.000 A 
ATOM     30  C   UNL     1      -0.723  10.969  20.599  0.00  0.00    +0.000 A 
ENDBRANCH  20  21
ENDBRANCH  19  20
ENDBRANCH  16  19
ENDBRANCH   1  16
TORSDOF 7
ENDMDL
MODEL 8
REMARK VINA RESULT:      -8.4      1.001      2.059
REMARK  Name = 
REMARK  7 active torsions:
REMARK  status: ('A' for Active; 'I' for Inactive)
REMARK    1  A    between atoms: C_2  and  C_3
REMARK    2  A    between atoms: N_12  and  C_13
REMARK    3  A    between atoms: C_13  and  C_14
REMARK    4  A    between atoms: C_14  and  O_15
REMARK    5  A    between atoms: C_14  and  C_16
REMARK    6  A    between atoms: C_16  and  O_17
REMARK    7  A    between atoms: O_17  and  C_18
REMARK                            x       y       z     vdW  Elec       q    Type
REMARK                         _______ _______ _______ _____ _____    ______ ____
ROOT
ATOM      1  C   UNL     1       2.592   4.969  18.488  0.00  0.00    +0.000 C 
ENDROOT
BRANCH   1   7
ATOM      2  O   UNL     1       7.539   6.008  16.264  0.00  0.00    +0.000 OA
ATOM      3  C   UNL     1       6.624   5.282  15.893  0.00  0.00    +0.000 C 
ATOM      4  N   UNL     1       5.588   5.017  16.768  0.00  0.00    +0.000 N 
ATOM      5  C   UNL     1       4.539   4.031  16.465  0.00  0.00    +0.000 C 
ATOM      6  C   UNL     1       4.120   3.245  17.727  0.00  0.00    +0.000 C 
ATOM      7  N   UNL     1       3.781   4.147  18.849  0.00  0.00    +0.000 NA
ATOM      8  C   UNL     1       5.010   4.900  19.184  0.00  0.00    +0.000 C 
ATOM      9  C   UNL     1       5.465   5.786  18.013  0.00  0.00    +0.000 C 
BRANCH   3  10
ATOM     10  C   UNL     1       6.698   4.783  14.475  0.00  0.00    +0.000 A 
ATOM     11  C   UNL     1       7.633   5.365  13.596  0.00  0.00    +0.000 A 
ATOM     12  C   UNL     1       7.736   4.935  12.271  0.00  0.00    +0.000 A 
ATOM     13  C   UNL     1       6.894   3.931  11.790  0.00  0.00    +0.000 A 
ATOM     14  C   UNL     1       5.932   3.375  12.627  0.00  0.00    +0.000 A 
ATOM     15  C   UNL     1       5.825   3.801  13.948  0.00  0.00    +0.000 A 
ENDBRANCH   3  10
ENDBRANCH   1   7
BRANCH   1  16
ATOM     16  C   UNL     1       1.855   5.670  19.644  0.00  0.00    +0.000 C 
BRANCH  16  17
ATOM     17  O   UNL     1       1.852   4.909  20.825  0.00  0.00    +0.000 OA
ATOM     18  H   UNL     1       0.917   4.646  21.024  0.00  0.00    +0.000 HD
ENDBRANCH  16  17
BRANCH  16  19
ATOM     19  C   UNL     1       2.567   7.009  19.888  0.00  0.00    +0.000 C 
BRANCH  19  20
ATOM     20  O   UNL     1       1.742   8.048  19.554  0.00  0.00    +0.000 OA
BRANCH  20  21
ATOM     21  C   UNL     1       1.044   8.902  20.348  0.00  0.00    +0.000 A 
ATOM     22  C   UNL     1       1.238   8.673  21.715  0.00  0.00    +0.000 A 
ATOM     23  C   UNL     1       0.564   9.405  22.679  0.00  0.00    +0.000 A 
ATOM     24  C   UNL     1      -0.346  10.380  22.301  0.00  0.00    +0.000 A 
ATOM     25  C   UNL     1      -0.578  10.650  20.947  0.00  0.00    +0.000 A 
ATOM     26  C   UNL     1      -1.531  11.624  20.606  0.00  0.00    +0.000 A 
ATOM     27  C   UNL     1      -1.788  11.927  19.274  0.00  0.00    +0.000 A 
ATOM     28  C   UNL     1      -1.081  11.281  18.268  0.00  0.00    +0.000 A 
ATOM     29  C   UNL     1      -0.133  10.305  18.582  0.00  0.00    +0.000 A 
ATOM     30  C   UNL     1       0.132   9.938  19.931  0.00  0.00    +0.000 A 
ENDBRANCH  20  21
ENDBRANCH  19  20
ENDBRANCH  16  19
ENDBRANCH   1  16
TORSDOF 7
ENDMDL
MODEL 9
REMARK VINA RESULT:      -8.3      5.555      8.334
REMARK  Name = 
REMARK  7 active torsions:
REMARK  status: ('A' for Active; 'I' for Inactive)
REMARK    1  A    between atoms: C_2  and  C_3
REMARK    2  A    between atoms: N_12  and  C_13
REMARK    3  A    between atoms: C_13  and  C_14
REMARK    4  A    between atoms: C_14  and  O_15
REMARK    5  A    between atoms: C_14  and  C_16
REMARK    6  A    between atoms: C_16  and  O_17
REMARK    7  A    between atoms: O_17  and  C_18
REMARK                            x       y       z     vdW  Elec       q    Type
REMARK                         _______ _______ _______ _____ _____    ______ ____
ROOT
ATOM      1  C   UNL     1       7.460   6.863  18.139  0.00  0.00    +0.000 C 
ENDROOT
BRANCH   1   7
ATOM      2  O   UNL     1       2.065   5.801  17.623  0.00  0.00    +0.000 OA
ATOM      3  C   UNL     1       2.936   5.249  18.285  0.00  0.00    +0.000 C 
ATOM      4  N   UNL     1       4.258   5.566  18.041  0.00  0.00    +0.000 N 
ATOM      5  C   UNL     1       5.369   4.835  18.672  0.00  0.00    +0.000 C 
ATOM      6  C   UNL     1       6.553   4.656  17.697  0.00  0.00    +0.000 C 
ATOM      7  N   UNL     1       6.959   5.938  17.083  0.00  0.00    +0.000 NA
ATOM      8  C   UNL     1       5.805   6.424  16.293  0.00  0.00    +0.000 C 
ATOM      9  C   UNL     1       4.592   6.715  17.190  0.00  0.00    +0.000 C 
BRANCH   3  10
ATOM     10  C   UNL     1       2.465   4.299  19.353  0.00  0.00    +0.000 A 
ATOM     11  C   UNL     1       2.547   4.695  20.703  0.00  0.00    +0.000 A 
ATOM     12  C   UNL     1       2.123   3.845  21.726  0.00  0.00    +0.000 A 
ATOM     13  C   UNL     1       1.627   2.575  21.427  0.00  0.00    +0.000 A 
ATOM     14  C   UNL     1       1.580   2.145  20.105  0.00  0.00    +0.000 A 
ATOM     15  C   UNL     1       2.003   2.988  19.081  0.00  0.00    +0.000 A 
ENDBRANCH   3  10
ENDBRANCH   1   7
BRANCH   1  16
ATOM     16  C   UNL     1       8.037   8.209  17.667  0.00  0.00    +0.000 C 
BRANCH  16  17
ATOM     17  O   UNL     1       7.052   9.072  17.158  0.00  0.00    +0.000 OA
ATOM     18  H   UNL     1       6.314   9.127  17.819  0.00  0.00    +0.000 HD
ENDBRANCH  16  17
BRANCH  16  19
ATOM     19  C   UNL     1       8.722   8.857  18.879  0.00  0.00    +0.000 C 
BRANCH  19  20
ATOM     20  O   UNL     1       9.406   9.977  18.491  0.00  0.00    +0.000 OA
BRANCH  20  21
ATOM     21  C   UNL     1       9.781  11.068  19.210  0.00  0.00    +0.000 A 
ATOM     22  C   UNL     1       9.376  11.015  20.548  0.00  0.00    +0.000 A 
ATOM     23  C   UNL     1       9.615  12.063  21.423  0.00  0.00    +0.000 A 
ATOM     24  C   UNL     1      10.252  13.211  20.975  0.00  0.00    +0.000 A 
ATOM     25  C   UNL     1      10.678  13.315  19.646  0.00  0.00    +0.000 A 
ATOM     26  C   UNL     1      11.292  14.506  19.224  0.00  0.00    +0.000 A 
ATOM     27  C   UNL     1      11.734  14.649  17.915  0.00  0.00    +0.000 A 
ATOM     28  C   UNL     1      11.594  13.599  17.017  0.00  0.00    +0.000 A 
ATOM     29  C   UNL     1      10.982  12.407  17.412  0.00  0.00    +0.000 A 
ATOM     30  C   UNL     1      10.480  12.234  18.731  0.00  0.00    +0.000 A 
ENDBRANCH  20  21
ENDBRANCH  19  20
ENDBRANCH  16  19
ENDBRANCH   1  16
TORSDOF 7
ENDMDL
