MODEL 1
REMARK VINA RESULT:      -7.9      0.000      0.000
REMARK  Name = 
REMARK  5 active torsions:
REMARK  status: ('A' for Active; 'I' for Inactive)
REMARK    1  A    between atoms: N_6  and  C_7
REMARK    2  A    between atoms: C_9  and  O_10
REMARK    3  A    between atoms: C_11  and  C_12
REMARK    4  A    between atoms: C_12  and  O_13
REMARK    5  A    between atoms: C_16  and  C_17
REMARK                            x       y       z     vdW  Elec       q    Type
REMARK                         _______ _______ _______ _____ _____    ______ ____
ROOT
ATOM      1  O   UNL     1       7.570   4.454  16.556  0.00  0.00    +0.000 OA
ATOM      2  C   UNL     1       6.550   4.375  17.236  0.00  0.00    +0.000 A 
ATOM      3  N   UNL     1       5.461   3.688  16.799  0.00  0.00    +0.000 N 
ATOM      4  C   UNL     1       4.185   3.999  17.161  0.00  0.00    +0.000 A 
ATOM      5  O   UNL     1       3.253   3.718  16.412  0.00  0.00    +0.000 OA
ATOM      6  N   UNL     1       4.044   4.656  18.391  0.00  0.00    +0.000 N 
ATOM      7  C   UNL     1       5.161   5.179  19.025  0.00  0.00    +0.000 A 
ATOM      8  C   UNL     1       6.411   5.069  18.551  0.00  0.00    +0.000 A 
ATOM      9  H   UNL     1       5.548   3.279  15.881  0.00  0.00    +0.000 HD
ENDROOT
BRANCH   6  10
ATOM     10  C   UNL     1       2.654   4.935  18.828  0.00  0.00    +0.000 C 
ATOM     11  C   UNL     1       1.641   4.017  18.102  0.00  0.00    +0.000 C 
ATOM     12  C   UNL     1       1.406   2.876  19.076  0.00  0.00    +0.000 C 
ATOM     13  C   UNL     1       1.275   3.599  20.414  0.00  0.00    +0.000 C 
ATOM     14  C   UNL     1       2.282   4.764  20.325  0.00  0.00    +0.000 C 
BRANCH  12  15
ATOM     15  O   UNL     1       2.491   1.952  19.063  0.00  0.00    +0.000 OA
ATOM     16  H   UNL     1       2.944   1.993  19.926  0.00  0.00    +0.000 HD
ENDBRANCH  12  15
BRANCH  13  17
ATOM     17  C   UNL     1       1.465   2.710  21.637  0.00  0.00    +0.000 C 
BRANCH  17  18
ATOM     18  O   UNL     1       2.836   2.554  21.968  0.00  0.00    +0.000 OA
ATOM     19  H   UNL     1       2.879   2.587  22.948  0.00  0.00    +0.000 HD
ENDBRANCH  17  18
ENDBRANCH  13  17
ENDBRANCH   6  10
BRANCH   8  20
ATOM     20  C   UNL     1       7.587   5.716  19.124  0.00  0.00    +0.000 C 
ATOM     21  C   UNL     1       8.176   6.881  18.837  0.00  0.00    +0.000 C 
ATOM     22 BR   UNL     1       7.717   8.172  17.594  0.00  0.00    +0.000 Br
ENDBRANCH   8  20
TORSDOF 5
ENDMDL
MODEL 2
REMARK VINA RESULT:      -7.6      2.604      3.126
REMARK  Name = 
REMARK  5 active torsions:
REMARK  status: ('A' for Active; 'I' for Inactive)
REMARK    1  A    between atoms: N_6  and  C_7
REMARK    2  A    between atoms: C_9  and  O_10
REMARK    3  A    between atoms: C_11  and  C_12
REMARK    4  A    between atoms: C_12  and  O_13
REMARK    5  A    between atoms: C_16  and  C_17
REMARK                            x       y       z     vdW  Elec       q    Type
REMARK                         _______ _______ _______ _____ _____    ______ ____
ROOT
ATOM      1  O   UNL     1       6.646   7.217  16.813  0.00  0.00    +0.000 OA
ATOM      2  C   UNL     1       5.670   6.473  16.752  0.00  0.00    +0.000 A 
ATOM      3  N   UNL     1       4.517   6.765  17.411  0.00  0.00    +0.000 N 
ATOM      4  C   UNL     1       3.653   5.814  17.863  0.00  0.00    +0.000 A 
ATOM      5  O   UNL     1       2.935   6.053  18.831  0.00  0.00    +0.000 OA
ATOM      6  N   UNL     1       3.674   4.594  17.173  0.00  0.00    +0.000 N 
ATOM      7  C   UNL     1       4.705   4.322  16.287  0.00  0.00    +0.000 A 
ATOM      8  C   UNL     1       5.697   5.180  16.006  0.00  0.00    +0.000 A 
ATOM      9  H   UNL     1       4.537   7.609  17.962  0.00  0.00    +0.000 HD
ENDROOT
BRANCH   6  10
ATOM     10  C   UNL     1       2.686   3.577  17.611  0.00  0.00    +0.000 C 
ATOM     11  C   UNL     1       3.376   2.233  17.951  0.00  0.00    +0.000 C 
ATOM     12  C   UNL     1       3.559   2.277  19.458  0.00  0.00    +0.000 C 
ATOM     13  C   UNL     1       2.221   2.832  19.941  0.00  0.00    +0.000 C 
ATOM     14  C   UNL     1       1.815   3.858  18.864  0.00  0.00    +0.000 C 
BRANCH  12  15
ATOM     15  O   UNL     1       4.655   3.112  19.822  0.00  0.00    +0.000 OA
ATOM     16  H   UNL     1       4.646   3.234  20.790  0.00  0.00    +0.000 HD
ENDBRANCH  12  15
BRANCH  13  17
ATOM     17  C   UNL     1       2.244   3.398  21.357  0.00  0.00    +0.000 C 
BRANCH  17  18
ATOM     18  O   UNL     1       2.520   4.790  21.364  0.00  0.00    +0.000 OA
ATOM     19  H   UNL     1       2.522   5.066  20.422  0.00  0.00    +0.000 HD
ENDBRANCH  17  18
ENDBRANCH  13  17
ENDBRANCH   6  10
BRANCH   8  20
ATOM     20  C   UNL     1       6.862   4.877  15.181  0.00  0.00    +0.000 C 
ATOM     21  C   UNL     1       6.960   4.304  13.976  0.00  0.00    +0.000 C 
ATOM     22 BR   UNL     1       5.637   3.676  12.846  0.00  0.00    +0.000 Br
ENDBRANCH   8  20
TORSDOF 5
ENDMDL
MODEL 3
REMARK VINA RESULT:      -7.5      2.412      5.454
REMARK  Name = 
REMARK  5 active torsions:
REMARK  status: ('A' for Active; 'I' for Inactive)
REMARK    1  A    between atoms: N_6  and  C_7
REMARK    2  A    between atoms: C_9  and  O_10
REMARK    3  A    between atoms: C_11  and  C_12
REMARK    4  A    between atoms: C_12  and  O_13
REMARK    5  A    between atoms: C_16  and  C_17
REMARK                            x       y       z     vdW  Elec       q    Type
REMARK                         _______ _______ _______ _____ _____    ______ ____
ROOT
ATOM      1  O   UNL     1       0.666   4.121  20.292  0.00  0.00    +0.000 OA
ATOM      2  C   UNL     1       1.566   4.232  19.463  0.00  0.00    +0.000 A 
ATOM      3  N   UNL     1       1.872   3.217  18.613  0.00  0.00    +0.000 N 
ATOM      4  C   UNL     1       3.121   3.019  18.104  0.00  0.00    +0.000 A 
ATOM      5  O   UNL     1       3.473   1.889  17.775  0.00  0.00    +0.000 OA
ATOM      6  N   UNL     1       3.931   4.159  18.017  0.00  0.00    +0.000 N 
ATOM      7  C   UNL     1       3.554   5.323  18.668  0.00  0.00    +0.000 A 
ATOM      8  C   UNL     1       2.418   5.455  19.370  0.00  0.00    +0.000 A 
ATOM      9  H   UNL     1       1.330   2.375  18.732  0.00  0.00    +0.000 HD
ENDROOT
BRANCH   6  10
ATOM     10  C   UNL     1       5.266   3.968  17.397  0.00  0.00    +0.000 C 
ATOM     11  C   UNL     1       5.309   4.554  15.965  0.00  0.00    +0.000 C 
ATOM     12  C   UNL     1       5.916   5.935  16.143  0.00  0.00    +0.000 C 
ATOM     13  C   UNL     1       7.058   5.674  17.122  0.00  0.00    +0.000 C 
ATOM     14  C   UNL     1       6.512   4.594  18.076  0.00  0.00    +0.000 C 
BRANCH  12  15
ATOM     15  O   UNL     1       4.959   6.857  16.660  0.00  0.00    +0.000 OA
ATOM     16  H   UNL     1       4.215   6.918  16.032  0.00  0.00    +0.000 HD
ENDBRANCH  12  15
BRANCH  13  17
ATOM     17  C   UNL     1       7.582   6.918  17.830  0.00  0.00    +0.000 C 
BRANCH  17  18
ATOM     18  O   UNL     1       7.567   8.055  16.981  0.00  0.00    +0.000 OA
ATOM     19  H   UNL     1       6.798   7.931  16.384  0.00  0.00    +0.000 HD
ENDBRANCH  17  18
ENDBRANCH  13  17
ENDBRANCH   6  10
BRANCH   8  20
ATOM     20  C   UNL     1       2.055   6.619  20.171  0.00  0.00    +0.000 C 
ATOM     21  C   UNL     1       1.866   7.898  19.827  0.00  0.00    +0.000 C 
ATOM     22 BR   UNL     1       1.971   8.711  18.169  0.00  0.00    +0.000 Br
ENDBRANCH   8  20
TORSDOF 5
ENDMDL
MODEL 4
REMARK VINA RESULT:      -7.3      2.078      2.573
REMARK  Name = 
REMARK  5 active torsions:
REMARK  status: ('A' for Active; 'I' for Inactive)
REMARK    1  A    between atoms: N_6  and  C_7
REMARK    2  A    between atoms: C_9  and  O_10
REMARK    3  A    between atoms: C_11  and  C_12
REMARK    4  A    between atoms: C_12  and  O_13
REMARK    5  A    between atoms: C_16  and  C_17
REMARK                            x       y       z     vdW  Elec       q    Type
REMARK                         _______ _______ _______ _____ _____    ______ ____
ROOT
ATOM      1  O   UNL     1       8.235   4.086  17.648  0.00  0.00    +0.000 OA
ATOM      2  C   UNL     1       7.102   4.535  17.806  0.00  0.00    +0.000 A 
ATOM      3  N   UNL     1       6.462   4.434  19.000  0.00  0.00    +0.000 N 
ATOM      4  C   UNL     1       5.106   4.365  19.119  0.00  0.00    +0.000 A 
ATOM      5  O   UNL     1       4.607   3.799  20.088  0.00  0.00    +0.000 OA
ATOM      6  N   UNL     1       4.373   4.949  18.077  0.00  0.00    +0.000 N 
ATOM      7  C   UNL     1       5.014   5.308  16.901  0.00  0.00    +0.000 A 
ATOM      8  C   UNL     1       6.332   5.166  16.692  0.00  0.00    +0.000 A 
ATOM      9  H   UNL     1       6.971   3.948  19.723  0.00  0.00    +0.000 HD
ENDROOT
BRANCH   6  10
ATOM     10  C   UNL     1       2.897   4.944  18.231  0.00  0.00    +0.000 C 
ATOM     11  C   UNL     1       2.242   3.868  17.332  0.00  0.00    +0.000 C 
ATOM     12  C   UNL     1       2.048   2.677  18.254  0.00  0.00    +0.000 C 
ATOM     13  C   UNL     1       1.524   3.325  19.533  0.00  0.00    +0.000 C 
ATOM     14  C   UNL     1       2.284   4.664  19.628  0.00  0.00    +0.000 C 
BRANCH  12  15
ATOM     15  O   UNL     1       3.274   1.980  18.463  0.00  0.00    +0.000 OA
ATOM     16  H   UNL     1       3.931   2.607  18.822  0.00  0.00    +0.000 HD
ENDBRANCH  12  15
BRANCH  13  17
ATOM     17  C   UNL     1       1.642   2.456  20.779  0.00  0.00    +0.000 C 
BRANCH  17  18
ATOM     18  O   UNL     1       2.245   3.158  21.856  0.00  0.00    +0.000 OA
ATOM     19  H   UNL     1       2.798   3.856  21.443  0.00  0.00    +0.000 HD
ENDBRANCH  17  18
ENDBRANCH  13  17
ENDBRANCH   6  10
BRANCH   8  20
ATOM     20  C   UNL     1       7.014   5.412  15.426  0.00  0.00    +0.000 C 
ATOM     21  C   UNL     1       6.816   4.899  14.208  0.00  0.00    +0.000 C 
ATOM     22 BR   UNL     1       5.566   3.667  13.625  0.00  0.00    +0.000 Br
ENDBRANCH   8  20
TORSDOF 5
ENDMDL
MODEL 5
REMARK VINA RESULT:      -7.2      2.348      2.772
REMARK  Name = 
REMARK  5 active torsions:
REMARK  status: ('A' for Active; 'I' for Inactive)
REMARK    1  A    between atoms: N_6  and  C_7
REMARK    2  A    between atoms: C_9  and  O_10
REMARK    3  A    between atoms: C_11  and  C_12
REMARK    4  A    between atoms: C_12  and  O_13
REMARK    5  A    between atoms: C_16  and  C_17
REMARK                            x       y       z     vdW  Elec       q    Type
REMARK                         _______ _______ _______ _____ _____    ______ ____
ROOT
ATOM      1  O   UNL     1       6.398   7.247  17.351  0.00  0.00    +0.000 OA
ATOM      2  C   UNL     1       5.346   6.618  17.273  0.00  0.00    +0.000 A 
ATOM      3  N   UNL     1       4.151   7.202  17.551  0.00  0.00    +0.000 N 
ATOM      4  C   UNL     1       3.077   6.516  18.034  0.00  0.00    +0.000 A 
ATOM      5  O   UNL     1       2.237   7.099  18.714  0.00  0.00    +0.000 OA
ATOM      6  N   UNL     1       3.036   5.151  17.720  0.00  0.00    +0.000 N 
ATOM      7  C   UNL     1       4.159   4.530  17.196  0.00  0.00    +0.000 A 
ATOM      8  C   UNL     1       5.309   5.165  16.927  0.00  0.00    +0.000 A 
ATOM      9  H   UNL     1       4.199   8.166  17.846  0.00  0.00    +0.000 HD
ENDROOT
BRANCH   6  10
ATOM     10  C   UNL     1       1.835   4.410  18.180  0.00  0.00    +0.000 C 
ATOM     11  C   UNL     1       1.921   2.911  17.803  0.00  0.00    +0.000 C 
ATOM     12  C   UNL     1       2.453   2.240  19.058  0.00  0.00    +0.000 C 
ATOM     13  C   UNL     1       1.651   2.919  20.165  0.00  0.00    +0.000 C 
ATOM     14  C   UNL     1       1.498   4.379  19.694  0.00  0.00    +0.000 C 
BRANCH  12  15
ATOM     15  O   UNL     1       3.856   2.447  19.199  0.00  0.00    +0.000 OA
ATOM     16  H   UNL     1       4.284   2.271  18.340  0.00  0.00    +0.000 HD
ENDBRANCH  12  15
BRANCH  13  17
ATOM     17  C   UNL     1       2.252   2.780  21.560  0.00  0.00    +0.000 C 
BRANCH  17  18
ATOM     18  O   UNL     1       1.269   2.443  22.526  0.00  0.00    +0.000 OA
ATOM     19  H   UNL     1       0.965   3.296  22.906  0.00  0.00    +0.000 HD
ENDBRANCH  17  18
ENDBRANCH  13  17
ENDBRANCH   6  10
BRANCH   8  20
ATOM     20  C   UNL     1       6.546   4.520  16.498  0.00  0.00    +0.000 C 
ATOM     21  C   UNL     1       6.916   4.034  15.309  0.00  0.00    +0.000 C 
ATOM     22 BR   UNL     1       6.004   4.003  13.700  0.00  0.00    +0.000 Br
ENDBRANCH   8  20
TORSDOF 5
ENDMDL
MODEL 6
REMARK VINA RESULT:      -7.1      3.091      5.856
REMARK  Name = 
REMARK  5 active torsions:
REMARK  status: ('A' for Active; 'I' for Inactive)
REMARK    1  A    between atoms: N_6  and  C_7
REMARK    2  A    between atoms: C_9  and  O_10
REMARK    3  A    between atoms: C_11  and  C_12
REMARK    4  A    between atoms: C_12  and  O_13
REMARK    5  A    between atoms: C_16  and  C_17
REMARK                            x       y       z     vdW  Elec       q    Type
REMARK                         _______ _______ _______ _____ _____    ______ ____
ROOT
ATOM      1  O   UNL     1       1.350   5.264  20.807  0.00  0.00    +0.000 OA
ATOM      2  C   UNL     1       2.314   5.609  20.127  0.00  0.00    +0.000 A 
ATOM      3  N   UNL     1       2.490   6.904  19.755  0.00  0.00    +0.000 N 
ATOM      4  C   UNL     1       3.132   7.273  18.612  0.00  0.00    +0.000 A 
ATOM      5  O   UNL     1       2.852   8.341  18.073  0.00  0.00    +0.000 OA
ATOM      6  N   UNL     1       4.075   6.359  18.121  0.00  0.00    +0.000 N 
ATOM      7  C   UNL     1       4.117   5.072  18.632  0.00  0.00    +0.000 A 
ATOM      8  C   UNL     1       3.321   4.630  19.617  0.00  0.00    +0.000 A 
ATOM      9  H   UNL     1       1.767   7.541  20.053  0.00  0.00    +0.000 HD
ENDROOT
BRANCH   6  10
ATOM     10  C   UNL     1       4.832   6.784  16.917  0.00  0.00    +0.000 C 
ATOM     11  C   UNL     1       6.277   7.205  17.281  0.00  0.00    +0.000 C 
ATOM     12  C   UNL     1       7.109   5.964  17.007  0.00  0.00    +0.000 C 
ATOM     13  C   UNL     1       6.547   5.473  15.675  0.00  0.00    +0.000 C 
ATOM     14  C   UNL     1       5.037   5.774  15.757  0.00  0.00    +0.000 C 
BRANCH  12  15
ATOM     15  O   UNL     1       6.960   5.001  18.046  0.00  0.00    +0.000 OA
ATOM     16  H   UNL     1       6.150   4.484  17.877  0.00  0.00    +0.000 HD
ENDBRANCH  12  15
BRANCH  13  17
ATOM     17  C   UNL     1       6.871   4.020  15.348  0.00  0.00    +0.000 C 
BRANCH  17  18
ATOM     18  O   UNL     1       5.982   3.122  15.996  0.00  0.00    +0.000 OA
ATOM     19  H   UNL     1       6.419   2.244  15.963  0.00  0.00    +0.000 HD
ENDBRANCH  17  18
ENDBRANCH  13  17
ENDBRANCH   6  10
BRANCH   8  20
ATOM     20  C   UNL     1       3.251   3.251  20.087  0.00  0.00    +0.000 C 
ATOM     21  C   UNL     1       2.362   2.282  19.841  0.00  0.00    +0.000 C 
ATOM     22 BR   UNL     1       0.853   2.297  18.772  0.00  0.00    +0.000 Br
ENDBRANCH   8  20
TORSDOF 5
ENDMDL
MODEL 7
REMARK VINA RESULT:      -7.0      3.535      5.096
REMARK  Name = 
REMARK  5 active torsions:
REMARK  status: ('A' for Active; 'I' for Inactive)
REMARK    1  A    between atoms: N_6  and  C_7
REMARK    2  A    between atoms: C_9  and  O_10
REMARK    3  A    between atoms: C_11  and  C_12
REMARK    4  A    between atoms: C_12  and  O_13
REMARK    5  A    between atoms: C_16  and  C_17
REMARK                            x       y       z     vdW  Elec       q    Type
REMARK                         _______ _______ _______ _____ _____    ______ ____
ROOT
ATOM      1  O   UNL     1       7.565   4.595  12.289  0.00  0.00    +0.000 OA
ATOM      2  C   UNL     1       6.944   4.630  13.349  0.00  0.00    +0.000 A 
ATOM      3  N   UNL     1       7.528   5.066  14.496  0.00  0.00    +0.000 N 
ATOM      4  C   UNL     1       7.162   4.631  15.734  0.00  0.00    +0.000 A 
ATOM      5  O   UNL     1       7.980   4.643  16.651  0.00  0.00    +0.000 OA
ATOM      6  N   UNL     1       5.844   4.170  15.853  0.00  0.00    +0.000 N 
ATOM      7  C   UNL     1       5.092   3.931  14.713  0.00  0.00    +0.000 A 
ATOM      8  C   UNL     1       5.535   4.147  13.465  0.00  0.00    +0.000 A 
ATOM      9  H   UNL     1       8.499   5.328  14.414  0.00  0.00    +0.000 HD
ENDROOT
BRANCH   6  10
ATOM     10  C   UNL     1       5.413   3.761  17.213  0.00  0.00    +0.000 C 
ATOM     11  C   UNL     1       5.565   4.924  18.224  0.00  0.00    +0.000 C 
ATOM     12  C   UNL     1       4.181   5.544  18.291  0.00  0.00    +0.000 C 
ATOM     13  C   UNL     1       3.269   4.321  18.347  0.00  0.00    +0.000 C 
ATOM     14  C   UNL     1       3.954   3.285  17.434  0.00  0.00    +0.000 C 
BRANCH  12  15
ATOM     15  O   UNL     1       3.923   6.360  17.152  0.00  0.00    +0.000 OA
ATOM     16  H   UNL     1       3.011   6.194  16.850  0.00  0.00    +0.000 HD
ENDBRANCH  12  15
BRANCH  13  17
ATOM     17  C   UNL     1       1.814   4.598  17.987  0.00  0.00    +0.000 C 
BRANCH  17  18
ATOM     18  O   UNL     1       1.081   3.398  17.795  0.00  0.00    +0.000 OA
ATOM     19  H   UNL     1       1.747   2.709  17.583  0.00  0.00    +0.000 HD
ENDBRANCH  17  18
ENDBRANCH  13  17
ENDBRANCH   6  10
BRANCH   8  20
ATOM     20  C   UNL     1       4.820   3.787  12.245  0.00  0.00    +0.000 C 
ATOM     21  C   UNL     1       4.983   2.761  11.402  0.00  0.00    +0.000 C 
ATOM     22 BR   UNL     1       6.184   1.356  11.457  0.00  0.00    +0.000 Br
ENDBRANCH   8  20
TORSDOF 5
ENDMDL
MODEL 8
REMARK VINA RESULT:      -7.0      2.031      2.720
REMARK  Name = 
REMARK  5 active torsions:
REMARK  status: ('A' for Active; 'I' for Inactive)
REMARK    1  A    between atoms: N_6  and  C_7
REMARK    2  A    between atoms: C_9  and  O_10
REMARK    3  A    between atoms: C_11  and  C_12
REMARK    4  A    between atoms: C_12  and  O_13
REMARK    5  A    between atoms: C_16  and  C_17
REMARK                            x       y       z     vdW  Elec       q    Type
REMARK                         _______ _______ _______ _____ _____    ______ ____
ROOT
ATOM      1  O   UNL     1       7.939   4.196  16.598  0.00  0.00    +0.000 OA
ATOM      2  C   UNL     1       6.802   4.604  16.823  0.00  0.00    +0.000 A 
ATOM      3  N   UNL     1       6.516   5.316  17.945  0.00  0.00    +0.000 N 
ATOM      4  C   UNL     1       5.293   5.310  18.544  0.00  0.00    +0.000 A 
ATOM      5  O   UNL     1       5.202   5.530  19.749  0.00  0.00    +0.000 OA
ATOM      6  N   UNL     1       4.206   5.022  17.706  0.00  0.00    +0.000 N 
ATOM      7  C   UNL     1       4.432   4.514  16.436  0.00  0.00    +0.000 A 
ATOM      8  C   UNL     1       5.652   4.302  15.919  0.00  0.00    +0.000 A 
ATOM      9  H   UNL     1       7.291   5.456  18.576  0.00  0.00    +0.000 HD
ENDROOT
BRANCH   6  10
ATOM     10  C   UNL     1       2.862   5.084  18.332  0.00  0.00    +0.000 C 
ATOM     11  C   UNL     1       1.922   3.999  17.752  0.00  0.00    +0.000 C 
ATOM     12  C   UNL     1       2.010   2.856  18.749  0.00  0.00    +0.000 C 
ATOM     13  C   UNL     1       1.948   3.579  20.092  0.00  0.00    +0.000 C 
ATOM     14  C   UNL     1       2.732   4.887  19.865  0.00  0.00    +0.000 C 
BRANCH  12  15
ATOM     15  O   UNL     1       3.219   2.119  18.584  0.00  0.00    +0.000 OA
ATOM     16  H   UNL     1       3.829   2.358  19.307  0.00  0.00    +0.000 HD
ENDBRANCH  12  15
BRANCH  13  17
ATOM     17  C   UNL     1       2.446   2.758  21.277  0.00  0.00    +0.000 C 
BRANCH  17  18
ATOM     18  O   UNL     1       1.430   2.566  22.249  0.00  0.00    +0.000 OA
ATOM     19  H   UNL     1       0.959   3.425  22.315  0.00  0.00    +0.000 HD
ENDBRANCH  17  18
ENDBRANCH  13  17
ENDBRANCH   6  10
BRANCH   8  20
ATOM     20  C   UNL     1       5.922   3.651  14.642  0.00  0.00    +0.000 C 
ATOM     21  C   UNL     1       6.669   4.035  13.602  0.00  0.00    +0.000 C 
ATOM     22 BR   UNL     1       7.691   5.559  13.369  0.00  0.00    +0.000 Br
ENDBRANCH   8  20
TORSDOF 5
ENDMDL
MODEL 9
REMARK VINA RESULT:      -7.0      2.229      2.628
REMARK  Name = 
REMARK  5 active torsions:
REMARK  status: ('A' for Active; 'I' for Inactive)
REMARK    1  A    between atoms: N_6  and  C_7
REMARK    2  A    between atoms: C_9  and  O_10
REMARK    3  A    between atoms: C_11  and  C_12
REMARK    4  A    between atoms: C_12  and  O_13
REMARK    5  A    between atoms: C_16  and  C_17
REMARK                            x       y       z     vdW  Elec       q    Type
REMARK                         _______ _______ _______ _____ _____    ______ ____
ROOT
ATOM      1  O   UNL     1       5.797   7.355  17.197  0.00  0.00    +0.000 OA
ATOM      2  C   UNL     1       4.772   6.678  17.186  0.00  0.00    +0.000 A 
ATOM      3  N   UNL     1       3.617   7.137  17.735  0.00  0.00    +0.000 N 
ATOM      4  C   UNL     1       2.665   6.320  18.267  0.00  0.00    +0.000 A 
ATOM      5  O   UNL     1       1.925   6.742  19.152  0.00  0.00    +0.000 OA
ATOM      6  N   UNL     1       2.626   5.016  17.754  0.00  0.00    +0.000 N 
ATOM      7  C   UNL     1       3.671   4.552  16.971  0.00  0.00    +0.000 A 
ATOM      8  C   UNL     1       4.736   5.293  16.628  0.00  0.00    +0.000 A 
ATOM      9  H   UNL     1       3.675   8.048  18.165  0.00  0.00    +0.000 HD
ENDROOT
BRANCH   6  10
ATOM     10  C   UNL     1       1.546   4.140  18.275  0.00  0.00    +0.000 C 
ATOM     11  C   UNL     1       1.906   2.644  18.106  0.00  0.00    +0.000 C 
ATOM     12  C   UNL     1       2.479   2.242  19.454  0.00  0.00    +0.000 C 
ATOM     13  C   UNL     1       1.518   2.905  20.436  0.00  0.00    +0.000 C 
ATOM     14  C   UNL     1       1.142   4.244  19.769  0.00  0.00    +0.000 C 
BRANCH  12  15
ATOM     15  O   UNL     1       3.817   2.709  19.606  0.00  0.00    +0.000 OA
ATOM     16  H   UNL     1       4.281   2.122  20.233  0.00  0.00    +0.000 HD
ENDBRANCH  12  15
BRANCH  13  17
ATOM     17  C   UNL     1       2.061   3.052  21.853  0.00  0.00    +0.000 C 
BRANCH  17  18
ATOM     18  O   UNL     1       3.090   2.113  22.124  0.00  0.00    +0.000 OA
ATOM     19  H   UNL     1       2.659   1.380  22.616  0.00  0.00    +0.000 HD
ENDBRANCH  17  18
ENDBRANCH  13  17
ENDBRANCH   6  10
BRANCH   8  20
ATOM     20  C   UNL     1       5.910   4.798  15.917  0.00  0.00    +0.000 C 
ATOM     21  C   UNL     1       7.143   4.514  16.348  0.00  0.00    +0.000 C 
ATOM     22 BR   UNL     1       7.861   4.617  18.049  0.00  0.00    +0.000 Br
ENDBRANCH   8  20
TORSDOF 5
ENDMDL
