MODEL 1
REMARK VINA RESULT:      -7.0      0.000      0.000
REMARK  Name = 
REMARK  4 active torsions:
REMARK  status: ('A' for Active; 'I' for Inactive)
REMARK    1  A    between atoms: C_1  and  O_2
REMARK    2  A    between atoms: O_2  and  C_3
REMARK    3  A    between atoms: C_15  and  C_16
REMARK    4  A    between atoms: C_17  and  C_18
REMARK                            x       y       z     vdW  Elec       q    Type
REMARK                         _______ _______ _______ _____ _____    ______ ____
ROOT
ATOM      1  C   UNL     1       3.796   4.475  19.506  0.00  0.00    +0.000 A 
ATOM      2  C   UNL     1       2.884   4.499  20.554  0.00  0.00    +0.000 A 
ATOM      3  C   UNL     1       1.999   5.569  20.689  0.00  0.00    +0.000 A 
ATOM      4  C   UNL     1       2.020   6.653  19.796  0.00  0.00    +0.000 A 
ATOM      5  C   UNL     1       2.961   6.636  18.745  0.00  0.00    +0.000 A 
ATOM      6  C   UNL     1       3.854   5.554  18.626  0.00  0.00    +0.000 A 
ATOM      7  C   UNL     1       3.093   7.779  17.764  0.00  0.00    +0.000 C 
ATOM      8  C   UNL     1       1.895   8.726  17.759  0.00  0.00    +0.000 C 
ATOM      9  C   UNL     1       1.506   9.064  19.201  0.00  0.00    +0.000 C 
ATOM     10  C   UNL     1       0.988   7.774  19.899  0.00  0.00    +0.000 C 
ATOM     11  C   UNL     1       0.465   8.055  21.333  0.00  0.00    +0.000 C 
ATOM     12  C   UNL     1      -0.486   9.264  21.429  0.00  0.00    +0.000 C 
ATOM     13  C   UNL     1       0.112  10.517  20.771  0.00  0.00    +0.000 C 
ATOM     14  C   UNL     1       1.348  10.985  21.580  0.00  0.00    +0.000 C 
ATOM     15  C   UNL     1      -0.889  11.688  20.543  0.00  0.00    +0.000 C 
ATOM     16  C   UNL     1      -0.322  12.433  19.300  0.00  0.00    +0.000 C 
ATOM     17  C   UNL     1       0.677  11.481  18.627  0.00  0.00    +0.000 C 
ATOM     18  C   UNL     1       0.426  10.142  19.301  0.00  0.00    +0.000 C 
ENDROOT
BRANCH  15  19
ATOM     19  C   UNL     1      -1.229  12.562  21.736  0.00  0.00    +0.000 A 
ATOM     20  C   UNL     1      -0.500  13.717  22.064  0.00  0.00    +0.000 A 
ATOM     21  C   UNL     1      -0.866  14.523  23.145  0.00  0.00    +0.000 A 
ATOM     22  C   UNL     1      -1.962  14.181  23.929  0.00  0.00    +0.000 A 
ATOM     23  C   UNL     1      -2.682  13.025  23.640  0.00  0.00    +0.000 A 
ATOM     24  C   UNL     1      -2.317  12.221  22.557  0.00  0.00    +0.000 A 
ENDBRANCH  15  19
BRANCH   1  26
ATOM     25  C   UNL     1       4.157   2.151  19.447  0.00  0.00    +0.000 C 
ATOM     26  O   UNL     1       4.687   3.462  19.273  0.00  0.00    +0.000 OA
ENDBRANCH   1  26
TORSDOF 2
ENDMDL
MODEL 2
REMARK VINA RESULT:      -6.8      3.009      8.898
REMARK  Name = 
REMARK  4 active torsions:
REMARK  status: ('A' for Active; 'I' for Inactive)
REMARK    1  A    between atoms: C_1  and  O_2
REMARK    2  A    between atoms: O_2  and  C_3
REMARK    3  A    between atoms: C_15  and  C_16
REMARK    4  A    between atoms: C_17  and  C_18
REMARK                            x       y       z     vdW  Elec       q    Type
REMARK                         _______ _______ _______ _____ _____    ______ ____
ROOT
ATOM      1  C   UNL     1       0.018  12.260  20.880  0.00  0.00    +0.000 A 
ATOM      2  C   UNL     1       0.312  12.253  19.522  0.00  0.00    +0.000 A 
ATOM      3  C   UNL     1       0.772  11.086  18.911  0.00  0.00    +0.000 A 
ATOM      4  C   UNL     1       0.973   9.906  19.644  0.00  0.00    +0.000 A 
ATOM      5  C   UNL     1       0.693   9.921  21.027  0.00  0.00    +0.000 A 
ATOM      6  C   UNL     1       0.238  11.108  21.632  0.00  0.00    +0.000 A 
ATOM      7  C   UNL     1       0.924   8.716  21.909  0.00  0.00    +0.000 C 
ATOM      8  C   UNL     1       1.089   7.409  21.134  0.00  0.00    +0.000 C 
ATOM      9  C   UNL     1       2.049   7.631  19.960  0.00  0.00    +0.000 C 
ATOM     10  C   UNL     1       1.389   8.611  18.949  0.00  0.00    +0.000 C 
ATOM     11  C   UNL     1       2.251   8.800  17.671  0.00  0.00    +0.000 C 
ATOM     12  C   UNL     1       2.755   7.482  17.053  0.00  0.00    +0.000 C 
ATOM     13  C   UNL     1       3.445   6.587  18.095  0.00  0.00    +0.000 C 
ATOM     14  C   UNL     1       4.754   7.267  18.573  0.00  0.00    +0.000 C 
ATOM     15  C   UNL     1       3.705   5.120  17.642  0.00  0.00    +0.000 C 
ATOM     16  C   UNL     1       3.678   4.305  18.968  0.00  0.00    +0.000 C 
ATOM     17  C   UNL     1       3.015   5.197  20.026  0.00  0.00    +0.000 C 
ATOM     18  C   UNL     1       2.414   6.341  19.224  0.00  0.00    +0.000 C 
ENDROOT
BRANCH  15  19
ATOM     19  C   UNL     1       4.897   4.867  16.737  0.00  0.00    +0.000 A 
ATOM     20  C   UNL     1       4.812   4.919  15.336  0.00  0.00    +0.000 A 
ATOM     21  C   UNL     1       5.939   4.723  14.534  0.00  0.00    +0.000 A 
ATOM     22  C   UNL     1       7.172   4.455  15.118  0.00  0.00    +0.000 A 
ATOM     23  C   UNL     1       7.274   4.370  16.504  0.00  0.00    +0.000 A 
ATOM     24  C   UNL     1       6.147   4.570  17.306  0.00  0.00    +0.000 A 
ENDBRANCH  15  19
BRANCH   1  26
ATOM     25  C   UNL     1      -0.984  13.044  22.859  0.00  0.00    +0.000 C 
ATOM     26  O   UNL     1      -0.461  13.343  21.568  0.00  0.00    +0.000 OA
ENDBRANCH   1  26
TORSDOF 2
ENDMDL
MODEL 3
REMARK VINA RESULT:      -6.8      0.639      1.176
REMARK  Name = 
REMARK  4 active torsions:
REMARK  status: ('A' for Active; 'I' for Inactive)
REMARK    1  A    between atoms: C_1  and  O_2
REMARK    2  A    between atoms: O_2  and  C_3
REMARK    3  A    between atoms: C_15  and  C_16
REMARK    4  A    between atoms: C_17  and  C_18
REMARK                            x       y       z     vdW  Elec       q    Type
REMARK                         _______ _______ _______ _____ _____    ______ ____
ROOT
ATOM      1  C   UNL     1       3.929   4.896  19.307  0.00  0.00    +0.000 A 
ATOM      2  C   UNL     1       3.082   4.861  20.408  0.00  0.00    +0.000 A 
ATOM      3  C   UNL     1       2.133   5.867  20.595  0.00  0.00    +0.000 A 
ATOM      4  C   UNL     1       2.022   6.944  19.701  0.00  0.00    +0.000 A 
ATOM      5  C   UNL     1       2.898   6.988  18.595  0.00  0.00    +0.000 A 
ATOM      6  C   UNL     1       3.856   5.972  18.423  0.00  0.00    +0.000 A 
ATOM      7  C   UNL     1       2.888   8.131  17.606  0.00  0.00    +0.000 C 
ATOM      8  C   UNL     1       1.627   8.991  17.672  0.00  0.00    +0.000 C 
ATOM      9  C   UNL     1       1.303   9.309  19.135  0.00  0.00    +0.000 C 
ATOM     10  C   UNL     1       0.922   7.989  19.864  0.00  0.00    +0.000 C 
ATOM     11  C   UNL     1       0.467   8.241  21.328  0.00  0.00    +0.000 C 
ATOM     12  C   UNL     1      -0.559   9.379  21.480  0.00  0.00    +0.000 C 
ATOM     13  C   UNL     1      -0.094  10.669  20.784  0.00  0.00    +0.000 C 
ATOM     14  C   UNL     1       1.153  11.228  21.516  0.00  0.00    +0.000 C 
ATOM     15  C   UNL     1      -1.187  11.764  20.616  0.00  0.00    +0.000 C 
ATOM     16  C   UNL     1      -0.751  12.540  19.339  0.00  0.00    +0.000 C 
ATOM     17  C   UNL     1       0.270  11.658  18.609  0.00  0.00    +0.000 C 
ATOM     18  C   UNL     1       0.157  10.308  19.299  0.00  0.00    +0.000 C 
ENDROOT
BRANCH  15  19
ATOM     19  C   UNL     1      -1.516  12.619  21.827  0.00  0.00    +0.000 A 
ATOM     20  C   UNL     1      -2.547  12.299  22.725  0.00  0.00    +0.000 A 
ATOM     21  C   UNL     1      -2.794  13.085  23.853  0.00  0.00    +0.000 A 
ATOM     22  C   UNL     1      -2.023  14.216  24.097  0.00  0.00    +0.000 A 
ATOM     23  C   UNL     1      -1.014  14.568  23.205  0.00  0.00    +0.000 A 
ATOM     24  C   UNL     1      -0.765  13.779  22.078  0.00  0.00    +0.000 A 
ENDBRANCH  15  19
BRANCH   1  26
ATOM     25  C   UNL     1       5.934   4.400  18.182  0.00  0.00    +0.000 C 
ATOM     26  O   UNL     1       4.874   3.948  19.021  0.00  0.00    +0.000 OA
ENDBRANCH   1  26
TORSDOF 2
ENDMDL
MODEL 4
REMARK VINA RESULT:      -6.8      8.863     11.551
REMARK  Name = 
REMARK  4 active torsions:
REMARK  status: ('A' for Active; 'I' for Inactive)
REMARK    1  A    between atoms: C_1  and  O_2
REMARK    2  A    between atoms: O_2  and  C_3
REMARK    3  A    between atoms: C_15  and  C_16
REMARK    4  A    between atoms: C_17  and  C_18
REMARK                            x       y       z     vdW  Elec       q    Type
REMARK                         _______ _______ _______ _____ _____    ______ ____
ROOT
ATOM      1  C   UNL     1       5.070  12.148  26.540  0.00  0.00    +0.000 A 
ATOM      2  C   UNL     1       5.612  11.142  25.751  0.00  0.00    +0.000 A 
ATOM      3  C   UNL     1       6.667  11.424  24.882  0.00  0.00    +0.000 A 
ATOM      4  C   UNL     1       7.188  12.722  24.761  0.00  0.00    +0.000 A 
ATOM      5  C   UNL     1       6.621  13.747  25.548  0.00  0.00    +0.000 A 
ATOM      6  C   UNL     1       5.553  13.450  26.414  0.00  0.00    +0.000 A 
ATOM      7  C   UNL     1       7.081  15.184  25.453  0.00  0.00    +0.000 C 
ATOM      8  C   UNL     1       8.433  15.352  24.761  0.00  0.00    +0.000 C 
ATOM      9  C   UNL     1       8.461  14.506  23.484  0.00  0.00    +0.000 C 
ATOM     10  C   UNL     1       8.400  13.002  23.875  0.00  0.00    +0.000 C 
ATOM     11  C   UNL     1       8.540  12.071  22.640  0.00  0.00    +0.000 C 
ATOM     12  C   UNL     1       9.702  12.444  21.700  0.00  0.00    +0.000 C 
ATOM     13  C   UNL     1       9.668  13.931  21.309  0.00  0.00    +0.000 C 
ATOM     14  C   UNL     1       8.416  14.206  20.437  0.00  0.00    +0.000 C 
ATOM     15  C   UNL     1      10.960  14.466  20.625  0.00  0.00    +0.000 C 
ATOM     16  C   UNL     1      10.992  15.975  21.007  0.00  0.00    +0.000 C 
ATOM     17  C   UNL     1      10.020  16.158  22.180  0.00  0.00    +0.000 C 
ATOM     18  C   UNL     1       9.707  14.740  22.629  0.00  0.00    +0.000 C 
ENDROOT
BRANCH  15  19
ATOM     19  C   UNL     1      11.155  14.155  19.152  0.00  0.00    +0.000 A 
ATOM     20  C   UNL     1      11.059  15.134  18.150  0.00  0.00    +0.000 A 
ATOM     21  C   UNL     1      11.286  14.821  16.808  0.00  0.00    +0.000 A 
ATOM     22  C   UNL     1      11.599  13.518  16.439  0.00  0.00    +0.000 A 
ATOM     23  C   UNL     1      11.671  12.525  17.412  0.00  0.00    +0.000 A 
ATOM     24  C   UNL     1      11.447  12.839  18.756  0.00  0.00    +0.000 A 
ENDBRANCH  15  19
BRANCH   1  26
ATOM     25  C   UNL     1       3.918  13.015  28.399  0.00  0.00    +0.000 C 
ATOM     26  O   UNL     1       4.053  11.970  27.440  0.00  0.00    +0.000 OA
ENDBRANCH   1  26
TORSDOF 2
ENDMDL
MODEL 5
REMARK VINA RESULT:      -6.6      2.798      8.481
REMARK  Name = 
REMARK  4 active torsions:
REMARK  status: ('A' for Active; 'I' for Inactive)
REMARK    1  A    between atoms: C_1  and  O_2
REMARK    2  A    between atoms: O_2  and  C_3
REMARK    3  A    between atoms: C_15  and  C_16
REMARK    4  A    between atoms: C_17  and  C_18
REMARK                            x       y       z     vdW  Elec       q    Type
REMARK                         _______ _______ _______ _____ _____    ______ ____
ROOT
ATOM      1  C   UNL     1      -1.438  11.683  21.231  0.00  0.00    +0.000 A 
ATOM      2  C   UNL     1      -1.117  10.672  22.129  0.00  0.00    +0.000 A 
ATOM      3  C   UNL     1      -0.145   9.726  21.801  0.00  0.00    +0.000 A 
ATOM      4  C   UNL     1       0.511   9.751  20.560  0.00  0.00    +0.000 A 
ATOM      5  C   UNL     1       0.168  10.766  19.642  0.00  0.00    +0.000 A 
ATOM      6  C   UNL     1      -0.819  11.709  19.982  0.00  0.00    +0.000 A 
ATOM      7  C   UNL     1       0.784  10.847  18.263  0.00  0.00    +0.000 C 
ATOM      8  C   UNL     1       2.056  10.014  18.108  0.00  0.00    +0.000 C 
ATOM      9  C   UNL     1       1.832   8.624  18.710  0.00  0.00    +0.000 C 
ATOM     10  C   UNL     1       1.636   8.766  20.247  0.00  0.00    +0.000 C 
ATOM     11  C   UNL     1       1.516   7.387  20.951  0.00  0.00    +0.000 C 
ATOM     12  C   UNL     1       2.596   6.372  20.532  0.00  0.00    +0.000 C 
ATOM     13  C   UNL     1       2.697   6.239  19.004  0.00  0.00    +0.000 C 
ATOM     14  C   UNL     1       1.394   5.604  18.454  0.00  0.00    +0.000 C 
ATOM     15  C   UNL     1       3.955   5.484  18.485  0.00  0.00    +0.000 C 
ATOM     16  C   UNL     1       4.213   6.101  17.079  0.00  0.00    +0.000 C 
ATOM     17  C   UNL     1       3.415   7.410  17.014  0.00  0.00    +0.000 C 
ATOM     18  C   UNL     1       2.988   7.657  18.452  0.00  0.00    +0.000 C 
ENDROOT
BRANCH  15  19
ATOM     19  C   UNL     1       3.936   3.967  18.545  0.00  0.00    +0.000 A 
ATOM     20  C   UNL     1       4.377   3.246  19.666  0.00  0.00    +0.000 A 
ATOM     21  C   UNL     1       4.306   1.851  19.705  0.00  0.00    +0.000 A 
ATOM     22  C   UNL     1       3.805   1.149  18.615  0.00  0.00    +0.000 A 
ATOM     23  C   UNL     1       3.389   1.841  17.481  0.00  0.00    +0.000 A 
ATOM     24  C   UNL     1       3.458   3.237  17.444  0.00  0.00    +0.000 A 
ENDBRANCH  15  19
BRANCH   1  26
ATOM     25  C   UNL     1      -3.368  12.791  20.471  0.00  0.00    +0.000 C 
ATOM     26  O   UNL     1      -2.356  12.671  21.466  0.00  0.00    +0.000 OA
ENDBRANCH   1  26
TORSDOF 2
ENDMDL
MODEL 6
REMARK VINA RESULT:      -6.6      8.850     11.450
REMARK  Name = 
REMARK  4 active torsions:
REMARK  status: ('A' for Active; 'I' for Inactive)
REMARK    1  A    between atoms: C_1  and  O_2
REMARK    2  A    between atoms: O_2  and  C_3
REMARK    3  A    between atoms: C_15  and  C_16
REMARK    4  A    between atoms: C_17  and  C_18
REMARK                            x       y       z     vdW  Elec       q    Type
REMARK                         _______ _______ _______ _____ _____    ______ ____
ROOT
ATOM      1  C   UNL     1       5.178  12.029  26.502  0.00  0.00    +0.000 A 
ATOM      2  C   UNL     1       5.766  11.035  25.728  0.00  0.00    +0.000 A 
ATOM      3  C   UNL     1       6.809  11.350  24.857  0.00  0.00    +0.000 A 
ATOM      4  C   UNL     1       7.274  12.668  24.718  0.00  0.00    +0.000 A 
ATOM      5  C   UNL     1       6.662  13.679  25.489  0.00  0.00    +0.000 A 
ATOM      6  C   UNL     1       5.605  13.348  26.357  0.00  0.00    +0.000 A 
ATOM      7  C   UNL     1       7.059  15.133  25.373  0.00  0.00    +0.000 C 
ATOM      8  C   UNL     1       8.404  15.349  24.681  0.00  0.00    +0.000 C 
ATOM      9  C   UNL     1       8.472  14.487  23.417  0.00  0.00    +0.000 C 
ATOM     10  C   UNL     1       8.475  12.987  23.830  0.00  0.00    +0.000 C 
ATOM     11  C   UNL     1       8.658  12.045  22.609  0.00  0.00    +0.000 C 
ATOM     12  C   UNL     1       9.805  12.455  21.666  0.00  0.00    +0.000 C 
ATOM     13  C   UNL     1       9.708  13.932  21.253  0.00  0.00    +0.000 C 
ATOM     14  C   UNL     1       8.448  14.140  20.375  0.00  0.00    +0.000 C 
ATOM     15  C   UNL     1      10.978  14.513  20.564  0.00  0.00    +0.000 C 
ATOM     16  C   UNL     1      10.943  16.027  20.923  0.00  0.00    +0.000 C 
ATOM     17  C   UNL     1       9.961  16.185  22.092  0.00  0.00    +0.000 C 
ATOM     18  C   UNL     1       9.709  14.761  22.561  0.00  0.00    +0.000 C 
ENDROOT
BRANCH  15  19
ATOM     19  C   UNL     1      11.189  14.189  19.096  0.00  0.00    +0.000 A 
ATOM     20  C   UNL     1      11.462  12.890  18.637  0.00  0.00    +0.000 A 
ATOM     21  C   UNL     1      11.609  12.620  17.274  0.00  0.00    +0.000 A 
ATOM     22  C   UNL     1      11.499  13.647  16.344  0.00  0.00    +0.000 A 
ATOM     23  C   UNL     1      11.258  14.947  16.779  0.00  0.00    +0.000 A 
ATOM     24  C   UNL     1      11.109  15.217  18.142  0.00  0.00    +0.000 A 
ENDBRANCH  15  19
BRANCH   1  26
ATOM     25  C   UNL     1       3.717  10.471  27.486  0.00  0.00    +0.000 C 
ATOM     26  O   UNL     1       4.168  11.820  27.402  0.00  0.00    +0.000 OA
ENDBRANCH   1  26
TORSDOF 2
ENDMDL
MODEL 7
REMARK VINA RESULT:      -6.6      3.021      8.937
REMARK  Name = 
REMARK  4 active torsions:
REMARK  status: ('A' for Active; 'I' for Inactive)
REMARK    1  A    between atoms: C_1  and  O_2
REMARK    2  A    between atoms: O_2  and  C_3
REMARK    3  A    between atoms: C_15  and  C_16
REMARK    4  A    between atoms: C_17  and  C_18
REMARK                            x       y       z     vdW  Elec       q    Type
REMARK                         _______ _______ _______ _____ _____    ______ ____
ROOT
ATOM      1  C   UNL     1      -0.034  12.189  20.911  0.00  0.00    +0.000 A 
ATOM      2  C   UNL     1       0.268  12.195  19.554  0.00  0.00    +0.000 A 
ATOM      3  C   UNL     1       0.743  11.036  18.937  0.00  0.00    +0.000 A 
ATOM      4  C   UNL     1       0.950   9.852  19.663  0.00  0.00    +0.000 A 
ATOM      5  C   UNL     1       0.662   9.856  21.045  0.00  0.00    +0.000 A 
ATOM      6  C   UNL     1       0.193  11.033  21.656  0.00  0.00    +0.000 A 
ATOM      7  C   UNL     1       0.900   8.646  21.920  0.00  0.00    +0.000 C 
ATOM      8  C   UNL     1       1.082   7.347  21.136  0.00  0.00    +0.000 C 
ATOM      9  C   UNL     1       2.045   7.585  19.970  0.00  0.00    +0.000 C 
ATOM     10  C   UNL     1       1.382   8.567  18.962  0.00  0.00    +0.000 C 
ATOM     11  C   UNL     1       2.250   8.773  17.691  0.00  0.00    +0.000 C 
ATOM     12  C   UNL     1       2.770   7.464  17.066  0.00  0.00    +0.000 C 
ATOM     13  C   UNL     1       3.463   6.568  18.106  0.00  0.00    +0.000 C 
ATOM     14  C   UNL     1       4.762   7.257  18.596  0.00  0.00    +0.000 C 
ATOM     15  C   UNL     1       3.738   5.107  17.644  0.00  0.00    +0.000 C 
ATOM     16  C   UNL     1       3.712   4.282  18.964  0.00  0.00    +0.000 C 
ATOM     17  C   UNL     1       3.034   5.161  20.024  0.00  0.00    +0.000 C 
ATOM     18  C   UNL     1       2.427   6.305  19.227  0.00  0.00    +0.000 C 
ENDROOT
BRANCH  15  19
ATOM     19  C   UNL     1       4.938   4.871  16.744  0.00  0.00    +0.000 A 
ATOM     20  C   UNL     1       6.233   4.658  17.245  0.00  0.00    +0.000 A 
ATOM     21  C   UNL     1       7.307   4.401  16.390  0.00  0.00    +0.000 A 
ATOM     22  C   UNL     1       7.110   4.367  15.014  0.00  0.00    +0.000 A 
ATOM     23  C   UNL     1       5.841   4.604  14.494  0.00  0.00    +0.000 A 
ATOM     24  C   UNL     1       4.766   4.858  15.350  0.00  0.00    +0.000 A 
ENDBRANCH  15  19
BRANCH   1  26
ATOM     25  C   UNL     1      -1.627  13.918  20.980  0.00  0.00    +0.000 C 
ATOM     26  O   UNL     1      -0.526  13.263  21.603  0.00  0.00    +0.000 OA
ENDBRANCH   1  26
TORSDOF 2
ENDMDL
MODEL 8
REMARK VINA RESULT:      -6.6      5.478      7.366
REMARK  Name = 
REMARK  4 active torsions:
REMARK  status: ('A' for Active; 'I' for Inactive)
REMARK    1  A    between atoms: C_1  and  O_2
REMARK    2  A    between atoms: O_2  and  C_3
REMARK    3  A    between atoms: C_15  and  C_16
REMARK    4  A    between atoms: C_17  and  C_18
REMARK                            x       y       z     vdW  Elec       q    Type
REMARK                         _______ _______ _______ _____ _____    ______ ____
ROOT
ATOM      1  C   UNL     1      -2.946  10.453  15.753  0.00  0.00    +0.000 A 
ATOM      2  C   UNL     1      -1.958  10.352  16.725  0.00  0.00    +0.000 A 
ATOM      3  C   UNL     1      -2.189  10.841  18.012  0.00  0.00    +0.000 A 
ATOM      4  C   UNL     1      -3.400  11.463  18.353  0.00  0.00    +0.000 A 
ATOM      5  C   UNL     1      -4.394  11.583  17.358  0.00  0.00    +0.000 A 
ATOM      6  C   UNL     1      -4.145  11.094  16.062  0.00  0.00    +0.000 A 
ATOM      7  C   UNL     1      -5.711  12.280  17.615  0.00  0.00    +0.000 C 
ATOM      8  C   UNL     1      -6.026  12.472  19.098  0.00  0.00    +0.000 C 
ATOM      9  C   UNL     1      -4.783  13.004  19.818  0.00  0.00    +0.000 C 
ATOM     10  C   UNL     1      -3.676  11.911  19.786  0.00  0.00    +0.000 C 
ATOM     11  C   UNL     1      -2.419  12.329  20.597  0.00  0.00    +0.000 C 
ATOM     12  C   UNL     1      -2.733  12.887  21.999  0.00  0.00    +0.000 C 
ATOM     13  C   UNL     1      -3.791  14.000  21.950  0.00  0.00    +0.000 C 
ATOM     14  C   UNL     1      -3.210  15.232  21.210  0.00  0.00    +0.000 C 
ATOM     15  C   UNL     1      -4.395  14.402  23.327  0.00  0.00    +0.000 C 
ATOM     16  C   UNL     1      -5.827  14.905  22.980  0.00  0.00    +0.000 C 
ATOM     17  C   UNL     1      -6.144  14.403  21.564  0.00  0.00    +0.000 C 
ATOM     18  C   UNL     1      -5.045  13.393  21.273  0.00  0.00    +0.000 C 
ENDROOT
BRANCH  15  19
ATOM     19  C   UNL     1      -3.571  15.320  24.212  0.00  0.00    +0.000 A 
ATOM     20  C   UNL     1      -2.392  14.903  24.851  0.00  0.00    +0.000 A 
ATOM     21  C   UNL     1      -1.636  15.787  25.624  0.00  0.00    +0.000 A 
ATOM     22  C   UNL     1      -2.052  17.103  25.786  0.00  0.00    +0.000 A 
ATOM     23  C   UNL     1      -3.232  17.531  25.186  0.00  0.00    +0.000 A 
ATOM     24  C   UNL     1      -3.988  16.647  24.410  0.00  0.00    +0.000 A 
ENDBRANCH  15  19
BRANCH   1  26
ATOM     25  C   UNL     1      -4.041   9.991  13.724  0.00  0.00    +0.000 C 
ATOM     26  O   UNL     1      -2.829   9.985  14.472  0.00  0.00    +0.000 OA
ENDBRANCH   1  26
TORSDOF 2
ENDMDL
MODEL 9
REMARK VINA RESULT:      -6.6      5.822      7.931
REMARK  Name = 
REMARK  4 active torsions:
REMARK  status: ('A' for Active; 'I' for Inactive)
REMARK    1  A    between atoms: C_1  and  O_2
REMARK    2  A    between atoms: O_2  and  C_3
REMARK    3  A    between atoms: C_15  and  C_16
REMARK    4  A    between atoms: C_17  and  C_18
REMARK                            x       y       z     vdW  Elec       q    Type
REMARK                         _______ _______ _______ _____ _____    ______ ____
ROOT
ATOM      1  C   UNL     1      -2.987  10.590  15.868  0.00  0.00    +0.000 A 
ATOM      2  C   UNL     1      -2.094  10.747  16.921  0.00  0.00    +0.000 A 
ATOM      3  C   UNL     1      -2.532  11.262  18.142  0.00  0.00    +0.000 A 
ATOM      4  C   UNL     1      -3.866  11.656  18.333  0.00  0.00    +0.000 A 
ATOM      5  C   UNL     1      -4.766  11.516  17.255  0.00  0.00    +0.000 A 
ATOM      6  C   UNL     1      -4.309  11.004  16.027  0.00  0.00    +0.000 A 
ATOM      7  C   UNL     1      -6.209  11.959  17.348  0.00  0.00    +0.000 C 
ATOM      8  C   UNL     1      -6.693  12.180  18.780  0.00  0.00    +0.000 C 
ATOM      9  C   UNL     1      -5.647  12.989  19.553  0.00  0.00    +0.000 C 
ATOM     10  C   UNL     1      -4.356  12.133  19.698  0.00  0.00    +0.000 C 
ATOM     11  C   UNL     1      -3.283  12.839  20.571  0.00  0.00    +0.000 C 
ATOM     12  C   UNL     1      -3.826  13.413  21.893  0.00  0.00    +0.000 C 
ATOM     13  C   UNL     1      -5.066  14.293  21.669  0.00  0.00    +0.000 C 
ATOM     14  C   UNL     1      -4.661  15.565  20.882  0.00  0.00    +0.000 C 
ATOM     15  C   UNL     1      -5.862  14.657  22.957  0.00  0.00    +0.000 C 
ATOM     16  C   UNL     1      -7.324  14.848  22.456  0.00  0.00    +0.000 C 
ATOM     17  C   UNL     1      -7.405  14.204  21.065  0.00  0.00    +0.000 C 
ATOM     18  C   UNL     1      -6.114  13.411  20.946  0.00  0.00    +0.000 C 
ENDROOT
BRANCH  15  19
ATOM     19  C   UNL     1      -5.314  15.773  23.828  0.00  0.00    +0.000 A 
ATOM     20  C   UNL     1      -4.078  15.682  24.490  0.00  0.00    +0.000 A 
ATOM     21  C   UNL     1      -3.584  16.745  25.249  0.00  0.00    +0.000 A 
ATOM     22  C   UNL     1      -4.323  17.916  25.374  0.00  0.00    +0.000 A 
ATOM     23  C   UNL     1      -5.564  18.017  24.751  0.00  0.00    +0.000 A 
ATOM     24  C   UNL     1      -6.057  16.954  23.989  0.00  0.00    +0.000 A 
ENDBRANCH  15  19
BRANCH   1  26
ATOM     25  C   UNL     1      -3.735  10.050  13.705  0.00  0.00    +0.000 C 
ATOM     26  O   UNL     1      -2.663  10.073  14.643  0.00  0.00    +0.000 OA
ENDBRANCH   1  26
TORSDOF 2
ENDMDL
