MODEL 1
REMARK VINA RESULT:      -8.6      0.000      0.000
REMARK  Name = 
REMARK  1 active torsions:
REMARK  status: ('A' for Active; 'I' for Inactive)
REMARK    1  A    between atoms: C_1  and  C_2
REMARK                            x       y       z     vdW  Elec       q    Type
REMARK                         _______ _______ _______ _____ _____    ______ ____
ROOT
ATOM      1  C   UNL     1       1.008  11.250  18.374  0.00  0.00    +0.000 C 
ATOM      2  C   UNL     1       0.957  10.171  19.427  0.00  0.00    +0.000 A 
ATOM      3  C   UNL     1       1.606   8.937  19.168  0.00  0.00    +0.000 A 
ATOM      4  C   UNL     1       1.515   7.928  20.114  0.00  0.00    +0.000 A 
ATOM      5  N   UNL     1       0.877   8.092  21.286  0.00  0.00    +0.000 NA
ATOM      6  C   UNL     1       0.331   9.283  21.569  0.00  0.00    +0.000 A 
ATOM      7  C   UNL     1      -0.211   9.425  22.826  0.00  0.00    +0.000 A 
ATOM      8  N   UNL     1      -0.735  10.552  23.348  0.00  0.00    +0.000 NA
ATOM      9  C   UNL     1      -0.789  11.622  22.562  0.00  0.00    +0.000 A 
ATOM     10  C   UNL     1      -1.276  12.782  23.152  0.00  0.00    +0.000 A 
ATOM     11  C   UNL     1      -1.419  13.968  22.443  0.00  0.00    +0.000 A 
ATOM     12  C   UNL     1      -1.116  13.980  21.097  0.00  0.00    +0.000 A 
ATOM     13  C   UNL     1      -0.610  12.825  20.494  0.00  0.00    +0.000 A 
ATOM     14  C   UNL     1      -0.364  11.616  21.209  0.00  0.00    +0.000 A 
ATOM     15  C   UNL     1       0.290  10.397  20.699  0.00  0.00    +0.000 A 
ATOM     16  C   UNL     1       2.155   6.638  19.867  0.00  0.00    +0.000 A 
ATOM     17  C   UNL     1       1.930   5.501  20.662  0.00  0.00    +0.000 A 
ATOM     18  C   UNL     1       2.593   4.302  20.388  0.00  0.00    +0.000 A 
ATOM     19 BR   UNL     1       2.258   2.779  21.456  0.00  0.00    +0.000 Br
ATOM     20  C   UNL     1       3.502   4.217  19.335  0.00  0.00    +0.000 A 
ATOM     21  C   UNL     1       3.745   5.341  18.548  0.00  0.00    +0.000 A 
ATOM     22  C   UNL     1       3.060   6.529  18.804  0.00  0.00    +0.000 A 
ATOM     23  O   UNL     1       3.365   7.592  17.998  0.00  0.00    +0.000 OA
ATOM     24  C   UNL     1       2.332   8.585  17.890  0.00  0.00    +0.000 C 
ENDROOT
TORSDOF 0
ENDMDL
MODEL 2
REMARK VINA RESULT:      -7.6      2.575      7.364
REMARK  Name = 
REMARK  1 active torsions:
REMARK  status: ('A' for Active; 'I' for Inactive)
REMARK    1  A    between atoms: C_1  and  C_2
REMARK                            x       y       z     vdW  Elec       q    Type
REMARK                         _______ _______ _______ _____ _____    ______ ____
ROOT
ATOM      1  C   UNL     1       3.924   6.896  17.045  0.00  0.00    +0.000 C 
ATOM      2  C   UNL     1       2.969   6.949  18.211  0.00  0.00    +0.000 A 
ATOM      3  C   UNL     1       2.359   8.189  18.535  0.00  0.00    +0.000 A 
ATOM      4  C   UNL     1       1.522   8.248  19.639  0.00  0.00    +0.000 A 
ATOM      5  N   UNL     1       1.230   7.166  20.382  0.00  0.00    +0.000 NA
ATOM      6  C   UNL     1       1.740   5.978  20.032  0.00  0.00    +0.000 A 
ATOM      7  C   UNL     1       1.318   4.891  20.763  0.00  0.00    +0.000 A 
ATOM      8  N   UNL     1       1.636   3.601  20.535  0.00  0.00    +0.000 NA
ATOM      9  C   UNL     1       2.484   3.347  19.543  0.00  0.00    +0.000 A 
ATOM     10  C   UNL     1       2.740   2.004  19.296  0.00  0.00    +0.000 A 
ATOM     11  C   UNL     1       3.630   1.590  18.312  0.00  0.00    +0.000 A 
ATOM     12  C   UNL     1       4.318   2.545  17.593  0.00  0.00    +0.000 A 
ATOM     13  C   UNL     1       4.059   3.900  17.821  0.00  0.00    +0.000 A 
ATOM     14  C   UNL     1       3.088   4.361  18.758  0.00  0.00    +0.000 A 
ATOM     15  C   UNL     1       2.646   5.752  18.971  0.00  0.00    +0.000 A 
ATOM     16  C   UNL     1       0.895   9.514  20.010  0.00  0.00    +0.000 A 
ATOM     17  C   UNL     1       0.219   9.712  21.226  0.00  0.00    +0.000 A 
ATOM     18  C   UNL     1      -0.381  10.941  21.511  0.00  0.00    +0.000 A 
ATOM     19 BR   UNL     1      -1.268  11.191  23.162  0.00  0.00    +0.000 Br
ATOM     20  C   UNL     1      -0.336  11.985  20.589  0.00  0.00    +0.000 A 
ATOM     21  C   UNL     1       0.321  11.798  19.375  0.00  0.00    +0.000 A 
ATOM     22  C   UNL     1       0.945  10.580  19.103  0.00  0.00    +0.000 A 
ATOM     23  O   UNL     1       1.554  10.468  17.884  0.00  0.00    +0.000 OA
ATOM     24  C   UNL     1       2.611   9.496  17.822  0.00  0.00    +0.000 C 
ENDROOT
TORSDOF 0
ENDMDL
MODEL 3
REMARK VINA RESULT:      -7.5      3.117      5.005
REMARK  Name = 
REMARK  1 active torsions:
REMARK  status: ('A' for Active; 'I' for Inactive)
REMARK    1  A    between atoms: C_1  and  C_2
REMARK                            x       y       z     vdW  Elec       q    Type
REMARK                         _______ _______ _______ _____ _____    ______ ____
ROOT
ATOM      1  C   UNL     1       1.805   5.588  20.921  0.00  0.00    +0.000 C 
ATOM      2  C   UNL     1       2.406   6.205  19.683  0.00  0.00    +0.000 A 
ATOM      3  C   UNL     1       3.205   5.393  18.837  0.00  0.00    +0.000 A 
ATOM      4  C   UNL     1       3.799   5.974  17.728  0.00  0.00    +0.000 A 
ATOM      5  N   UNL     1       3.608   7.263  17.398  0.00  0.00    +0.000 NA
ATOM      6  C   UNL     1       2.789   8.014  18.149  0.00  0.00    +0.000 A 
ATOM      7  C   UNL     1       2.545   9.291  17.699  0.00  0.00    +0.000 A 
ATOM      8  N   UNL     1       1.697  10.184  18.249  0.00  0.00    +0.000 NA
ATOM      9  C   UNL     1       1.071   9.825  19.365  0.00  0.00    +0.000 A 
ATOM     10  C   UNL     1       0.159  10.744  19.868  0.00  0.00    +0.000 A 
ATOM     11  C   UNL     1      -0.545  10.518  21.045  0.00  0.00    +0.000 A 
ATOM     12  C   UNL     1      -0.290   9.367  21.763  0.00  0.00    +0.000 A 
ATOM     13  C   UNL     1       0.615   8.427  21.261  0.00  0.00    +0.000 A 
ATOM     14  C   UNL     1       1.287   8.582  20.013  0.00  0.00    +0.000 A 
ATOM     15  C   UNL     1       2.147   7.593  19.336  0.00  0.00    +0.000 A 
ATOM     16  C   UNL     1       4.645   5.169  16.849  0.00  0.00    +0.000 A 
ATOM     17  C   UNL     1       5.454   5.721  15.841  0.00  0.00    +0.000 A 
ATOM     18  C   UNL     1       6.221   4.894  15.017  0.00  0.00    +0.000 A 
ATOM     19 BR   UNL     1       7.319   5.658  13.681  0.00  0.00    +0.000 Br
ATOM     20  C   UNL     1       6.184   3.509  15.167  0.00  0.00    +0.000 A 
ATOM     21  C   UNL     1       5.376   2.948  16.154  0.00  0.00    +0.000 A 
ATOM     22  C   UNL     1       4.633   3.776  16.995  0.00  0.00    +0.000 A 
ATOM     23  O   UNL     1       3.852   3.152  17.928  0.00  0.00    +0.000 OA
ATOM     24  C   UNL     1       3.543   3.943  19.088  0.00  0.00    +0.000 C 
ENDROOT
TORSDOF 0
ENDMDL
MODEL 4
REMARK VINA RESULT:      -7.5      6.556      8.339
REMARK  Name = 
REMARK  1 active torsions:
REMARK  status: ('A' for Active; 'I' for Inactive)
REMARK    1  A    between atoms: C_1  and  C_2
REMARK                            x       y       z     vdW  Elec       q    Type
REMARK                         _______ _______ _______ _____ _____    ______ ____
ROOT
ATOM      1  C   UNL     1       4.970   6.226  19.115  0.00  0.00    +0.000 C 
ATOM      2  C   UNL     1       4.701   5.161  18.081  0.00  0.00    +0.000 A 
ATOM      3  C   UNL     1       5.441   5.186  16.871  0.00  0.00    +0.000 A 
ATOM      4  C   UNL     1       5.158   4.238  15.901  0.00  0.00    +0.000 A 
ATOM      5  N   UNL     1       4.244   3.269  16.083  0.00  0.00    +0.000 NA
ATOM      6  C   UNL     1       3.599   3.194  17.255  0.00  0.00    +0.000 A 
ATOM      7  C   UNL     1       2.758   2.118  17.423  0.00  0.00    +0.000 A 
ATOM      8  N   UNL     1       2.078   1.801  18.544  0.00  0.00    +0.000 NA
ATOM      9  C   UNL     1       2.179   2.633  19.575  0.00  0.00    +0.000 A 
ATOM     10  C   UNL     1       1.516   2.244  20.733  0.00  0.00    +0.000 A 
ATOM     11  C   UNL     1       1.508   3.030  21.879  0.00  0.00    +0.000 A 
ATOM     12  C   UNL     1       2.134   4.259  21.849  0.00  0.00    +0.000 A 
ATOM     13  C   UNL     1       2.817   4.656  20.695  0.00  0.00    +0.000 A 
ATOM     14  C   UNL     1       2.925   3.838  19.532  0.00  0.00    +0.000 A 
ATOM     15  C   UNL     1       3.732   4.106  18.327  0.00  0.00    +0.000 A 
ATOM     16  C   UNL     1       5.889   4.250  14.636  0.00  0.00    +0.000 A 
ATOM     17  C   UNL     1       5.517   3.475  13.524  0.00  0.00    +0.000 A 
ATOM     18  C   UNL     1       6.273   3.512  12.350  0.00  0.00    +0.000 A 
ATOM     19 BR   UNL     1       5.744   2.477  10.859  0.00  0.00    +0.000 Br
ATOM     20  C   UNL     1       7.418   4.303  12.266  0.00  0.00    +0.000 A 
ATOM     21  C   UNL     1       7.804   5.067  13.365  0.00  0.00    +0.000 A 
ATOM     22  C   UNL     1       7.032   5.051  14.527  0.00  0.00    +0.000 A 
ATOM     23  O   UNL     1       7.485   5.814  15.568  0.00  0.00    +0.000 OA
ATOM     24  C   UNL     1       6.474   6.226  16.503  0.00  0.00    +0.000 C 
ENDROOT
TORSDOF 0
ENDMDL
MODEL 5
REMARK VINA RESULT:      -7.5      2.432      3.602
REMARK  Name = 
REMARK  1 active torsions:
REMARK  status: ('A' for Active; 'I' for Inactive)
REMARK    1  A    between atoms: C_1  and  C_2
REMARK                            x       y       z     vdW  Elec       q    Type
REMARK                         _______ _______ _______ _____ _____    ______ ____
ROOT
ATOM      1  C   UNL     1       0.443   7.859  21.902  0.00  0.00    +0.000 C 
ATOM      2  C   UNL     1       1.181   8.039  20.599  0.00  0.00    +0.000 A 
ATOM      3  C   UNL     1       1.812   6.912  20.013  0.00  0.00    +0.000 A 
ATOM      4  C   UNL     1       2.532   7.090  18.842  0.00  0.00    +0.000 A 
ATOM      5  N   UNL     1       2.616   8.277  18.218  0.00  0.00    +0.000 NA
ATOM      6  C   UNL     1       1.955   9.328  18.725  0.00  0.00    +0.000 A 
ATOM      7  C   UNL     1       1.986  10.487  17.985  0.00  0.00    +0.000 A 
ATOM      8  N   UNL     1       1.330  11.631  18.262  0.00  0.00    +0.000 NA
ATOM      9  C   UNL     1       0.624  11.674  19.387  0.00  0.00    +0.000 A 
ATOM     10  C   UNL     1      -0.090  12.844  19.609  0.00  0.00    +0.000 A 
ATOM     11  C   UNL     1      -0.847  13.042  20.758  0.00  0.00    +0.000 A 
ATOM     12  C   UNL     1      -0.846  12.065  21.732  0.00  0.00    +0.000 A 
ATOM     13  C   UNL     1      -0.145  10.875  21.515  0.00  0.00    +0.000 A 
ATOM     14  C   UNL     1       0.568  10.599  20.311  0.00  0.00    +0.000 A 
ATOM     15  C   UNL     1       1.219   9.331  19.932  0.00  0.00    +0.000 A 
ATOM     16  C   UNL     1       3.211   5.952  18.224  0.00  0.00    +0.000 A 
ATOM     17  C   UNL     1       4.134   6.083  17.174  0.00  0.00    +0.000 A 
ATOM     18  C   UNL     1       4.730   4.953  16.609  0.00  0.00    +0.000 A 
ATOM     19 BR   UNL     1       5.986   5.153  15.210  0.00  0.00    +0.000 Br
ATOM     20  C   UNL     1       4.406   3.676  17.065  0.00  0.00    +0.000 A 
ATOM     21  C   UNL     1       3.483   3.531  18.098  0.00  0.00    +0.000 A 
ATOM     22  C   UNL     1       2.910   4.662  18.680  0.00  0.00    +0.000 A 
ATOM     23  O   UNL     1       2.001   4.438  19.677  0.00  0.00    +0.000 OA
ATOM     24  C   UNL     1       1.840   5.523  20.606  0.00  0.00    +0.000 C 
ENDROOT
TORSDOF 0
ENDMDL
MODEL 6
REMARK VINA RESULT:      -7.5      0.984      1.162
REMARK  Name = 
REMARK  1 active torsions:
REMARK  status: ('A' for Active; 'I' for Inactive)
REMARK    1  A    between atoms: C_1  and  C_2
REMARK                            x       y       z     vdW  Elec       q    Type
REMARK                         _______ _______ _______ _____ _____    ______ ____
ROOT
ATOM      1  C   UNL     1       2.074  10.684  17.511  0.00  0.00    +0.000 C 
ATOM      2  C   UNL     1       1.776   9.764  18.669  0.00  0.00    +0.000 A 
ATOM      3  C   UNL     1       2.235   8.423  18.607  0.00  0.00    +0.000 A 
ATOM      4  C   UNL     1       1.917   7.564  19.647  0.00  0.00    +0.000 A 
ATOM      5  N   UNL     1       1.232   7.967  20.732  0.00  0.00    +0.000 NA
ATOM      6  C   UNL     1       0.865   9.252  20.831  0.00  0.00    +0.000 A 
ATOM      7  C   UNL     1       0.267   9.628  22.012  0.00  0.00    +0.000 A 
ATOM      8  N   UNL     1      -0.105  10.878  22.357  0.00  0.00    +0.000 NA
ATOM      9  C   UNL     1       0.069  11.839  21.456  0.00  0.00    +0.000 A 
ATOM     10  C   UNL     1      -0.266  13.122  21.868  0.00  0.00    +0.000 A 
ATOM     11  C   UNL     1      -0.166  14.220  21.022  0.00  0.00    +0.000 A 
ATOM     12  C   UNL     1       0.230  14.020  19.715  0.00  0.00    +0.000 A 
ATOM     13  C   UNL     1       0.584  12.735  19.291  0.00  0.00    +0.000 A 
ATOM     14  C   UNL     1       0.582  11.600  20.155  0.00  0.00    +0.000 A 
ATOM     15  C   UNL     1       1.066  10.243  19.843  0.00  0.00    +0.000 A 
ATOM     16  C   UNL     1       2.357   6.172  19.603  0.00  0.00    +0.000 A 
ATOM     17  C   UNL     1       1.896   5.189  20.496  0.00  0.00    +0.000 A 
ATOM     18  C   UNL     1       2.376   3.879  20.417  0.00  0.00    +0.000 A 
ATOM     19 BR   UNL     1       1.726   2.568  21.613  0.00  0.00    +0.000 Br
ATOM     20  C   UNL     1       3.332   3.529  19.465  0.00  0.00    +0.000 A 
ATOM     21  C   UNL     1       3.807   4.496  18.582  0.00  0.00    +0.000 A 
ATOM     22  C   UNL     1       3.306   5.797  18.643  0.00  0.00    +0.000 A 
ATOM     23  O   UNL     1       3.833   6.694  17.755  0.00  0.00    +0.000 OA
ATOM     24  C   UNL     1       2.983   7.811  17.446  0.00  0.00    +0.000 C 
ENDROOT
TORSDOF 0
ENDMDL
MODEL 7
REMARK VINA RESULT:      -7.1      2.238      3.214
REMARK  Name = 
REMARK  1 active torsions:
REMARK  status: ('A' for Active; 'I' for Inactive)
REMARK    1  A    between atoms: C_1  and  C_2
REMARK                            x       y       z     vdW  Elec       q    Type
REMARK                         _______ _______ _______ _____ _____    ______ ____
ROOT
ATOM      1  C   UNL     1      -0.172   8.888  22.579  0.00  0.00    +0.000 C 
ATOM      2  C   UNL     1       0.481   9.081  21.233  0.00  0.00    +0.000 A 
ATOM      3  C   UNL     1       1.193   7.996  20.660  0.00  0.00    +0.000 A 
ATOM      4  C   UNL     1       1.836   8.190  19.447  0.00  0.00    +0.000 A 
ATOM      5  N   UNL     1       1.769   9.351  18.773  0.00  0.00    +0.000 NA
ATOM      6  C   UNL     1       1.032  10.353  19.271  0.00  0.00    +0.000 A 
ATOM      7  C   UNL     1       0.911  11.475  18.483  0.00  0.00    +0.000 A 
ATOM      8  N   UNL     1       0.157  12.561  18.748  0.00  0.00    +0.000 NA
ATOM      9  C   UNL     1      -0.496  12.584  19.905  0.00  0.00    +0.000 A 
ATOM     10  C   UNL     1      -1.312  13.688  20.117  0.00  0.00    +0.000 A 
ATOM     11  C   UNL     1      -2.029  13.862  21.294  0.00  0.00    +0.000 A 
ATOM     12  C   UNL     1      -1.884  12.935  22.306  0.00  0.00    +0.000 A 
ATOM     13  C   UNL     1      -1.078  11.812  22.101  0.00  0.00    +0.000 A 
ATOM     14  C   UNL     1      -0.399  11.552  20.873  0.00  0.00    +0.000 A 
ATOM     15  C   UNL     1       0.357  10.339  20.513  0.00  0.00    +0.000 A 
ATOM     16  C   UNL     1       2.595   7.098  18.842  0.00  0.00    +0.000 A 
ATOM     17  C   UNL     1       3.449   7.271  17.740  0.00  0.00    +0.000 A 
ATOM     18  C   UNL     1       4.128   6.181  17.192  0.00  0.00    +0.000 A 
ATOM     19 BR   UNL     1       5.289   6.440  15.723  0.00  0.00    +0.000 Br
ATOM     20  C   UNL     1       3.956   4.900  17.715  0.00  0.00    +0.000 A 
ATOM     21  C   UNL     1       3.102   4.712  18.799  0.00  0.00    +0.000 A 
ATOM     22  C   UNL     1       2.448   5.807  19.364  0.00  0.00    +0.000 A 
ATOM     23  O   UNL     1       1.613   5.540  20.415  0.00  0.00    +0.000 OA
ATOM     24  C   UNL     1       1.389   6.645  21.307  0.00  0.00    +0.000 C 
ENDROOT
TORSDOF 0
ENDMDL
MODEL 8
REMARK VINA RESULT:      -7.1      3.899      7.970
REMARK  Name = 
REMARK  1 active torsions:
REMARK  status: ('A' for Active; 'I' for Inactive)
REMARK    1  A    between atoms: C_1  and  C_2
REMARK                            x       y       z     vdW  Elec       q    Type
REMARK                         _______ _______ _______ _____ _____    ______ ____
ROOT
ATOM      1  C   UNL     1      -0.203   9.214  22.591  0.00  0.00    +0.000 C 
ATOM      2  C   UNL     1       0.131  10.144  21.451  0.00  0.00    +0.000 A 
ATOM      3  C   UNL     1      -0.220  11.514  21.565  0.00  0.00    +0.000 A 
ATOM      4  C   UNL     1       0.041  12.356  20.495  0.00  0.00    +0.000 A 
ATOM      5  N   UNL     1       0.655  11.934  19.376  0.00  0.00    +0.000 NA
ATOM      6  C   UNL     1       1.059  10.659  19.296  0.00  0.00    +0.000 A 
ATOM      7  C   UNL     1       1.779  10.314  18.176  0.00  0.00    +0.000 A 
ATOM      8  N   UNL     1       2.350   9.118  17.928  0.00  0.00    +0.000 NA
ATOM      9  C   UNL     1       2.159   8.153  18.822  0.00  0.00    +0.000 A 
ATOM     10  C   UNL     1       2.812   6.954  18.566  0.00  0.00    +0.000 A 
ATOM     11  C   UNL     1       2.679   5.848  19.397  0.00  0.00    +0.000 A 
ATOM     12  C   UNL     1       1.830   5.928  20.481  0.00  0.00    +0.000 A 
ATOM     13  C   UNL     1       1.177   7.133  20.759  0.00  0.00    +0.000 A 
ATOM     14  C   UNL     1       1.360   8.315  19.982  0.00  0.00    +0.000 A 
ATOM     15  C   UNL     1       0.829   9.661  20.271  0.00  0.00    +0.000 A 
ATOM     16  C   UNL     1      -0.326  13.768  20.574  0.00  0.00    +0.000 A 
ATOM     17  C   UNL     1      -0.302  14.634  19.468  0.00  0.00    +0.000 A 
ATOM     18  C   UNL     1      -0.641  15.981  19.615  0.00  0.00    +0.000 A 
ATOM     19 BR   UNL     1      -0.621  17.123  18.109  0.00  0.00    +0.000 Br
ATOM     20  C   UNL     1      -0.992  16.494  20.862  0.00  0.00    +0.000 A 
ATOM     21  C   UNL     1      -1.008  15.649  21.970  0.00  0.00    +0.000 A 
ATOM     22  C   UNL     1      -0.697  14.298  21.817  0.00  0.00    +0.000 A 
ATOM     23  O   UNL     1      -0.719  13.537  22.953  0.00  0.00    +0.000 OA
ATOM     24  C   UNL     1      -0.942  12.133  22.738  0.00  0.00    +0.000 C 
ENDROOT
TORSDOF 0
ENDMDL
MODEL 9
REMARK VINA RESULT:      -6.9      3.182      7.799
REMARK  Name = 
REMARK  1 active torsions:
REMARK  status: ('A' for Active; 'I' for Inactive)
REMARK    1  A    between atoms: C_1  and  C_2
REMARK                            x       y       z     vdW  Elec       q    Type
REMARK                         _______ _______ _______ _____ _____    ______ ____
ROOT
ATOM      1  C   UNL     1       1.577   5.380  20.958  0.00  0.00    +0.000 C 
ATOM      2  C   UNL     1       1.770   6.638  20.149  0.00  0.00    +0.000 A 
ATOM      3  C   UNL     1       1.177   7.842  20.611  0.00  0.00    +0.000 A 
ATOM      4  C   UNL     1       1.312   8.986  19.839  0.00  0.00    +0.000 A 
ATOM      5  N   UNL     1       2.021   9.008  18.697  0.00  0.00    +0.000 NA
ATOM      6  C   UNL     1       2.649   7.893  18.299  0.00  0.00    +0.000 A 
ATOM      7  C   UNL     1       3.448   8.006  17.185  0.00  0.00    +0.000 A 
ATOM      8  N   UNL     1       4.230   7.040  16.660  0.00  0.00    +0.000 NA
ATOM      9  C   UNL     1       4.191   5.843  17.234  0.00  0.00    +0.000 A 
ATOM     10  C   UNL     1       5.054   4.891  16.708  0.00  0.00    +0.000 A 
ATOM     11  C   UNL     1       5.099   3.587  17.187  0.00  0.00    +0.000 A 
ATOM     12  C   UNL     1       4.220   3.214  18.183  0.00  0.00    +0.000 A 
ATOM     13  C   UNL     1       3.355   4.165  18.732  0.00  0.00    +0.000 A 
ATOM     14  C   UNL     1       3.344   5.533  18.330  0.00  0.00    +0.000 A 
ATOM     15  C   UNL     1       2.575   6.634  18.938  0.00  0.00    +0.000 A 
ATOM     16  C   UNL     1       0.696  10.236  20.278  0.00  0.00    +0.000 A 
ATOM     17  C   UNL     1       0.595  11.374  19.459  0.00  0.00    +0.000 A 
ATOM     18  C   UNL     1       0.017  12.549  19.947  0.00  0.00    +0.000 A 
ATOM     19 BR   UNL     1      -0.128  14.061  18.822  0.00  0.00    +0.000 Br
ATOM     20  C   UNL     1      -0.453  12.619  21.257  0.00  0.00    +0.000 A 
ATOM     21  C   UNL     1      -0.348  11.502  22.083  0.00  0.00    +0.000 A 
ATOM     22  C   UNL     1       0.203  10.321  21.586  0.00  0.00    +0.000 A 
ATOM     23  O   UNL     1       0.288   9.273  22.462  0.00  0.00    +0.000 OA
ATOM     24  C   UNL     1       0.325   7.973  21.850  0.00  0.00    +0.000 C 
ENDROOT
TORSDOF 0
ENDMDL
