MODEL 1
REMARK VINA RESULT:      -6.6      0.000      0.000
REMARK  Name = 
REMARK  9 active torsions:
REMARK  status: ('A' for Active; 'I' for Inactive)
REMARK    1  A    between atoms: C_1  and  O_2
REMARK    2  A    between atoms: O_2  and  C_3
REMARK    3  A    between atoms: C_14  and  O_15
REMARK    4  A    between atoms: O_15  and  C_16
REMARK    5  A    between atoms: C_17  and  O_18
REMARK    6  A    between atoms: C_19  and  C_20
REMARK    7  A    between atoms: C_20  and  C_21
REMARK    8  A    between atoms: C_22  and  C_23
REMARK    9  A    between atoms: C_22  and  C_24
REMARK                            x       y       z     vdW  Elec       q    Type
REMARK                         _______ _______ _______ _____ _____    ______ ____
ROOT
ATOM      1  C   UNL     1       2.773   7.350  18.480  0.00  0.00    +0.000 A 
ATOM      2  C   UNL     1       2.386   8.397  17.643  0.00  0.00    +0.000 A 
ATOM      3  C   UNL     1       1.515   9.382  18.108  0.00  0.00    +0.000 A 
ATOM      4  C   UNL     1       1.031   9.344  19.423  0.00  0.00    +0.000 A 
ATOM      5  C   UNL     1       1.439   8.311  20.264  0.00  0.00    +0.000 A 
ATOM      6  C   UNL     1       2.287   7.307  19.790  0.00  0.00    +0.000 A 
ATOM      7  O   UNL     1       1.017   8.214  21.566  0.00  0.00    +0.000 OA
ATOM      8  C   UNL     1       0.731   9.496  22.146  0.00  0.00    +0.000 C 
ATOM      9  C   UNL     1      -0.348  10.241  21.367  0.00  0.00    +0.000 C 
ATOM     10  C   UNL     1      -0.462  11.681  21.727  0.00  0.00    +0.000 A 
ATOM     11  C   UNL     1      -1.050  12.290  22.819  0.00  0.00    +0.000 A 
ATOM     12  C   UNL     1      -0.973  13.691  22.971  0.00  0.00    +0.000 A 
ATOM     13  C   UNL     1      -0.256  14.443  22.012  0.00  0.00    +0.000 A 
ATOM     14  C   UNL     1       0.362  13.815  20.907  0.00  0.00    +0.000 A 
ATOM     15  C   UNL     1       0.202  12.443  20.781  0.00  0.00    +0.000 A 
ATOM     16  O   UNL     1       0.717  11.695  19.752  0.00  0.00    +0.000 OA
ATOM     17  C   UNL     1       0.080  10.400  19.903  0.00  0.00    +0.000 C 
ENDROOT
BRANCH   1  19
ATOM     18  C   UNL     1       4.053   5.476  19.186  0.00  0.00    +0.000 C 
ATOM     19  O   UNL     1       3.617   6.329  18.133  0.00  0.00    +0.000 OA
ENDBRANCH   1  19
BRANCH  12  20
ATOM     20  O   UNL     1      -1.627  14.087  24.104  0.00  0.00    +0.000 OA
ATOM     21  C   UNL     1      -3.003  14.407  24.103  0.00  0.00    +0.000 C 
ENDBRANCH  12  20
BRANCH  13  22
ATOM     22  O   UNL     1      -0.066  15.798  22.048  0.00  0.00    +0.000 OA
ATOM     23  H   UNL     1      -0.358  16.175  22.882  0.00  0.00    +0.000 HD
ENDBRANCH  13  22
BRANCH  14  24
ATOM     24  C   UNL     1       1.206  14.580  19.914  0.00  0.00    +0.000 C 
BRANCH  24  25
ATOM     25  C   UNL     1       0.414  15.370  18.905  0.00  0.00    +0.000 C 
ATOM     26  C   UNL     1       0.440  16.702  18.694  0.00  0.00    +0.000 C 
ATOM     27  C   UNL     1       1.344  17.676  19.403  0.00  0.00    +0.000 C 
ATOM     28  C   UNL     1      -0.498  17.346  17.706  0.00  0.00    +0.000 C 
ENDBRANCH  24  25
ENDBRANCH  14  24
TORSDOF 5
ENDMDL
MODEL 2
REMARK VINA RESULT:      -6.4      1.064      1.700
REMARK  Name = 
REMARK  9 active torsions:
REMARK  status: ('A' for Active; 'I' for Inactive)
REMARK    1  A    between atoms: C_1  and  O_2
REMARK    2  A    between atoms: O_2  and  C_3
REMARK    3  A    between atoms: C_14  and  O_15
REMARK    4  A    between atoms: O_15  and  C_16
REMARK    5  A    between atoms: C_17  and  O_18
REMARK    6  A    between atoms: C_19  and  C_20
REMARK    7  A    between atoms: C_20  and  C_21
REMARK    8  A    between atoms: C_22  and  C_23
REMARK    9  A    between atoms: C_22  and  C_24
REMARK                            x       y       z     vdW  Elec       q    Type
REMARK                         _______ _______ _______ _____ _____    ______ ____
ROOT
ATOM      1  C   UNL     1       2.576   7.539  18.527  0.00  0.00    +0.000 A 
ATOM      2  C   UNL     1       2.029   8.511  17.689  0.00  0.00    +0.000 A 
ATOM      3  C   UNL     1       1.125   9.444  18.195  0.00  0.00    +0.000 A 
ATOM      4  C   UNL     1       0.768   9.431  19.551  0.00  0.00    +0.000 A 
ATOM      5  C   UNL     1       1.335   8.475  20.390  0.00  0.00    +0.000 A 
ATOM      6  C   UNL     1       2.218   7.520  19.878  0.00  0.00    +0.000 A 
ATOM      7  O   UNL     1       1.043   8.407  21.729  0.00  0.00    +0.000 OA
ATOM      8  C   UNL     1       0.706   9.689  22.281  0.00  0.00    +0.000 C 
ATOM      9  C   UNL     1      -0.498  10.308  21.579  0.00  0.00    +0.000 C 
ATOM     10  C   UNL     1      -0.698  11.750  21.890  0.00  0.00    +0.000 A 
ATOM     11  C   UNL     1      -1.233  12.361  23.007  0.00  0.00    +0.000 A 
ATOM     12  C   UNL     1      -1.260  13.770  23.095  0.00  0.00    +0.000 A 
ATOM     13  C   UNL     1      -0.699  14.530  22.043  0.00  0.00    +0.000 A 
ATOM     14  C   UNL     1      -0.133  13.900  20.911  0.00  0.00    +0.000 A 
ATOM     15  C   UNL     1      -0.190  12.516  20.855  0.00  0.00    +0.000 A 
ATOM     16  O   UNL     1       0.290  11.763  19.813  0.00  0.00    +0.000 OA
ATOM     17  C   UNL     1      -0.221  10.430  20.075  0.00  0.00    +0.000 C 
ENDROOT
BRANCH   1  19
ATOM     18  C   UNL     1       3.920   5.683  19.157  0.00  0.00    +0.000 C 
ATOM     19  O   UNL     1       3.467   6.572  18.142  0.00  0.00    +0.000 OA
ENDBRANCH   1  19
BRANCH  12  20
ATOM     20  O   UNL     1      -1.838  14.166  24.268  0.00  0.00    +0.000 OA
ATOM     21  C   UNL     1      -3.113  14.775  24.309  0.00  0.00    +0.000 C 
ENDBRANCH  12  20
BRANCH  13  22
ATOM     22  O   UNL     1      -0.619  15.896  22.007  0.00  0.00    +0.000 OA
ATOM     23  H   UNL     1       0.035  16.196  21.372  0.00  0.00    +0.000 HD
ENDBRANCH  13  22
BRANCH  14  24
ATOM     24  C   UNL     1       0.549  14.682  19.812  0.00  0.00    +0.000 C 
BRANCH  24  25
ATOM     25  C   UNL     1       2.002  14.982  20.073  0.00  0.00    +0.000 C 
ATOM     26  C   UNL     1       3.080  14.437  19.470  0.00  0.00    +0.000 C 
ATOM     27  C   UNL     1       3.032  13.445  18.339  0.00  0.00    +0.000 C 
ATOM     28  C   UNL     1       4.474  14.779  19.927  0.00  0.00    +0.000 C 
ENDBRANCH  24  25
ENDBRANCH  14  24
TORSDOF 5
ENDMDL
MODEL 3
REMARK VINA RESULT:      -6.3      2.046      2.669
REMARK  Name = 
REMARK  9 active torsions:
REMARK  status: ('A' for Active; 'I' for Inactive)
REMARK    1  A    between atoms: C_1  and  O_2
REMARK    2  A    between atoms: O_2  and  C_3
REMARK    3  A    between atoms: C_14  and  O_15
REMARK    4  A    between atoms: O_15  and  C_16
REMARK    5  A    between atoms: C_17  and  O_18
REMARK    6  A    between atoms: C_19  and  C_20
REMARK    7  A    between atoms: C_20  and  C_21
REMARK    8  A    between atoms: C_22  and  C_23
REMARK    9  A    between atoms: C_22  and  C_24
REMARK                            x       y       z     vdW  Elec       q    Type
REMARK                         _______ _______ _______ _____ _____    ______ ____
ROOT
ATOM      1  C   UNL     1       3.956   6.064  18.707  0.00  0.00    +0.000 A 
ATOM      2  C   UNL     1       3.900   6.881  17.577  0.00  0.00    +0.000 A 
ATOM      3  C   UNL     1       2.976   7.923  17.511  0.00  0.00    +0.000 A 
ATOM      4  C   UNL     1       2.105   8.176  18.581  0.00  0.00    +0.000 A 
ATOM      5  C   UNL     1       2.181   7.374  19.718  0.00  0.00    +0.000 A 
ATOM      6  C   UNL     1       3.086   6.310  19.773  0.00  0.00    +0.000 A 
ATOM      7  O   UNL     1       1.371   7.567  20.808  0.00  0.00    +0.000 OA
ATOM      8  C   UNL     1       0.982   8.940  20.964  0.00  0.00    +0.000 C 
ATOM      9  C   UNL     1       0.235   9.459  19.739  0.00  0.00    +0.000 C 
ATOM     10  C   UNL     1       0.085  10.940  19.710  0.00  0.00    +0.000 A 
ATOM     11  C   UNL     1      -0.784  11.767  20.395  0.00  0.00    +0.000 A 
ATOM     12  C   UNL     1      -0.691  13.167  20.244  0.00  0.00    +0.000 A 
ATOM     13  C   UNL     1       0.324  13.698  19.414  0.00  0.00    +0.000 A 
ATOM     14  C   UNL     1       1.224  12.849  18.731  0.00  0.00    +0.000 A 
ATOM     15  C   UNL     1       1.046  11.481  18.874  0.00  0.00    +0.000 A 
ATOM     16  O   UNL     1       1.818  10.531  18.255  0.00  0.00    +0.000 OA
ATOM     17  C   UNL     1       1.104   9.289  18.486  0.00  0.00    +0.000 C 
ENDROOT
BRANCH   1  19
ATOM     18  C   UNL     1       6.203   5.327  18.941  0.00  0.00    +0.000 C 
ATOM     19  O   UNL     1       4.816   5.013  18.882  0.00  0.00    +0.000 OA
ENDBRANCH   1  19
BRANCH  12  20
ATOM     20  O   UNL     1      -1.645  13.795  20.994  0.00  0.00    +0.000 OA
ATOM     21  C   UNL     1      -2.977  13.329  21.059  0.00  0.00    +0.000 C 
ENDBRANCH  12  20
BRANCH  13  22
ATOM     22  O   UNL     1       0.559  15.030  19.202  0.00  0.00    +0.000 OA
ATOM     23  H   UNL     1      -0.019  15.581  19.736  0.00  0.00    +0.000 HD
ENDBRANCH  13  22
BRANCH  14  24
ATOM     24  C   UNL     1       2.371  13.388  17.907  0.00  0.00    +0.000 C 
BRANCH  24  25
ATOM     25  C   UNL     1       3.493  13.984  18.717  0.00  0.00    +0.000 C 
ATOM     26  C   UNL     1       4.029  15.216  18.605  0.00  0.00    +0.000 C 
ATOM     27  C   UNL     1       3.547  16.289  17.665  0.00  0.00    +0.000 C 
ATOM     28  C   UNL     1       5.223  15.617  19.432  0.00  0.00    +0.000 C 
ENDBRANCH  24  25
ENDBRANCH  14  24
TORSDOF 5
ENDMDL
MODEL 4
REMARK VINA RESULT:      -6.3      1.479      1.983
REMARK  Name = 
REMARK  9 active torsions:
REMARK  status: ('A' for Active; 'I' for Inactive)
REMARK    1  A    between atoms: C_1  and  O_2
REMARK    2  A    between atoms: O_2  and  C_3
REMARK    3  A    between atoms: C_14  and  O_15
REMARK    4  A    between atoms: O_15  and  C_16
REMARK    5  A    between atoms: C_17  and  O_18
REMARK    6  A    between atoms: C_19  and  C_20
REMARK    7  A    between atoms: C_20  and  C_21
REMARK    8  A    between atoms: C_22  and  C_23
REMARK    9  A    between atoms: C_22  and  C_24
REMARK                            x       y       z     vdW  Elec       q    Type
REMARK                         _______ _______ _______ _____ _____    ______ ____
ROOT
ATOM      1  C   UNL     1       3.201   6.724  18.367  0.00  0.00    +0.000 A 
ATOM      2  C   UNL     1       2.968   7.798  17.507  0.00  0.00    +0.000 A 
ATOM      3  C   UNL     1       2.110   8.829  17.889  0.00  0.00    +0.000 A 
ATOM      4  C   UNL     1       1.486   8.811  19.144  0.00  0.00    +0.000 A 
ATOM      5  C   UNL     1       1.740   7.750  20.011  0.00  0.00    +0.000 A 
ATOM      6  C   UNL     1       2.576   6.701  19.617  0.00  0.00    +0.000 A 
ATOM      7  O   UNL     1       1.175   7.669  21.258  0.00  0.00    +0.000 OA
ATOM      8  C   UNL     1       0.904   8.962  21.821  0.00  0.00    +0.000 C 
ATOM      9  C   UNL     1      -0.040   9.774  20.941  0.00  0.00    +0.000 C 
ATOM     10  C   UNL     1      -0.109  11.216  21.305  0.00  0.00    +0.000 A 
ATOM     11  C   UNL     1      -0.775  11.851  22.336  0.00  0.00    +0.000 A 
ATOM     12  C   UNL     1      -0.635  13.244  22.514  0.00  0.00    +0.000 A 
ATOM     13  C   UNL     1       0.224  13.959  21.647  0.00  0.00    +0.000 A 
ATOM     14  C   UNL     1       0.920  13.303  20.607  0.00  0.00    +0.000 A 
ATOM     15  C   UNL     1       0.695  11.944  20.446  0.00  0.00    +0.000 A 
ATOM     16  O   UNL     1       1.274  11.174  19.469  0.00  0.00    +0.000 OA
ATOM     17  C   UNL     1       0.551   9.918  19.533  0.00  0.00    +0.000 C 
ENDROOT
BRANCH   1  19
ATOM     18  C   UNL     1       5.417   5.914  18.085  0.00  0.00    +0.000 C 
ATOM     19  O   UNL     1       4.017   5.657  18.099  0.00  0.00    +0.000 OA
ENDBRANCH   1  19
BRANCH  12  20
ATOM     20  O   UNL     1      -1.382  13.669  23.575  0.00  0.00    +0.000 OA
ATOM     21  C   UNL     1      -2.749  13.339  23.711  0.00  0.00    +0.000 C 
ENDBRANCH  12  20
BRANCH  13  22
ATOM     22  O   UNL     1       0.487  15.300  21.721  0.00  0.00    +0.000 OA
ATOM     23  H   UNL     1      -0.277  15.795  22.028  0.00  0.00    +0.000 HD
ENDBRANCH  13  22
BRANCH  14  24
ATOM     24  C   UNL     1       1.909  14.024  19.719  0.00  0.00    +0.000 C 
BRANCH  24  25
ATOM     25  C   UNL     1       3.310  14.082  20.268  0.00  0.00    +0.000 C 
ATOM     26  C   UNL     1       4.062  15.178  20.502  0.00  0.00    +0.000 C 
ATOM     27  C   UNL     1       3.603  16.600  20.316  0.00  0.00    +0.000 C 
ATOM     28  C   UNL     1       5.491  15.050  20.960  0.00  0.00    +0.000 C 
ENDBRANCH  24  25
ENDBRANCH  14  24
TORSDOF 5
ENDMDL
MODEL 5
REMARK VINA RESULT:      -6.3      1.457      1.583
REMARK  Name = 
REMARK  9 active torsions:
REMARK  status: ('A' for Active; 'I' for Inactive)
REMARK    1  A    between atoms: C_1  and  O_2
REMARK    2  A    between atoms: O_2  and  C_3
REMARK    3  A    between atoms: C_14  and  O_15
REMARK    4  A    between atoms: O_15  and  C_16
REMARK    5  A    between atoms: C_17  and  O_18
REMARK    6  A    between atoms: C_19  and  C_20
REMARK    7  A    between atoms: C_20  and  C_21
REMARK    8  A    between atoms: C_22  and  C_23
REMARK    9  A    between atoms: C_22  and  C_24
REMARK                            x       y       z     vdW  Elec       q    Type
REMARK                         _______ _______ _______ _____ _____    ______ ____
ROOT
ATOM      1  C   UNL     1       3.372   6.372  18.530  0.00  0.00    +0.000 A 
ATOM      2  C   UNL     1       3.331   7.436  17.626  0.00  0.00    +0.000 A 
ATOM      3  C   UNL     1       2.539   8.551  17.893  0.00  0.00    +0.000 A 
ATOM      4  C   UNL     1       1.788   8.630  19.074  0.00  0.00    +0.000 A 
ATOM      5  C   UNL     1       1.850   7.577  19.985  0.00  0.00    +0.000 A 
ATOM      6  C   UNL     1       2.620   6.445  19.705  0.00  0.00    +0.000 A 
ATOM      7  O   UNL     1       1.153   7.587  21.167  0.00  0.00    +0.000 OA
ATOM      8  C   UNL     1       0.947   8.916  21.670  0.00  0.00    +0.000 C 
ATOM      9  C   UNL     1       0.180   9.783  20.677  0.00  0.00    +0.000 C 
ATOM     10  C   UNL     1       0.209  11.236  21.000  0.00  0.00    +0.000 A 
ATOM     11  C   UNL     1      -0.499  11.960  21.940  0.00  0.00    +0.000 A 
ATOM     12  C   UNL     1      -0.248  13.339  22.102  0.00  0.00    +0.000 A 
ATOM     13  C   UNL     1       0.759  13.947  21.316  0.00  0.00    +0.000 A 
ATOM     14  C   UNL     1       1.495  13.198  20.371  0.00  0.00    +0.000 A 
ATOM     15  C   UNL     1       1.163  11.861  20.216  0.00  0.00    +0.000 A 
ATOM     16  O   UNL     1       1.765  11.011  19.323  0.00  0.00    +0.000 OA
ATOM     17  C   UNL     1       0.925   9.828  19.337  0.00  0.00    +0.000 C 
ENDROOT
BRANCH   1  19
ATOM     18  C   UNL     1       5.347   5.167  19.072  0.00  0.00    +0.000 C 
ATOM     19  O   UNL     1       4.109   5.228  18.373  0.00  0.00    +0.000 OA
ENDBRANCH   1  19
BRANCH  12  20
ATOM     20  O   UNL     1      -1.060  13.864  23.068  0.00  0.00    +0.000 OA
ATOM     21  C   UNL     1      -2.326  13.312  23.367  0.00  0.00    +0.000 C 
ENDBRANCH  12  20
BRANCH  13  22
ATOM     22  O   UNL     1       1.137  15.260  21.389  0.00  0.00    +0.000 OA
ATOM     23  H   UNL     1       1.654  15.436  22.179  0.00  0.00    +0.000 HD
ENDBRANCH  13  22
BRANCH  14  24
ATOM     24  C   UNL     1       2.634  13.798  19.579  0.00  0.00    +0.000 C 
BRANCH  24  25
ATOM     25  C   UNL     1       2.224  14.902  18.639  0.00  0.00    +0.000 C 
ATOM     26  C   UNL     1       3.000  15.873  18.115  0.00  0.00    +0.000 C 
ATOM     27  C   UNL     1       4.486  16.001  18.322  0.00  0.00    +0.000 C 
ATOM     28  C   UNL     1       2.403  16.966  17.268  0.00  0.00    +0.000 C 
ENDBRANCH  24  25
ENDBRANCH  14  24
TORSDOF 5
ENDMDL
MODEL 6
REMARK VINA RESULT:      -6.2      4.184      6.323
REMARK  Name = 
REMARK  9 active torsions:
REMARK  status: ('A' for Active; 'I' for Inactive)
REMARK    1  A    between atoms: C_1  and  O_2
REMARK    2  A    between atoms: O_2  and  C_3
REMARK    3  A    between atoms: C_14  and  O_15
REMARK    4  A    between atoms: O_15  and  C_16
REMARK    5  A    between atoms: C_17  and  O_18
REMARK    6  A    between atoms: C_19  and  C_20
REMARK    7  A    between atoms: C_20  and  C_21
REMARK    8  A    between atoms: C_22  and  C_23
REMARK    9  A    between atoms: C_22  and  C_24
REMARK                            x       y       z     vdW  Elec       q    Type
REMARK                         _______ _______ _______ _____ _____    ______ ____
ROOT
ATOM      1  C   UNL     1      -2.915  10.326  16.264  0.00  0.00    +0.000 A 
ATOM      2  C   UNL     1      -1.889  10.891  17.023  0.00  0.00    +0.000 A 
ATOM      3  C   UNL     1      -2.190  11.694  18.122  0.00  0.00    +0.000 A 
ATOM      4  C   UNL     1      -3.522  11.932  18.490  0.00  0.00    +0.000 A 
ATOM      5  C   UNL     1      -4.544  11.346  17.745  0.00  0.00    +0.000 A 
ATOM      6  C   UNL     1      -4.243  10.566  16.625  0.00  0.00    +0.000 A 
ATOM      7  O   UNL     1      -5.870  11.523  18.050  0.00  0.00    +0.000 OA
ATOM      8  C   UNL     1      -6.084  11.739  19.453  0.00  0.00    +0.000 C 
ATOM      9  C   UNL     1      -5.328  12.965  19.958  0.00  0.00    +0.000 C 
ATOM     10  C   UNL     1      -5.258  13.057  21.442  0.00  0.00    +0.000 A 
ATOM     11  C   UNL     1      -6.207  13.458  22.362  0.00  0.00    +0.000 A 
ATOM     12  C   UNL     1      -5.920  13.399  23.743  0.00  0.00    +0.000 A 
ATOM     13  C   UNL     1      -4.667  12.891  24.158  0.00  0.00    +0.000 A 
ATOM     14  C   UNL     1      -3.706  12.463  23.214  0.00  0.00    +0.000 A 
ATOM     15  C   UNL     1      -4.024  12.600  21.871  0.00  0.00    +0.000 A 
ATOM     16  O   UNL     1      -3.189  12.255  20.839  0.00  0.00    +0.000 OA
ATOM     17  C   UNL     1      -3.831  12.814  19.663  0.00  0.00    +0.000 C 
ENDROOT
BRANCH   1  19
ATOM     18  C   UNL     1      -3.220  10.034  13.925  0.00  0.00    +0.000 C 
ATOM     19  O   UNL     1      -2.739   9.527  15.165  0.00  0.00    +0.000 OA
ENDBRANCH   1  19
BRANCH  12  20
ATOM     20  O   UNL     1      -6.982  13.850  24.474  0.00  0.00    +0.000 OA
ATOM     21  C   UNL     1      -7.903  14.790  23.959  0.00  0.00    +0.000 C 
ENDBRANCH  12  20
BRANCH  13  22
ATOM     22  O   UNL     1      -4.263  12.741  25.457  0.00  0.00    +0.000 OA
ATOM     23  H   UNL     1      -5.001  12.529  26.035  0.00  0.00    +0.000 HD
ENDBRANCH  13  22
BRANCH  14  24
ATOM     24  C   UNL     1      -2.394  11.837  23.628  0.00  0.00    +0.000 C 
BRANCH  24  25
ATOM     25  C   UNL     1      -1.330  11.859  22.562  0.00  0.00    +0.000 C 
ATOM     26  C   UNL     1      -0.480  10.869  22.222  0.00  0.00    +0.000 C 
ATOM     27  C   UNL     1      -0.478   9.486  22.816  0.00  0.00    +0.000 C 
ATOM     28  C   UNL     1       0.598  11.096  21.194  0.00  0.00    +0.000 C 
ENDBRANCH  24  25
ENDBRANCH  14  24
TORSDOF 5
ENDMDL
MODEL 7
REMARK VINA RESULT:      -6.2      2.766      9.411
REMARK  Name = 
REMARK  9 active torsions:
REMARK  status: ('A' for Active; 'I' for Inactive)
REMARK    1  A    between atoms: C_1  and  O_2
REMARK    2  A    between atoms: O_2  and  C_3
REMARK    3  A    between atoms: C_14  and  O_15
REMARK    4  A    between atoms: O_15  and  C_16
REMARK    5  A    between atoms: C_17  and  O_18
REMARK    6  A    between atoms: C_19  and  C_20
REMARK    7  A    between atoms: C_20  and  C_21
REMARK    8  A    between atoms: C_22  and  C_23
REMARK    9  A    between atoms: C_22  and  C_24
REMARK                            x       y       z     vdW  Elec       q    Type
REMARK                         _______ _______ _______ _____ _____    ______ ____
ROOT
ATOM      1  C   UNL     1      -0.062  10.703  22.023  0.00  0.00    +0.000 A 
ATOM      2  C   UNL     1      -0.220   9.327  22.194  0.00  0.00    +0.000 A 
ATOM      3  C   UNL     1       0.249   8.441  21.225  0.00  0.00    +0.000 A 
ATOM      4  C   UNL     1       0.900   8.916  20.077  0.00  0.00    +0.000 A 
ATOM      5  C   UNL     1       1.079  10.289  19.922  0.00  0.00    +0.000 A 
ATOM      6  C   UNL     1       0.582  11.179  20.878  0.00  0.00    +0.000 A 
ATOM      7  O   UNL     1       1.716  10.828  18.832  0.00  0.00    +0.000 OA
ATOM      8  C   UNL     1       2.703   9.942  18.283  0.00  0.00    +0.000 C 
ATOM      9  C   UNL     1       2.092   8.614  17.848  0.00  0.00    +0.000 C 
ATOM     10  C   UNL     1       3.099   7.554  17.566  0.00  0.00    +0.000 A 
ATOM     11  C   UNL     1       3.914   7.359  16.468  0.00  0.00    +0.000 A 
ATOM     12  C   UNL     1       4.846   6.299  16.461  0.00  0.00    +0.000 A 
ATOM     13  C   UNL     1       4.950   5.474  17.605  0.00  0.00    +0.000 A 
ATOM     14  C   UNL     1       4.128   5.689  18.735  0.00  0.00    +0.000 A 
ATOM     15  C   UNL     1       3.192   6.710  18.659  0.00  0.00    +0.000 A 
ATOM     16  O   UNL     1       2.307   7.025  19.659  0.00  0.00    +0.000 OA
ATOM     17  C   UNL     1       1.382   7.952  19.035  0.00  0.00    +0.000 C 
ENDROOT
BRANCH   1  19
ATOM     18  C   UNL     1      -0.733  12.957  22.362  0.00  0.00    +0.000 C 
ATOM     19  O   UNL     1      -0.484  11.664  22.903  0.00  0.00    +0.000 OA
ENDBRANCH   1  19
BRANCH  12  20
ATOM     20  O   UNL     1       5.538   6.277  15.283  0.00  0.00    +0.000 OA
ATOM     21  C   UNL     1       5.720   5.088  14.541  0.00  0.00    +0.000 C 
ENDBRANCH  12  20
BRANCH  13  22
ATOM     22  O   UNL     1       5.828   4.436  17.757  0.00  0.00    +0.000 OA
ATOM     23  H   UNL     1       5.454   3.607  17.449  0.00  0.00    +0.000 HD
ENDBRANCH  13  22
BRANCH  14  24
ATOM     24  C   UNL     1       4.275   4.880  20.003  0.00  0.00    +0.000 C 
BRANCH  24  25
ATOM     25  C   UNL     1       3.017   4.178  20.442  0.00  0.00    +0.000 C 
ATOM     26  C   UNL     1       2.454   3.076  19.905  0.00  0.00    +0.000 C 
ATOM     27  C   UNL     1       3.033   2.273  18.771  0.00  0.00    +0.000 C 
ATOM     28  C   UNL     1       1.130   2.562  20.407  0.00  0.00    +0.000 C 
ENDBRANCH  24  25
ENDBRANCH  14  24
TORSDOF 5
ENDMDL
MODEL 8
REMARK VINA RESULT:      -6.1      3.796      8.775
REMARK  Name = 
REMARK  9 active torsions:
REMARK  status: ('A' for Active; 'I' for Inactive)
REMARK    1  A    between atoms: C_1  and  O_2
REMARK    2  A    between atoms: O_2  and  C_3
REMARK    3  A    between atoms: C_14  and  O_15
REMARK    4  A    between atoms: O_15  and  C_16
REMARK    5  A    between atoms: C_17  and  O_18
REMARK    6  A    between atoms: C_19  and  C_20
REMARK    7  A    between atoms: C_20  and  C_21
REMARK    8  A    between atoms: C_22  and  C_23
REMARK    9  A    between atoms: C_22  and  C_24
REMARK                            x       y       z     vdW  Elec       q    Type
REMARK                         _______ _______ _______ _____ _____    ______ ____
ROOT
ATOM      1  C   UNL     1      -4.604  15.907  24.432  0.00  0.00    +0.000 A 
ATOM      2  C   UNL     1      -3.745  14.823  24.616  0.00  0.00    +0.000 A 
ATOM      3  C   UNL     1      -3.699  13.797  23.673  0.00  0.00    +0.000 A 
ATOM      4  C   UNL     1      -4.498  13.848  22.522  0.00  0.00    +0.000 A 
ATOM      5  C   UNL     1      -5.336  14.945  22.329  0.00  0.00    +0.000 A 
ATOM      6  C   UNL     1      -5.406  15.958  23.289  0.00  0.00    +0.000 A 
ATOM      7  O   UNL     1      -6.138  15.070  21.223  0.00  0.00    +0.000 OA
ATOM      8  C   UNL     1      -5.584  14.421  20.069  0.00  0.00    +0.000 C 
ATOM      9  C   UNL     1      -5.363  12.932  20.309  0.00  0.00    +0.000 C 
ATOM     10  C   UNL     1      -4.513  12.277  19.278  0.00  0.00    +0.000 A 
ATOM     11  C   UNL     1      -4.816  11.865  17.994  0.00  0.00    +0.000 A 
ATOM     12  C   UNL     1      -3.807  11.316  17.173  0.00  0.00    +0.000 A 
ATOM     13  C   UNL     1      -2.488  11.234  17.676  0.00  0.00    +0.000 A 
ATOM     14  C   UNL     1      -2.177  11.676  18.982  0.00  0.00    +0.000 A 
ATOM     15  C   UNL     1      -3.222  12.151  19.761  0.00  0.00    +0.000 A 
ATOM     16  O   UNL     1      -3.086  12.589  21.054  0.00  0.00    +0.000 OA
ATOM     17  C   UNL     1      -4.451  12.728  21.526  0.00  0.00    +0.000 C 
ENDROOT
BRANCH   1  19
ATOM     18  C   UNL     1      -5.404  18.117  24.784  0.00  0.00    +0.000 C 
ATOM     19  O   UNL     1      -4.736  16.967  25.290  0.00  0.00    +0.000 OA
ENDBRANCH   1  19
BRANCH  12  20
ATOM     20  O   UNL     1      -4.318  10.964  15.956  0.00  0.00    +0.000 OA
ATOM     21  C   UNL     1      -3.562  10.246  15.003  0.00  0.00    +0.000 C 
ENDBRANCH  12  20
BRANCH  13  22
ATOM     22  O   UNL     1      -1.404  10.763  16.985  0.00  0.00    +0.000 OA
ATOM     23  H   UNL     1      -1.192   9.860  17.233  0.00  0.00    +0.000 HD
ENDBRANCH  13  22
BRANCH  14  24
ATOM     24  C   UNL     1      -0.763  11.681  19.515  0.00  0.00    +0.000 C 
BRANCH  24  25
ATOM     25  C   UNL     1      -0.322  10.375  20.121  0.00  0.00    +0.000 C 
ATOM     26  C   UNL     1      -0.252  10.051  21.429  0.00  0.00    +0.000 C 
ATOM     27  C   UNL     1      -0.679  10.941  22.566  0.00  0.00    +0.000 C 
ATOM     28  C   UNL     1       0.312   8.725  21.867  0.00  0.00    +0.000 C 
ENDBRANCH  24  25
ENDBRANCH  14  24
TORSDOF 5
ENDMDL
MODEL 9
REMARK VINA RESULT:      -6.1      2.799      8.459
REMARK  Name = 
REMARK  9 active torsions:
REMARK  status: ('A' for Active; 'I' for Inactive)
REMARK    1  A    between atoms: C_1  and  O_2
REMARK    2  A    between atoms: O_2  and  C_3
REMARK    3  A    between atoms: C_14  and  O_15
REMARK    4  A    between atoms: O_15  and  C_16
REMARK    5  A    between atoms: C_17  and  O_18
REMARK    6  A    between atoms: C_19  and  C_20
REMARK    7  A    between atoms: C_20  and  C_21
REMARK    8  A    between atoms: C_22  and  C_23
REMARK    9  A    between atoms: C_22  and  C_24
REMARK                            x       y       z     vdW  Elec       q    Type
REMARK                         _______ _______ _______ _____ _____    ______ ____
ROOT
ATOM      1  C   UNL     1      -0.494  12.162  19.498  0.00  0.00    +0.000 A 
ATOM      2  C   UNL     1       0.823  12.079  19.044  0.00  0.00    +0.000 A 
ATOM      3  C   UNL     1       1.593  10.952  19.329  0.00  0.00    +0.000 A 
ATOM      4  C   UNL     1       1.052   9.882  20.057  0.00  0.00    +0.000 A 
ATOM      5  C   UNL     1      -0.271   9.958  20.488  0.00  0.00    +0.000 A 
ATOM      6  C   UNL     1      -1.034  11.100  20.229  0.00  0.00    +0.000 A 
ATOM      7  O   UNL     1      -0.872   8.948  21.195  0.00  0.00    +0.000 OA
ATOM      8  C   UNL     1      -0.330   7.658  20.874  0.00  0.00    +0.000 C 
ATOM      9  C   UNL     1       1.168   7.588  21.156  0.00  0.00    +0.000 C 
ATOM     10  C   UNL     1       1.836   6.400  20.559  0.00  0.00    +0.000 A 
ATOM     11  C   UNL     1       1.857   5.081  20.970  0.00  0.00    +0.000 A 
ATOM     12  C   UNL     1       2.521   4.110  20.190  0.00  0.00    +0.000 A 
ATOM     13  C   UNL     1       3.125   4.507  18.974  0.00  0.00    +0.000 A 
ATOM     14  C   UNL     1       3.084   5.854  18.547  0.00  0.00    +0.000 A 
ATOM     15  C   UNL     1       2.468   6.772  19.385  0.00  0.00    +0.000 A 
ATOM     16  O   UNL     1       2.371   8.115  19.124  0.00  0.00    +0.000 OA
ATOM     17  C   UNL     1       1.899   8.685  20.372  0.00  0.00    +0.000 C 
ENDROOT
BRANCH   1  19
ATOM     18  C   UNL     1      -2.050  13.706  20.416  0.00  0.00    +0.000 C 
ATOM     19  O   UNL     1      -1.340  13.218  19.283  0.00  0.00    +0.000 OA
ENDBRANCH   1  19
BRANCH  12  20
ATOM     20  O   UNL     1       2.433   2.880  20.778  0.00  0.00    +0.000 OA
ATOM     21  C   UNL     1       1.554   2.623  21.854  0.00  0.00    +0.000 C 
ENDBRANCH  12  20
BRANCH  13  22
ATOM     22  O   UNL     1       3.769   3.675  18.100  0.00  0.00    +0.000 OA
ATOM     23  H   UNL     1       4.421   3.129  18.545  0.00  0.00    +0.000 HD
ENDBRANCH  13  22
BRANCH  14  24
ATOM     24  C   UNL     1       3.645   6.293  17.214  0.00  0.00    +0.000 C 
BRANCH  24  25
ATOM     25  C   UNL     1       4.998   6.950  17.295  0.00  0.00    +0.000 C 
ATOM     26  C   UNL     1       6.204   6.388  17.072  0.00  0.00    +0.000 C 
ATOM     27  C   UNL     1       6.430   4.969  16.620  0.00  0.00    +0.000 C 
ATOM     28  C   UNL     1       7.473   7.167  17.298  0.00  0.00    +0.000 C 
ENDBRANCH  24  25
ENDBRANCH  14  24
TORSDOF 5
ENDMDL
