MODEL 1
REMARK VINA RESULT:      -7.2      0.000      0.000
REMARK  Name = 
REMARK  14 active torsions:
REMARK  status: ('A' for Active; 'I' for Inactive)
REMARK    1  A    between atoms: C_1  and  C_2
REMARK    2  A    between atoms: C_2  and  O_3
REMARK    3  A    between atoms: O_3  and  P_4
REMARK    4  A    between atoms: P_4  and  O_6
REMARK    5  A    between atoms: P_4  and  C_9
REMARK    6  A    between atoms: O_6  and  C_7
REMARK    7  A    between atoms: C_7  and  C_8
REMARK    8  A    between atoms: C_9  and  N_10
REMARK    9  A    between atoms: C_9  and  C_23
REMARK   10  A    between atoms: C_11  and  C_13
REMARK   11  A    between atoms: C_16  and  O_17
REMARK   12  A    between atoms: O_17  and  C_18
REMARK   13  A    between atoms: C_19  and  O_20
REMARK   14  A    between atoms: O_20  and  C_21
REMARK                            x       y       z     vdW  Elec       q    Type
REMARK                         _______ _______ _______ _____ _____    ______ ____
ROOT
ATOM      1  C   UNL     1       3.923   5.623  17.818  0.00  0.00    +0.000 C 
ENDROOT
BRANCH   1   2
ATOM      2  C   UNL     1       5.453   5.817  17.941  0.00  0.00    +0.000 A 
ATOM      3  C   UNL     1       6.161   5.254  19.012  0.00  0.00    +0.000 A 
ATOM      4  C   UNL     1       7.435   5.731  19.343  0.00  0.00    +0.000 A 
ATOM      5  C   UNL     1       8.036   6.732  18.579  0.00  0.00    +0.000 A 
ATOM      6  C   UNL     1       7.389   7.226  17.452  0.00  0.00    +0.000 A 
ATOM      7  C   UNL     1       6.110   6.769  17.130  0.00  0.00    +0.000 A 
ENDBRANCH   1   2
BRANCH   1   8
ATOM      8  N   UNL     1       3.278   6.633  18.695  0.00  0.00    +0.000 N 
ATOM      9  C   UNL     1       2.691   7.760  18.172  0.00  0.00    +0.000 C 
ATOM     10  O   UNL     1       2.858   8.122  17.012  0.00  0.00    +0.000 OA
ATOM     11  H   UNL     1       2.769   6.230  19.476  0.00  0.00    +0.000 HD
BRANCH   9  12
ATOM     12  C   UNL     1       1.775   8.494  19.110  0.00  0.00    +0.000 A 
ATOM     13  C   UNL     1       1.607   8.034  20.412  0.00  0.00    +0.000 A 
ATOM     14  C   UNL     1       0.744   8.713  21.279  0.00  0.00    +0.000 A 
ATOM     15  C   UNL     1       0.027   9.848  20.864  0.00  0.00    +0.000 A 
ATOM     16  C   UNL     1       0.197  10.322  19.550  0.00  0.00    +0.000 A 
ATOM     17  C   UNL     1       1.080   9.640  18.687  0.00  0.00    +0.000 A 
BRANCH  15  18
ATOM     18  O   UNL     1      -0.774  10.348  21.858  0.00  0.00    +0.000 OA
ATOM     19  C   UNL     1      -0.538   9.963  23.206  0.00  0.00    +0.000 C 
ENDBRANCH  15  18
BRANCH  16  20
ATOM     20  O   UNL     1      -0.519  11.423  19.162  0.00  0.00    +0.000 OA
ATOM     21  C   UNL     1      -0.019  12.713  19.486  0.00  0.00    +0.000 C 
ENDBRANCH  16  20
ENDBRANCH   9  12
ENDBRANCH   1   8
BRANCH   1  22
ATOM     22  P   UNL     1       3.312   3.910  18.023  0.00  0.00    +0.000 P 
ATOM     23  O   UNL     1       3.101   3.773  16.495  0.00  0.00    +0.000 OA
BRANCH  22  24
ATOM     24  O   UNL     1       2.734   2.291  18.218  0.00  0.00    +0.000 OA
BRANCH  24  26
ATOM     25  C   UNL     1       4.457   2.046  19.829  0.00  0.00    +0.000 C 
ATOM     26  C   UNL     1       3.658   1.351  18.742  0.00  0.00    +0.000 C 
ENDBRANCH  24  26
ENDBRANCH  22  24
BRANCH  22  27
ATOM     27  O   UNL     1       1.837   4.426  18.559  0.00  0.00    +0.000 OA
BRANCH  27  28
ATOM     28  C   UNL     1       1.158   3.996  19.716  0.00  0.00    +0.000 C 
ATOM     29  C   UNL     1       1.855   4.337  21.014  0.00  0.00    +0.000 C 
ENDBRANCH  27  28
ENDBRANCH  22  27
ENDBRANCH   1  22
TORSDOF 10
ENDMDL
MODEL 2
REMARK VINA RESULT:      -7.0      1.933      4.200
REMARK  Name = 
REMARK  14 active torsions:
REMARK  status: ('A' for Active; 'I' for Inactive)
REMARK    1  A    between atoms: C_1  and  C_2
REMARK    2  A    between atoms: C_2  and  O_3
REMARK    3  A    between atoms: O_3  and  P_4
REMARK    4  A    between atoms: P_4  and  O_6
REMARK    5  A    between atoms: P_4  and  C_9
REMARK    6  A    between atoms: O_6  and  C_7
REMARK    7  A    between atoms: C_7  and  C_8
REMARK    8  A    between atoms: C_9  and  N_10
REMARK    9  A    between atoms: C_9  and  C_23
REMARK   10  A    between atoms: C_11  and  C_13
REMARK   11  A    between atoms: C_16  and  O_17
REMARK   12  A    between atoms: O_17  and  C_18
REMARK   13  A    between atoms: C_19  and  O_20
REMARK   14  A    between atoms: O_20  and  C_21
REMARK                            x       y       z     vdW  Elec       q    Type
REMARK                         _______ _______ _______ _____ _____    ______ ____
ROOT
ATOM      1  C   UNL     1       4.260   4.949  19.440  0.00  0.00    +0.000 C 
ENDROOT
BRANCH   1   2
ATOM      2  C   UNL     1       3.143   3.884  19.548  0.00  0.00    +0.000 A 
ATOM      3  C   UNL     1       2.821   3.073  18.450  0.00  0.00    +0.000 A 
ATOM      4  C   UNL     1       1.595   2.399  18.408  0.00  0.00    +0.000 A 
ATOM      5  C   UNL     1       0.704   2.483  19.478  0.00  0.00    +0.000 A 
ATOM      6  C   UNL     1       1.055   3.200  20.617  0.00  0.00    +0.000 A 
ATOM      7  C   UNL     1       2.267   3.890  20.656  0.00  0.00    +0.000 A 
ENDBRANCH   1   2
BRANCH   1   8
ATOM      8  N   UNL     1       3.646   6.265  19.755  0.00  0.00    +0.000 N 
ATOM      9  C   UNL     1       2.635   6.783  18.982  0.00  0.00    +0.000 C 
ATOM     10  O   UNL     1       2.339   6.331  17.881  0.00  0.00    +0.000 OA
ATOM     11  H   UNL     1       3.530   6.433  20.750  0.00  0.00    +0.000 HD
BRANCH   9  12
ATOM     12  C   UNL     1       1.872   7.915  19.610  0.00  0.00    +0.000 A 
ATOM     13  C   UNL     1       1.437   7.809  20.927  0.00  0.00    +0.000 A 
ATOM     14  C   UNL     1       0.716   8.860  21.504  0.00  0.00    +0.000 A 
ATOM     15  C   UNL     1       0.405  10.023  20.779  0.00  0.00    +0.000 A 
ATOM     16  C   UNL     1       0.847  10.140  19.448  0.00  0.00    +0.000 A 
ATOM     17  C   UNL     1       1.585   9.082  18.880  0.00  0.00    +0.000 A 
BRANCH  15  18
ATOM     18  O   UNL     1      -0.322  10.918  21.522  0.00  0.00    +0.000 OA
ATOM     19  C   UNL     1      -0.726  10.567  22.839  0.00  0.00    +0.000 C 
ENDBRANCH  15  18
BRANCH  16  20
ATOM     20  O   UNL     1       0.524  11.277  18.757  0.00  0.00    +0.000 OA
ATOM     21  C   UNL     1       1.442  12.362  18.760  0.00  0.00    +0.000 C 
ENDBRANCH  16  20
ENDBRANCH   9  12
ENDBRANCH   1   8
BRANCH   1  22
ATOM     22  P   UNL     1       5.267   4.906  17.913  0.00  0.00    +0.000 P 
ATOM     23  O   UNL     1       6.294   3.960  18.585  0.00  0.00    +0.000 OA
BRANCH  22  24
ATOM     24  O   UNL     1       6.219   4.865  16.469  0.00  0.00    +0.000 OA
BRANCH  24  26
ATOM     25  C   UNL     1       6.391   4.247  14.186  0.00  0.00    +0.000 C 
ATOM     26  C   UNL     1       5.953   3.801  15.569  0.00  0.00    +0.000 C 
ENDBRANCH  24  26
ENDBRANCH  22  24
BRANCH  22  27
ATOM     27  O   UNL     1       5.895   6.406  18.201  0.00  0.00    +0.000 OA
BRANCH  27  28
ATOM     28  C   UNL     1       6.539   7.247  17.272  0.00  0.00    +0.000 C 
ATOM     29  C   UNL     1       7.805   7.894  17.788  0.00  0.00    +0.000 C 
ENDBRANCH  27  28
ENDBRANCH  22  27
ENDBRANCH   1  22
TORSDOF 10
ENDMDL
MODEL 3
REMARK VINA RESULT:      -7.0      1.069      1.407
REMARK  Name = 
REMARK  14 active torsions:
REMARK  status: ('A' for Active; 'I' for Inactive)
REMARK    1  A    between atoms: C_1  and  C_2
REMARK    2  A    between atoms: C_2  and  O_3
REMARK    3  A    between atoms: O_3  and  P_4
REMARK    4  A    between atoms: P_4  and  O_6
REMARK    5  A    between atoms: P_4  and  C_9
REMARK    6  A    between atoms: O_6  and  C_7
REMARK    7  A    between atoms: C_7  and  C_8
REMARK    8  A    between atoms: C_9  and  N_10
REMARK    9  A    between atoms: C_9  and  C_23
REMARK   10  A    between atoms: C_11  and  C_13
REMARK   11  A    between atoms: C_16  and  O_17
REMARK   12  A    between atoms: O_17  and  C_18
REMARK   13  A    between atoms: C_19  and  O_20
REMARK   14  A    between atoms: O_20  and  C_21
REMARK                            x       y       z     vdW  Elec       q    Type
REMARK                         _______ _______ _______ _____ _____    ______ ____
ROOT
ATOM      1  C   UNL     1       3.094   5.942  17.858  0.00  0.00    +0.000 C 
ENDROOT
BRANCH   1   2
ATOM      2  C   UNL     1       4.633   6.052  17.967  0.00  0.00    +0.000 A 
ATOM      3  C   UNL     1       5.408   6.366  16.842  0.00  0.00    +0.000 A 
ATOM      4  C   UNL     1       6.781   6.093  16.833  0.00  0.00    +0.000 A 
ATOM      5  C   UNL     1       7.403   5.555  17.960  0.00  0.00    +0.000 A 
ATOM      6  C   UNL     1       6.665   5.335  19.119  0.00  0.00    +0.000 A 
ATOM      7  C   UNL     1       5.293   5.587  19.126  0.00  0.00    +0.000 A 
ENDBRANCH   1   2
BRANCH   1   8
ATOM      8  N   UNL     1       2.514   6.985  18.743  0.00  0.00    +0.000 N 
ATOM      9  C   UNL     1       2.194   8.231  18.262  0.00  0.00    +0.000 C 
ATOM     10  O   UNL     1       2.570   8.640  17.168  0.00  0.00    +0.000 OA
ATOM     11  H   UNL     1       1.847   6.622  19.418  0.00  0.00    +0.000 HD
BRANCH   9  12
ATOM     12  C   UNL     1       1.296   9.045  19.150  0.00  0.00    +0.000 A 
ATOM     13  C   UNL     1       1.223   8.757  20.508  0.00  0.00    +0.000 A 
ATOM     14  C   UNL     1       0.376   9.510  21.330  0.00  0.00    +0.000 A 
ATOM     15  C   UNL     1      -0.419  10.547  20.813  0.00  0.00    +0.000 A 
ATOM     16  C   UNL     1      -0.346  10.846  19.440  0.00  0.00    +0.000 A 
ATOM     17  C   UNL     1       0.521  10.093  18.622  0.00  0.00    +0.000 A 
BRANCH  15  18
ATOM     18  O   UNL     1      -1.188  11.141  21.780  0.00  0.00    +0.000 OA
ATOM     19  C   UNL     1      -1.081  10.701  23.127  0.00  0.00    +0.000 C 
ENDBRANCH  15  18
BRANCH  16  20
ATOM     20  O   UNL     1      -1.138  11.853  18.955  0.00  0.00    +0.000 OA
ATOM     21  C   UNL     1      -0.516  13.022  18.437  0.00  0.00    +0.000 C 
ENDBRANCH  16  20
ENDBRANCH   9  12
ENDBRANCH   1   8
BRANCH   1  22
ATOM     22  P   UNL     1       2.391   4.265  18.066  0.00  0.00    +0.000 P 
ATOM     23  O   UNL     1       1.095   4.687  17.329  0.00  0.00    +0.000 OA
BRANCH  22  24
ATOM     24  O   UNL     1       1.727   2.680  18.263  0.00  0.00    +0.000 OA
BRANCH  24  26
ATOM     25  C   UNL     1       4.024   2.176  17.958  0.00  0.00    +0.000 C 
ATOM     26  C   UNL     1       2.653   1.606  18.275  0.00  0.00    +0.000 C 
ENDBRANCH  24  26
ENDBRANCH  22  24
BRANCH  22  27
ATOM     27  O   UNL     1       2.025   4.540  19.653  0.00  0.00    +0.000 OA
BRANCH  27  28
ATOM     28  C   UNL     1       1.011   3.918  20.408  0.00  0.00    +0.000 C 
ATOM     29  C   UNL     1       1.513   3.103  21.579  0.00  0.00    +0.000 C 
ENDBRANCH  27  28
ENDBRANCH  22  27
ENDBRANCH   1  22
TORSDOF 10
ENDMDL
MODEL 4
REMARK VINA RESULT:      -6.9      1.115      2.195
REMARK  Name = 
REMARK  14 active torsions:
REMARK  status: ('A' for Active; 'I' for Inactive)
REMARK    1  A    between atoms: C_1  and  C_2
REMARK    2  A    between atoms: C_2  and  O_3
REMARK    3  A    between atoms: O_3  and  P_4
REMARK    4  A    between atoms: P_4  and  O_6
REMARK    5  A    between atoms: P_4  and  C_9
REMARK    6  A    between atoms: O_6  and  C_7
REMARK    7  A    between atoms: C_7  and  C_8
REMARK    8  A    between atoms: C_9  and  N_10
REMARK    9  A    between atoms: C_9  and  C_23
REMARK   10  A    between atoms: C_11  and  C_13
REMARK   11  A    between atoms: C_16  and  O_17
REMARK   12  A    between atoms: O_17  and  C_18
REMARK   13  A    between atoms: C_19  and  O_20
REMARK   14  A    between atoms: O_20  and  C_21
REMARK                            x       y       z     vdW  Elec       q    Type
REMARK                         _______ _______ _______ _____ _____    ______ ____
ROOT
ATOM      1  C   UNL     1       3.049   5.979  17.946  0.00  0.00    +0.000 C 
ENDROOT
BRANCH   1   2
ATOM      2  C   UNL     1       4.584   6.092  18.102  0.00  0.00    +0.000 A 
ATOM      3  C   UNL     1       5.379   6.553  17.043  0.00  0.00    +0.000 A 
ATOM      4  C   UNL     1       6.755   6.299  17.032  0.00  0.00    +0.000 A 
ATOM      5  C   UNL     1       7.361   5.633  18.098  0.00  0.00    +0.000 A 
ATOM      6  C   UNL     1       6.602   5.262  19.203  0.00  0.00    +0.000 A 
ATOM      7  C   UNL     1       5.226   5.495  19.210  0.00  0.00    +0.000 A 
ENDBRANCH   1   2
BRANCH   1   8
ATOM      8  N   UNL     1       2.442   7.059  18.765  0.00  0.00    +0.000 N 
ATOM      9  C   UNL     1       2.201   8.305  18.238  0.00  0.00    +0.000 C 
ATOM     10  O   UNL     1       2.670   8.678  17.167  0.00  0.00    +0.000 OA
ATOM     11  H   UNL     1       1.715   6.733  19.396  0.00  0.00    +0.000 HD
BRANCH   9  12
ATOM     12  C   UNL     1       1.268   9.166  19.041  0.00  0.00    +0.000 A 
ATOM     13  C   UNL     1       0.920  10.429  18.575  0.00  0.00    +0.000 A 
ATOM     14  C   UNL     1       0.060  11.233  19.332  0.00  0.00    +0.000 A 
ATOM     15  C   UNL     1      -0.455  10.800  20.566  0.00  0.00    +0.000 A 
ATOM     16  C   UNL     1      -0.111   9.520  21.040  0.00  0.00    +0.000 A 
ATOM     17  C   UNL     1       0.744   8.712  20.265  0.00  0.00    +0.000 A 
BRANCH  15  18
ATOM     18  O   UNL     1      -1.259  11.744  21.152  0.00  0.00    +0.000 OA
ATOM     19  C   UNL     1      -2.263  12.385  20.377  0.00  0.00    +0.000 C 
ENDBRANCH  15  18
BRANCH  16  20
ATOM     20  O   UNL     1      -0.615   9.123  22.250  0.00  0.00    +0.000 OA
ATOM     21  C   UNL     1       0.051   9.532  23.436  0.00  0.00    +0.000 C 
ENDBRANCH  16  20
ENDBRANCH   9  12
ENDBRANCH   1   8
BRANCH   1  22
ATOM     22  P   UNL     1       2.336   4.313  18.201  0.00  0.00    +0.000 P 
ATOM     23  O   UNL     1       1.172   4.633  17.231  0.00  0.00    +0.000 OA
BRANCH  22  24
ATOM     24  O   UNL     1       1.662   2.739  18.443  0.00  0.00    +0.000 OA
BRANCH  24  26
ATOM     25  C   UNL     1       3.935   2.117  18.711  0.00  0.00    +0.000 C 
ATOM     26  C   UNL     1       2.553   1.643  18.300  0.00  0.00    +0.000 C 
ENDBRANCH  24  26
ENDBRANCH  22  24
BRANCH  22  27
ATOM     27  O   UNL     1       1.719   4.727  19.676  0.00  0.00    +0.000 OA
BRANCH  27  28
ATOM     28  C   UNL     1       1.155   3.860  20.632  0.00  0.00    +0.000 C 
ATOM     29  C   UNL     1       2.111   3.422  21.719  0.00  0.00    +0.000 C 
ENDBRANCH  27  28
ENDBRANCH  22  27
ENDBRANCH   1  22
TORSDOF 10
ENDMDL
MODEL 5
REMARK VINA RESULT:      -6.9      2.226      4.564
REMARK  Name = 
REMARK  14 active torsions:
REMARK  status: ('A' for Active; 'I' for Inactive)
REMARK    1  A    between atoms: C_1  and  C_2
REMARK    2  A    between atoms: C_2  and  O_3
REMARK    3  A    between atoms: O_3  and  P_4
REMARK    4  A    between atoms: P_4  and  O_6
REMARK    5  A    between atoms: P_4  and  C_9
REMARK    6  A    between atoms: O_6  and  C_7
REMARK    7  A    between atoms: C_7  and  C_8
REMARK    8  A    between atoms: C_9  and  N_10
REMARK    9  A    between atoms: C_9  and  C_23
REMARK   10  A    between atoms: C_11  and  C_13
REMARK   11  A    between atoms: C_16  and  O_17
REMARK   12  A    between atoms: O_17  and  C_18
REMARK   13  A    between atoms: C_19  and  O_20
REMARK   14  A    between atoms: O_20  and  C_21
REMARK                            x       y       z     vdW  Elec       q    Type
REMARK                         _______ _______ _______ _____ _____    ______ ____
ROOT
ATOM      1  C   UNL     1       5.149   5.002  18.983  0.00  0.00    +0.000 C 
ENDROOT
BRANCH   1   2
ATOM      2  C   UNL     1       4.152   3.819  18.948  0.00  0.00    +0.000 A 
ATOM      3  C   UNL     1       3.976   3.066  17.779  0.00  0.00    +0.000 A 
ATOM      4  C   UNL     1       2.835   2.272  17.617  0.00  0.00    +0.000 A 
ATOM      5  C   UNL     1       1.888   2.177  18.636  0.00  0.00    +0.000 A 
ATOM      6  C   UNL     1       2.101   2.836  19.842  0.00  0.00    +0.000 A 
ATOM      7  C   UNL     1       3.226   3.646  20.002  0.00  0.00    +0.000 A 
ENDBRANCH   1   2
BRANCH   1   8
ATOM      8  N   UNL     1       4.354   6.242  19.175  0.00  0.00    +0.000 N 
ATOM      9  C   UNL     1       3.599   6.771  18.156  0.00  0.00    +0.000 C 
ATOM     10  O   UNL     1       3.708   6.409  16.989  0.00  0.00    +0.000 OA
ATOM     11  H   UNL     1       3.915   6.308  20.088  0.00  0.00    +0.000 HD
BRANCH   9  12
ATOM     12  C   UNL     1       2.581   7.789  18.582  0.00  0.00    +0.000 A 
ATOM     13  C   UNL     1       2.248   8.833  17.725  0.00  0.00    +0.000 A 
ATOM     14  C   UNL     1       1.307   9.787  18.130  0.00  0.00    +0.000 A 
ATOM     15  C   UNL     1       0.695   9.725  19.394  0.00  0.00    +0.000 A 
ATOM     16  C   UNL     1       1.023   8.668  20.263  0.00  0.00    +0.000 A 
ATOM     17  C   UNL     1       1.961   7.704  19.841  0.00  0.00    +0.000 A 
BRANCH  15  18
ATOM     18  O   UNL     1      -0.178  10.763  19.598  0.00  0.00    +0.000 OA
ATOM     19  C   UNL     1      -1.463  10.725  18.993  0.00  0.00    +0.000 C 
ENDBRANCH  15  18
BRANCH  16  20
ATOM     20  O   UNL     1       0.424   8.634  21.494  0.00  0.00    +0.000 OA
ATOM     21  C   UNL     1       1.061   9.287  22.583  0.00  0.00    +0.000 C 
ENDBRANCH  16  20
ENDBRANCH   9  12
ENDBRANCH   1   8
BRANCH   1  22
ATOM     22  P   UNL     1       6.370   5.062  17.622  0.00  0.00    +0.000 P 
ATOM     23  O   UNL     1       7.288   4.058  18.364  0.00  0.00    +0.000 OA
BRANCH  22  24
ATOM     24  O   UNL     1       7.526   5.120  16.335  0.00  0.00    +0.000 OA
BRANCH  24  26
ATOM     25  C   UNL     1       5.654   4.232  15.180  0.00  0.00    +0.000 C 
ATOM     26  C   UNL     1       7.031   4.854  15.032  0.00  0.00    +0.000 C 
ENDBRANCH  24  26
ENDBRANCH  22  24
BRANCH  22  27
ATOM     27  O   UNL     1       6.948   6.530  18.112  0.00  0.00    +0.000 OA
BRANCH  27  28
ATOM     28  C   UNL     1       7.232   7.643  17.298  0.00  0.00    +0.000 C 
ATOM     29  C   UNL     1       8.151   8.664  17.932  0.00  0.00    +0.000 C 
ENDBRANCH  27  28
ENDBRANCH  22  27
ENDBRANCH   1  22
TORSDOF 10
ENDMDL
MODEL 6
REMARK VINA RESULT:      -6.9      1.142      1.976
REMARK  Name = 
REMARK  14 active torsions:
REMARK  status: ('A' for Active; 'I' for Inactive)
REMARK    1  A    between atoms: C_1  and  C_2
REMARK    2  A    between atoms: C_2  and  O_3
REMARK    3  A    between atoms: O_3  and  P_4
REMARK    4  A    between atoms: P_4  and  O_6
REMARK    5  A    between atoms: P_4  and  C_9
REMARK    6  A    between atoms: O_6  and  C_7
REMARK    7  A    between atoms: C_7  and  C_8
REMARK    8  A    between atoms: C_9  and  N_10
REMARK    9  A    between atoms: C_9  and  C_23
REMARK   10  A    between atoms: C_11  and  C_13
REMARK   11  A    between atoms: C_16  and  O_17
REMARK   12  A    between atoms: O_17  and  C_18
REMARK   13  A    between atoms: C_19  and  O_20
REMARK   14  A    between atoms: O_20  and  C_21
REMARK                            x       y       z     vdW  Elec       q    Type
REMARK                         _______ _______ _______ _____ _____    ______ ____
ROOT
ATOM      1  C   UNL     1       3.069   5.722  17.904  0.00  0.00    +0.000 C 
ENDROOT
BRANCH   1   2
ATOM      2  C   UNL     1       4.614   5.662  17.973  0.00  0.00    +0.000 A 
ATOM      3  C   UNL     1       5.259   5.180  19.121  0.00  0.00    +0.000 A 
ATOM      4  C   UNL     1       6.609   5.476  19.346  0.00  0.00    +0.000 A 
ATOM      5  C   UNL     1       7.340   6.206  18.410  0.00  0.00    +0.000 A 
ATOM      6  C   UNL     1       6.740   6.602  17.219  0.00  0.00    +0.000 A 
ATOM      7  C   UNL     1       5.390   6.327  16.998  0.00  0.00    +0.000 A 
ENDBRANCH   1   2
BRANCH   1   8
ATOM      8  N   UNL     1       2.635   6.882  18.724  0.00  0.00    +0.000 N 
ATOM      9  C   UNL     1       2.330   8.090  18.145  0.00  0.00    +0.000 C 
ATOM     10  O   UNL     1       2.612   8.362  16.982  0.00  0.00    +0.000 OA
ATOM     11  H   UNL     1       2.024   6.630  19.495  0.00  0.00    +0.000 HD
BRANCH   9  12
ATOM     12  C   UNL     1       1.568   9.041  19.023  0.00  0.00    +0.000 A 
ATOM     13  C   UNL     1       0.827  10.068  18.449  0.00  0.00    +0.000 A 
ATOM     14  C   UNL     1       0.128  10.960  19.271  0.00  0.00    +0.000 A 
ATOM     15  C   UNL     1       0.166  10.852  20.672  0.00  0.00    +0.000 A 
ATOM     16  C   UNL     1       0.909   9.811  21.259  0.00  0.00    +0.000 A 
ATOM     17  C   UNL     1       1.598   8.909  20.423  0.00  0.00    +0.000 A 
BRANCH  15  18
ATOM     18  O   UNL     1      -0.569  11.833  21.287  0.00  0.00    +0.000 OA
ATOM     19  C   UNL     1      -1.852  12.168  20.778  0.00  0.00    +0.000 C 
ENDBRANCH  15  18
BRANCH  16  20
ATOM     20  O   UNL     1       0.941   9.731  22.625  0.00  0.00    +0.000 OA
ATOM     21  C   UNL     1      -0.262   9.431  23.321  0.00  0.00    +0.000 C 
ENDBRANCH  16  20
ENDBRANCH   9  12
ENDBRANCH   1   8
BRANCH   1  22
ATOM     22  P   UNL     1       2.189   4.154  18.245  0.00  0.00    +0.000 P 
ATOM     23  O   UNL     1       1.110   4.498  17.189  0.00  0.00    +0.000 OA
BRANCH  22  24
ATOM     24  O   UNL     1       1.357   2.672  18.568  0.00  0.00    +0.000 OA
BRANCH  24  26
ATOM     25  C   UNL     1       3.527   1.854  18.070  0.00  0.00    +0.000 C 
ATOM     26  C   UNL     1       2.154   1.498  18.610  0.00  0.00    +0.000 C 
ENDBRANCH  24  26
ENDBRANCH  22  24
BRANCH  22  27
ATOM     27  O   UNL     1       1.542   4.740  19.647  0.00  0.00    +0.000 OA
BRANCH  27  28
ATOM     28  C   UNL     1       1.148   3.995  20.775  0.00  0.00    +0.000 C 
ATOM     29  C   UNL     1       2.284   3.608  21.696  0.00  0.00    +0.000 C 
ENDBRANCH  27  28
ENDBRANCH  22  27
ENDBRANCH   1  22
TORSDOF 10
ENDMDL
MODEL 7
REMARK VINA RESULT:      -6.9      1.928      4.534
REMARK  Name = 
REMARK  14 active torsions:
REMARK  status: ('A' for Active; 'I' for Inactive)
REMARK    1  A    between atoms: C_1  and  C_2
REMARK    2  A    between atoms: C_2  and  O_3
REMARK    3  A    between atoms: O_3  and  P_4
REMARK    4  A    between atoms: P_4  and  O_6
REMARK    5  A    between atoms: P_4  and  C_9
REMARK    6  A    between atoms: O_6  and  C_7
REMARK    7  A    between atoms: C_7  and  C_8
REMARK    8  A    between atoms: C_9  and  N_10
REMARK    9  A    between atoms: C_9  and  C_23
REMARK   10  A    between atoms: C_11  and  C_13
REMARK   11  A    between atoms: C_16  and  O_17
REMARK   12  A    between atoms: O_17  and  C_18
REMARK   13  A    between atoms: C_19  and  O_20
REMARK   14  A    between atoms: O_20  and  C_21
REMARK                            x       y       z     vdW  Elec       q    Type
REMARK                         _______ _______ _______ _____ _____    ______ ____
ROOT
ATOM      1  C   UNL     1       4.442   5.132  19.384  0.00  0.00    +0.000 C 
ENDROOT
BRANCH   1   2
ATOM      2  C   UNL     1       3.341   4.106  19.744  0.00  0.00    +0.000 A 
ATOM      3  C   UNL     1       3.077   3.016  18.903  0.00  0.00    +0.000 A 
ATOM      4  C   UNL     1       1.865   2.323  19.007  0.00  0.00    +0.000 A 
ATOM      5  C   UNL     1       0.932   2.672  19.983  0.00  0.00    +0.000 A 
ATOM      6  C   UNL     1       1.225   3.684  20.891  0.00  0.00    +0.000 A 
ATOM      7  C   UNL     1       2.422   4.391  20.779  0.00  0.00    +0.000 A 
ENDBRANCH   1   2
BRANCH   1   8
ATOM      8  N   UNL     1       3.817   6.479  19.419  0.00  0.00    +0.000 N 
ATOM      9  C   UNL     1       2.769   6.801  18.591  0.00  0.00    +0.000 C 
ATOM     10  O   UNL     1       2.439   6.108  17.633  0.00  0.00    +0.000 OA
ATOM     11  H   UNL     1       3.736   6.868  20.354  0.00  0.00    +0.000 HD
BRANCH   9  12
ATOM     12  C   UNL     1       2.010   8.038  18.978  0.00  0.00    +0.000 A 
ATOM     13  C   UNL     1       1.647   8.959  18.002  0.00  0.00    +0.000 A 
ATOM     14  C   UNL     1       0.951  10.117  18.368  0.00  0.00    +0.000 A 
ATOM     15  C   UNL     1       0.617  10.381  19.707  0.00  0.00    +0.000 A 
ATOM     16  C   UNL     1       0.976   9.450  20.699  0.00  0.00    +0.000 A 
ATOM     17  C   UNL     1       1.664   8.280  20.319  0.00  0.00    +0.000 A 
BRANCH  15  18
ATOM     18  O   UNL     1      -0.045  11.574  19.850  0.00  0.00    +0.000 OA
ATOM     19  C   UNL     1      -0.279  12.385  18.707  0.00  0.00    +0.000 C 
ENDBRANCH  15  18
BRANCH  16  20
ATOM     20  O   UNL     1       0.651   9.733  21.999  0.00  0.00    +0.000 OA
ATOM     21  C   UNL     1      -0.487   9.103  22.571  0.00  0.00    +0.000 C 
ENDBRANCH  16  20
ENDBRANCH   9  12
ENDBRANCH   1   8
BRANCH   1  22
ATOM     22  P   UNL     1       5.421   4.765  17.882  0.00  0.00    +0.000 P 
ATOM     23  O   UNL     1       6.467   3.990  18.720  0.00  0.00    +0.000 OA
BRANCH  22  24
ATOM     24  O   UNL     1       6.346   4.419  16.462  0.00  0.00    +0.000 OA
BRANCH  24  26
ATOM     25  C   UNL     1       6.568   4.313  14.103  0.00  0.00    +0.000 C 
ATOM     26  C   UNL     1       5.610   4.181  15.273  0.00  0.00    +0.000 C 
ENDBRANCH  24  26
ENDBRANCH  22  24
BRANCH  22  27
ATOM     27  O   UNL     1       6.042   6.294  17.829  0.00  0.00    +0.000 OA
BRANCH  27  28
ATOM     28  C   UNL     1       7.334   6.670  17.410  0.00  0.00    +0.000 C 
ATOM     29  C   UNL     1       7.676   8.121  17.664  0.00  0.00    +0.000 C 
ENDBRANCH  27  28
ENDBRANCH  22  27
ENDBRANCH   1  22
TORSDOF 10
ENDMDL
MODEL 8
REMARK VINA RESULT:      -6.9      2.922      8.240
REMARK  Name = 
REMARK  14 active torsions:
REMARK  status: ('A' for Active; 'I' for Inactive)
REMARK    1  A    between atoms: C_1  and  C_2
REMARK    2  A    between atoms: C_2  and  O_3
REMARK    3  A    between atoms: O_3  and  P_4
REMARK    4  A    between atoms: P_4  and  O_6
REMARK    5  A    between atoms: P_4  and  C_9
REMARK    6  A    between atoms: O_6  and  C_7
REMARK    7  A    between atoms: C_7  and  C_8
REMARK    8  A    between atoms: C_9  and  N_10
REMARK    9  A    between atoms: C_9  and  C_23
REMARK   10  A    between atoms: C_11  and  C_13
REMARK   11  A    between atoms: C_16  and  O_17
REMARK   12  A    between atoms: O_17  and  C_18
REMARK   13  A    between atoms: C_19  and  O_20
REMARK   14  A    between atoms: O_20  and  C_21
REMARK                            x       y       z     vdW  Elec       q    Type
REMARK                         _______ _______ _______ _____ _____    ______ ____
ROOT
ATOM      1  C   UNL     1      -0.018  10.770  18.741  0.00  0.00    +0.000 C 
ENDROOT
BRANCH   1   2
ATOM      2  C   UNL     1      -1.473  10.639  18.233  0.00  0.00    +0.000 A 
ATOM      3  C   UNL     1      -1.767   9.867  17.101  0.00  0.00    +0.000 A 
ATOM      4  C   UNL     1      -2.977  10.048  16.419  0.00  0.00    +0.000 A 
ATOM      5  C   UNL     1      -3.925  10.957  16.889  0.00  0.00    +0.000 A 
ATOM      6  C   UNL     1      -3.690  11.654  18.069  0.00  0.00    +0.000 A 
ATOM      7  C   UNL     1      -2.477  11.493  18.741  0.00  0.00    +0.000 A 
ENDBRANCH   1   2
BRANCH   1   8
ATOM      8  N   UNL     1       0.608   9.427  18.640  0.00  0.00    +0.000 N 
ATOM      9  C   UNL     1       1.844   9.257  18.066  0.00  0.00    +0.000 C 
ATOM     10  O   UNL     1       2.398  10.130  17.404  0.00  0.00    +0.000 OA
ATOM     11  H   UNL     1       0.450   8.841  19.455  0.00  0.00    +0.000 HD
BRANCH   9  12
ATOM     12  C   UNL     1       2.505   7.939  18.355  0.00  0.00    +0.000 A 
ATOM     13  C   UNL     1       3.504   7.467  17.511  0.00  0.00    +0.000 A 
ATOM     14  C   UNL     1       4.108   6.233  17.777  0.00  0.00    +0.000 A 
ATOM     15  C   UNL     1       3.721   5.447  18.875  0.00  0.00    +0.000 A 
ATOM     16  C   UNL     1       2.714   5.921  19.737  0.00  0.00    +0.000 A 
ATOM     17  C   UNL     1       2.121   7.172  19.469  0.00  0.00    +0.000 A 
BRANCH  15  18
ATOM     18  O   UNL     1       4.422   4.270  18.943  0.00  0.00    +0.000 OA
ATOM     19  C   UNL     1       4.067   3.194  18.085  0.00  0.00    +0.000 C 
ENDBRANCH  15  18
BRANCH  16  20
ATOM     20  O   UNL     1       2.344   5.134  20.794  0.00  0.00    +0.000 OA
ATOM     21  C   UNL     1       1.289   4.199  20.614  0.00  0.00    +0.000 C 
ENDBRANCH  16  20
ENDBRANCH   9  12
ENDBRANCH   1   8
BRANCH   1  22
ATOM     22  P   UNL     1       0.197  11.610  20.353  0.00  0.00    +0.000 P 
ATOM     23  O   UNL     1       1.566  12.181  19.904  0.00  0.00    +0.000 OA
BRANCH  22  24
ATOM     24  O   UNL     1       0.401  12.404  21.876  0.00  0.00    +0.000 OA
BRANCH  24  26
ATOM     25  C   UNL     1      -1.643  12.799  23.012  0.00  0.00    +0.000 C 
ATOM     26  C   UNL     1      -0.535  13.425  22.185  0.00  0.00    +0.000 C 
ENDBRANCH  24  26
ENDBRANCH  22  24
BRANCH  22  27
ATOM     27  O   UNL     1       0.610  10.202  21.111  0.00  0.00    +0.000 OA
BRANCH  27  28
ATOM     28  C   UNL     1      -0.234   9.374  21.877  0.00  0.00    +0.000 C 
ATOM     29  C   UNL     1      -0.025   9.479  23.371  0.00  0.00    +0.000 C 
ENDBRANCH  27  28
ENDBRANCH  22  27
ENDBRANCH   1  22
TORSDOF 10
ENDMDL
MODEL 9
REMARK VINA RESULT:      -6.8      1.106      1.247
REMARK  Name = 
REMARK  14 active torsions:
REMARK  status: ('A' for Active; 'I' for Inactive)
REMARK    1  A    between atoms: C_1  and  C_2
REMARK    2  A    between atoms: C_2  and  O_3
REMARK    3  A    between atoms: O_3  and  P_4
REMARK    4  A    between atoms: P_4  and  O_6
REMARK    5  A    between atoms: P_4  and  C_9
REMARK    6  A    between atoms: O_6  and  C_7
REMARK    7  A    between atoms: C_7  and  C_8
REMARK    8  A    between atoms: C_9  and  N_10
REMARK    9  A    between atoms: C_9  and  C_23
REMARK   10  A    between atoms: C_11  and  C_13
REMARK   11  A    between atoms: C_16  and  O_17
REMARK   12  A    between atoms: O_17  and  C_18
REMARK   13  A    between atoms: C_19  and  O_20
REMARK   14  A    between atoms: O_20  and  C_21
REMARK                            x       y       z     vdW  Elec       q    Type
REMARK                         _______ _______ _______ _____ _____    ______ ____
ROOT
ATOM      1  C   UNL     1       3.013   5.700  17.893  0.00  0.00    +0.000 C 
ENDROOT
BRANCH   1   2
ATOM      2  C   UNL     1       4.558   5.681  17.969  0.00  0.00    +0.000 A 
ATOM      3  C   UNL     1       5.212   5.187  19.106  0.00  0.00    +0.000 A 
ATOM      4  C   UNL     1       6.552   5.514  19.346  0.00  0.00    +0.000 A 
ATOM      5  C   UNL     1       7.267   6.287  18.432  0.00  0.00    +0.000 A 
ATOM      6  C   UNL     1       6.661   6.696  17.249  0.00  0.00    +0.000 A 
ATOM      7  C   UNL     1       5.320   6.391  17.014  0.00  0.00    +0.000 A 
ENDBRANCH   1   2
BRANCH   1   8
ATOM      8  N   UNL     1       2.544   6.834  18.731  0.00  0.00    +0.000 N 
ATOM      9  C   UNL     1       2.257   8.058  18.178  0.00  0.00    +0.000 C 
ATOM     10  O   UNL     1       2.580   8.366  17.035  0.00  0.00    +0.000 OA
ATOM     11  H   UNL     1       1.906   6.557  19.471  0.00  0.00    +0.000 HD
BRANCH   9  12
ATOM     12  C   UNL     1       1.459   8.980  19.055  0.00  0.00    +0.000 A 
ATOM     13  C   UNL     1       1.327   8.701  20.411  0.00  0.00    +0.000 A 
ATOM     14  C   UNL     1       0.573   9.557  21.223  0.00  0.00    +0.000 A 
ATOM     15  C   UNL     1      -0.069  10.691  20.698  0.00  0.00    +0.000 A 
ATOM     16  C   UNL     1       0.066  10.983  19.328  0.00  0.00    +0.000 A 
ATOM     17  C   UNL     1       0.839  10.124  18.521  0.00  0.00    +0.000 A 
BRANCH  15  18
ATOM     18  O   UNL     1      -0.768  11.380  21.656  0.00  0.00    +0.000 OA
ATOM     19  C   UNL     1      -0.321  12.668  22.058  0.00  0.00    +0.000 C 
ENDBRANCH  15  18
BRANCH  16  20
ATOM     20  O   UNL     1      -0.577  12.087  18.836  0.00  0.00    +0.000 OA
ATOM     21  C   UNL     1      -1.733  11.902  18.029  0.00  0.00    +0.000 C 
ENDBRANCH  16  20
ENDBRANCH   9  12
ENDBRANCH   1   8
BRANCH   1  22
ATOM     22  P   UNL     1       2.174   4.103  18.203  0.00  0.00    +0.000 P 
ATOM     23  O   UNL     1       1.104   4.426  17.130  0.00  0.00    +0.000 OA
BRANCH  22  24
ATOM     24  O   UNL     1       1.381   2.594  18.496  0.00  0.00    +0.000 OA
BRANCH  24  26
ATOM     25  C   UNL     1       3.593   1.832  18.108  0.00  0.00    +0.000 C 
ATOM     26  C   UNL     1       2.219   1.458  18.635  0.00  0.00    +0.000 C 
ENDBRANCH  24  26
ENDBRANCH  22  24
BRANCH  22  27
ATOM     27  O   UNL     1       1.484   4.657  19.598  0.00  0.00    +0.000 OA
BRANCH  27  28
ATOM     28  C   UNL     1       1.148   3.898  20.736  0.00  0.00    +0.000 C 
ATOM     29  C   UNL     1       2.302   3.637  21.677  0.00  0.00    +0.000 C 
ENDBRANCH  27  28
ENDBRANCH  22  27
ENDBRANCH   1  22
TORSDOF 10
ENDMDL
