MODEL 1
REMARK VINA RESULT:      -6.3      0.000      0.000
REMARK  Name = 
REMARK  9 active torsions:
REMARK  status: ('A' for Active; 'I' for Inactive)
REMARK    1  A    between atoms: C_1  and  O_2
REMARK    2  A    between atoms: O_2  and  C_3
REMARK    3  A    between atoms: C_8  and  C_9
REMARK    4  A    between atoms: C_10  and  S_11
REMARK    5  A    between atoms: S_11  and  C_14
REMARK    6  A    between atoms: C_14  and  C_15
REMARK    7  A    between atoms: C_14  and  C_16
REMARK    8  A    between atoms: N_21  and  C_22
REMARK    9  A    between atoms: C_25  and  C_26
REMARK                            x       y       z     vdW  Elec       q    Type
REMARK                         _______ _______ _______ _____ _____    ______ ____
ROOT
ATOM      1  C   UNL     1       1.051  12.888  20.952  0.00  0.00    +0.000 C 
ATOM      2  C   UNL     1       2.427  13.561  20.615  0.00  0.00    +0.000 C 
ATOM      3  C   UNL     1       2.389  14.751  21.510  0.00  0.00    +0.000 C 
ATOM      4  O   UNL     1       3.349  15.461  21.777  0.00  0.00    +0.000 OA
ATOM      5  C   UNL     1       0.977  14.965  22.068  0.00  0.00    +0.000 C 
ATOM      6  O   UNL     1       0.668  15.924  22.752  0.00  0.00    +0.000 OA
ATOM      7  N   UNL     1       0.234  13.892  21.650  0.00  0.00    +0.000 N 
ENDROOT
BRANCH   1  13
ATOM      8  C   UNL     1       0.062  10.740  19.936  0.00  0.00    +0.000 A 
ATOM      9  C   UNL     1      -0.887  10.142  19.090  0.00  0.00    +0.000 A 
ATOM     10  C   UNL     1      -1.606  10.900  18.164  0.00  0.00    +0.000 A 
ATOM     11  C   UNL     1      -1.410  12.267  18.092  0.00  0.00    +0.000 A 
ATOM     12  C   UNL     1      -0.523  12.874  18.967  0.00  0.00    +0.000 A 
ATOM     13  C   UNL     1       0.242  12.141  19.895  0.00  0.00    +0.000 A 
BRANCH   8  15
ATOM     14  C   UNL     1       0.108   9.202  21.770  0.00  0.00    +0.000 C 
ATOM     15  O   UNL     1       0.807  10.042  20.853  0.00  0.00    +0.000 OA
ENDBRANCH   8  15
ENDBRANCH   1  13
BRANCH   7  16
ATOM     16  C   UNL     1      -1.123  13.673  22.021  0.00  0.00    +0.000 A 
ATOM     17  C   UNL     1      -2.100  14.512  21.480  0.00  0.00    +0.000 A 
ATOM     18  C   UNL     1      -3.466  14.233  21.635  0.00  0.00    +0.000 A 
ATOM     19  C   UNL     1      -3.904  13.146  22.402  0.00  0.00    +0.000 A 
ATOM     20  C   UNL     1      -2.922  12.341  23.003  0.00  0.00    +0.000 A 
ATOM     21  C   UNL     1      -1.540  12.593  22.805  0.00  0.00    +0.000 A 
BRANCH  19  22
ATOM     22  C   UNL     1      -5.344  12.856  22.544  0.00  0.00    +0.000 A 
ATOM     23  C   UNL     1      -6.135  12.838  23.750  0.00  0.00    +0.000 A 
ATOM     24  C   UNL     1      -7.453  12.507  23.529  0.00  0.00    +0.000 A 
ATOM     25  S   UNL     1      -7.772  12.213  21.878  0.00  0.00    +0.000 S 
ATOM     26  C   UNL     1      -6.142  12.534  21.459  0.00  0.00    +0.000 A 
ENDBRANCH  19  22
ENDBRANCH   7  16
BRANCH   2  27
ATOM     27  S   UNL     1       2.722  14.120  18.954  0.00  0.00    +0.000 S 
ATOM     28  O   UNL     1       2.919  12.928  18.146  0.00  0.00    +0.000 OA
ATOM     29  O   UNL     1       1.662  15.057  18.629  0.00  0.00    +0.000 OA
BRANCH  27  30
ATOM     30  C   UNL     1       4.264  15.078  18.821  0.00  0.00    +0.000 C 
ATOM     31  C   UNL     1       5.311  14.454  17.910  0.00  0.00    +0.000 C 
ATOM     32  C   UNL     1       3.935  16.486  18.285  0.00  0.00    +0.000 C 
ENDBRANCH  27  30
ENDBRANCH   2  27
TORSDOF 6
ENDMDL
MODEL 2
REMARK VINA RESULT:      -5.7      0.899      1.082
REMARK  Name = 
REMARK  9 active torsions:
REMARK  status: ('A' for Active; 'I' for Inactive)
REMARK    1  A    between atoms: C_1  and  O_2
REMARK    2  A    between atoms: O_2  and  C_3
REMARK    3  A    between atoms: C_8  and  C_9
REMARK    4  A    between atoms: C_10  and  S_11
REMARK    5  A    between atoms: S_11  and  C_14
REMARK    6  A    between atoms: C_14  and  C_15
REMARK    7  A    between atoms: C_14  and  C_16
REMARK    8  A    between atoms: N_21  and  C_22
REMARK    9  A    between atoms: C_25  and  C_26
REMARK                            x       y       z     vdW  Elec       q    Type
REMARK                         _______ _______ _______ _____ _____    ______ ____
ROOT
ATOM      1  C   UNL     1       1.119  12.848  20.886  0.00  0.00    +0.000 C 
ATOM      2  C   UNL     1       2.496  13.510  20.533  0.00  0.00    +0.000 C 
ATOM      3  C   UNL     1       2.528  14.639  21.504  0.00  0.00    +0.000 C 
ATOM      4  O   UNL     1       3.516  15.307  21.773  0.00  0.00    +0.000 OA
ATOM      5  C   UNL     1       1.147  14.847  22.138  0.00  0.00    +0.000 C 
ATOM      6  O   UNL     1       0.893  15.766  22.897  0.00  0.00    +0.000 OA
ATOM      7  N   UNL     1       0.359  13.822  21.685  0.00  0.00    +0.000 N 
ENDROOT
BRANCH   1  13
ATOM      8  C   UNL     1       0.230  10.794  19.615  0.00  0.00    +0.000 A 
ATOM      9  C   UNL     1      -0.764  10.228  18.801  0.00  0.00    +0.000 A 
ATOM     10  C   UNL     1      -1.696  11.029  18.137  0.00  0.00    +0.000 A 
ATOM     11  C   UNL     1      -1.665  12.402  18.303  0.00  0.00    +0.000 A 
ATOM     12  C   UNL     1      -0.728  12.964  19.155  0.00  0.00    +0.000 A 
ATOM     13  C   UNL     1       0.246  12.192  19.819  0.00  0.00    +0.000 A 
BRANCH   8  15
ATOM     14  C   UNL     1       0.743   8.881  20.960  0.00  0.00    +0.000 C 
ATOM     15  O   UNL     1       1.179  10.056  20.277  0.00  0.00    +0.000 OA
ENDBRANCH   8  15
ENDBRANCH   1  13
BRANCH   7  16
ATOM     16  C   UNL     1      -0.986  13.610  22.100  0.00  0.00    +0.000 A 
ATOM     17  C   UNL     1      -1.954  14.534  21.703  0.00  0.00    +0.000 A 
ATOM     18  C   UNL     1      -3.321  14.286  21.900  0.00  0.00    +0.000 A 
ATOM     19  C   UNL     1      -3.763  13.138  22.569  0.00  0.00    +0.000 A 
ATOM     20  C   UNL     1      -2.785  12.241  23.029  0.00  0.00    +0.000 A 
ATOM     21  C   UNL     1      -1.406  12.466  22.787  0.00  0.00    +0.000 A 
BRANCH  19  22
ATOM     22  C   UNL     1      -5.205  12.883  22.754  0.00  0.00    +0.000 A 
ATOM     23  C   UNL     1      -5.952  12.848  23.988  0.00  0.00    +0.000 A 
ATOM     24  C   UNL     1      -7.286  12.560  23.805  0.00  0.00    +0.000 A 
ATOM     25  S   UNL     1      -7.672  12.327  22.159  0.00  0.00    +0.000 S 
ATOM     26  C   UNL     1      -6.050  12.617  21.690  0.00  0.00    +0.000 A 
ENDBRANCH  19  22
ENDBRANCH   7  16
BRANCH   2  27
ATOM     27  S   UNL     1       2.733  14.172  18.899  0.00  0.00    +0.000 S 
ATOM     28  O   UNL     1       4.168  14.203  18.671  0.00  0.00    +0.000 OA
ATOM     29  O   UNL     1       1.866  13.422  18.010  0.00  0.00    +0.000 OA
BRANCH  27  30
ATOM     30  C   UNL     1       2.166  15.897  18.775  0.00  0.00    +0.000 C 
ATOM     31  C   UNL     1       2.788  16.679  17.627  0.00  0.00    +0.000 C 
ATOM     32  C   UNL     1       0.635  15.911  18.594  0.00  0.00    +0.000 C 
ENDBRANCH  27  30
ENDBRANCH   2  27
TORSDOF 6
ENDMDL
MODEL 3
REMARK VINA RESULT:      -5.5      3.088      6.375
REMARK  Name = 
REMARK  9 active torsions:
REMARK  status: ('A' for Active; 'I' for Inactive)
REMARK    1  A    between atoms: C_1  and  O_2
REMARK    2  A    between atoms: O_2  and  C_3
REMARK    3  A    between atoms: C_8  and  C_9
REMARK    4  A    between atoms: C_10  and  S_11
REMARK    5  A    between atoms: S_11  and  C_14
REMARK    6  A    between atoms: C_14  and  C_15
REMARK    7  A    between atoms: C_14  and  C_16
REMARK    8  A    between atoms: N_21  and  C_22
REMARK    9  A    between atoms: C_25  and  C_26
REMARK                            x       y       z     vdW  Elec       q    Type
REMARK                         _______ _______ _______ _____ _____    ______ ____
ROOT
ATOM      1  C   UNL     1      -0.141  13.508  22.222  0.00  0.00    +0.000 C 
ATOM      2  C   UNL     1      -1.139  14.608  22.725  0.00  0.00    +0.000 C 
ATOM      3  C   UNL     1      -2.165  13.772  23.407  0.00  0.00    +0.000 C 
ATOM      4  O   UNL     1      -3.030  14.196  24.162  0.00  0.00    +0.000 OA
ATOM      5  C   UNL     1      -1.988  12.292  23.044  0.00  0.00    +0.000 C 
ATOM      6  O   UNL     1      -2.759  11.421  23.403  0.00  0.00    +0.000 OA
ATOM      7  N   UNL     1      -0.841  12.217  22.299  0.00  0.00    +0.000 N 
ENDROOT
BRANCH   1  13
ATOM      8  C   UNL     1       2.018  13.879  20.872  0.00  0.00    +0.000 A 
ATOM      9  C   UNL     1       2.702  13.760  19.651  0.00  0.00    +0.000 A 
ATOM     10  C   UNL     1       2.018  13.492  18.464  0.00  0.00    +0.000 A 
ATOM     11  C   UNL     1       0.647  13.307  18.486  0.00  0.00    +0.000 A 
ATOM     12  C   UNL     1      -0.027  13.359  19.696  0.00  0.00    +0.000 A 
ATOM     13  C   UNL     1       0.624  13.656  20.909  0.00  0.00    +0.000 A 
BRANCH   8  15
ATOM     14  C   UNL     1       3.950  14.717  22.012  0.00  0.00    +0.000 C 
ATOM     15  O   UNL     1       2.638  14.158  22.064  0.00  0.00    +0.000 OA
ENDBRANCH   8  15
ENDBRANCH   1  13
BRANCH   7  16
ATOM     16  C   UNL     1      -0.282  10.996  21.824  0.00  0.00    +0.000 A 
ATOM     17  C   UNL     1      -0.548  10.615  20.508  0.00  0.00    +0.000 A 
ATOM     18  C   UNL     1       0.128   9.540  19.910  0.00  0.00    +0.000 A 
ATOM     19  C   UNL     1       1.041   8.762  20.634  0.00  0.00    +0.000 A 
ATOM     20  C   UNL     1       1.257   9.104  21.979  0.00  0.00    +0.000 A 
ATOM     21  C   UNL     1       0.612  10.220  22.569  0.00  0.00    +0.000 A 
BRANCH  19  22
ATOM     22  C   UNL     1       1.755   7.645  19.988  0.00  0.00    +0.000 A 
ATOM     23  C   UNL     1       2.408   7.629  18.702  0.00  0.00    +0.000 A 
ATOM     24  C   UNL     1       2.965   6.408  18.391  0.00  0.00    +0.000 A 
ATOM     25  S   UNL     1       2.719   5.259  19.627  0.00  0.00    +0.000 S 
ATOM     26  C   UNL     1       1.870   6.399  20.583  0.00  0.00    +0.000 A 
ENDBRANCH  19  22
ENDBRANCH   7  16
BRANCH   2  27
ATOM     27  S   UNL     1      -1.959  15.632  21.525  0.00  0.00    +0.000 S 
ATOM     28  O   UNL     1      -2.748  14.740  20.692  0.00  0.00    +0.000 OA
ATOM     29  O   UNL     1      -2.600  16.709  22.257  0.00  0.00    +0.000 OA
BRANCH  27  30
ATOM     30  C   UNL     1      -0.779  16.450  20.408  0.00  0.00    +0.000 C 
ATOM     31  C   UNL     1      -1.429  17.279  19.310  0.00  0.00    +0.000 C 
ATOM     32  C   UNL     1       0.135  17.378  21.234  0.00  0.00    +0.000 C 
ENDBRANCH  27  30
ENDBRANCH   2  27
TORSDOF 6
ENDMDL
MODEL 4
REMARK VINA RESULT:      -5.5      2.974      6.616
REMARK  Name = 
REMARK  9 active torsions:
REMARK  status: ('A' for Active; 'I' for Inactive)
REMARK    1  A    between atoms: C_1  and  O_2
REMARK    2  A    between atoms: O_2  and  C_3
REMARK    3  A    between atoms: C_8  and  C_9
REMARK    4  A    between atoms: C_10  and  S_11
REMARK    5  A    between atoms: S_11  and  C_14
REMARK    6  A    between atoms: C_14  and  C_15
REMARK    7  A    between atoms: C_14  and  C_16
REMARK    8  A    between atoms: N_21  and  C_22
REMARK    9  A    between atoms: C_25  and  C_26
REMARK                            x       y       z     vdW  Elec       q    Type
REMARK                         _______ _______ _______ _____ _____    ______ ____
ROOT
ATOM      1  C   UNL     1      -0.097  13.481  22.180  0.00  0.00    +0.000 C 
ATOM      2  C   UNL     1      -1.081  14.595  22.679  0.00  0.00    +0.000 C 
ATOM      3  C   UNL     1      -2.098  13.778  23.397  0.00  0.00    +0.000 C 
ATOM      4  O   UNL     1      -2.947  14.220  24.160  0.00  0.00    +0.000 OA
ATOM      5  C   UNL     1      -1.933  12.290  23.062  0.00  0.00    +0.000 C 
ATOM      6  O   UNL     1      -2.700  11.429  23.454  0.00  0.00    +0.000 OA
ATOM      7  N   UNL     1      -0.800  12.194  22.297  0.00  0.00    +0.000 N 
ENDROOT
BRANCH   1  13
ATOM      8  C   UNL     1       2.048  13.723  20.780  0.00  0.00    +0.000 A 
ATOM      9  C   UNL     1       2.692  13.579  19.540  0.00  0.00    +0.000 A 
ATOM     10  C   UNL     1       1.960  13.381  18.367  0.00  0.00    +0.000 A 
ATOM     11  C   UNL     1       0.581  13.293  18.422  0.00  0.00    +0.000 A 
ATOM     12  C   UNL     1      -0.057  13.370  19.650  0.00  0.00    +0.000 A 
ATOM     13  C   UNL     1       0.643  13.598  20.850  0.00  0.00    +0.000 A 
BRANCH   8  15
ATOM     14  C   UNL     1       4.075  14.364  21.882  0.00  0.00    +0.000 C 
ATOM     15  O   UNL     1       2.716  13.936  21.960  0.00  0.00    +0.000 OA
ENDBRANCH   8  15
ENDBRANCH   1  13
BRANCH   7  16
ATOM     16  C   UNL     1      -0.255  10.962  21.837  0.00  0.00    +0.000 A 
ATOM     17  C   UNL     1      -0.538  10.559  20.531  0.00  0.00    +0.000 A 
ATOM     18  C   UNL     1       0.124   9.470  19.945  0.00  0.00    +0.000 A 
ATOM     19  C   UNL     1       1.039   8.699  20.672  0.00  0.00    +0.000 A 
ATOM     20  C   UNL     1       1.274   9.062  22.008  0.00  0.00    +0.000 A 
ATOM     21  C   UNL     1       0.643  10.193  22.586  0.00  0.00    +0.000 A 
BRANCH  19  22
ATOM     22  C   UNL     1       1.739   7.565  20.037  0.00  0.00    +0.000 A 
ATOM     23  C   UNL     1       1.895   6.221  20.537  0.00  0.00    +0.000 A 
ATOM     24  C   UNL     1       2.628   5.412  19.698  0.00  0.00    +0.000 A 
ATOM     25  S   UNL     1       3.144   6.241  18.298  0.00  0.00    +0.000 S 
ATOM     26  C   UNL     1       2.380   7.684  18.815  0.00  0.00    +0.000 A 
ENDBRANCH  19  22
ENDBRANCH   7  16
BRANCH   2  27
ATOM     27  S   UNL     1      -1.921  15.597  21.474  0.00  0.00    +0.000 S 
ATOM     28  O   UNL     1      -0.892  16.345  20.771  0.00  0.00    +0.000 OA
ATOM     29  O   UNL     1      -2.815  14.717  20.743  0.00  0.00    +0.000 OA
BRANCH  27  30
ATOM     30  C   UNL     1      -3.002  16.836  22.252  0.00  0.00    +0.000 C 
ATOM     31  C   UNL     1      -2.705  18.271  21.842  0.00  0.00    +0.000 C 
ATOM     32  C   UNL     1      -4.468  16.524  21.888  0.00  0.00    +0.000 C 
ENDBRANCH  27  30
ENDBRANCH   2  27
TORSDOF 6
ENDMDL
MODEL 5
REMARK VINA RESULT:      -5.5      8.158     11.291
REMARK  Name = 
REMARK  9 active torsions:
REMARK  status: ('A' for Active; 'I' for Inactive)
REMARK    1  A    between atoms: C_1  and  O_2
REMARK    2  A    between atoms: O_2  and  C_3
REMARK    3  A    between atoms: C_8  and  C_9
REMARK    4  A    between atoms: C_10  and  S_11
REMARK    5  A    between atoms: S_11  and  C_14
REMARK    6  A    between atoms: C_14  and  C_15
REMARK    7  A    between atoms: C_14  and  C_16
REMARK    8  A    between atoms: N_21  and  C_22
REMARK    9  A    between atoms: C_25  and  C_26
REMARK                            x       y       z     vdW  Elec       q    Type
REMARK                         _______ _______ _______ _____ _____    ______ ____
ROOT
ATOM      1  C   UNL     1       9.199  15.036  19.083  0.00  0.00    +0.000 C 
ATOM      2  C   UNL     1      10.038  16.360  19.082  0.00  0.00    +0.000 C 
ATOM      3  C   UNL     1      10.896  16.155  17.883  0.00  0.00    +0.000 C 
ATOM      4  O   UNL     1      11.558  17.025  17.334  0.00  0.00    +0.000 OA
ATOM      5  C   UNL     1      10.830  14.696  17.413  0.00  0.00    +0.000 C 
ATOM      6  O   UNL     1      11.514  14.256  16.506  0.00  0.00    +0.000 OA
ATOM      7  N   UNL     1       9.885  14.085  18.194  0.00  0.00    +0.000 N 
ENDROOT
BRANCH   1  13
ATOM      8  C   UNL     1       7.436  14.498  20.880  0.00  0.00    +0.000 A 
ATOM      9  C   UNL     1       7.013  13.671  21.933  0.00  0.00    +0.000 A 
ATOM     10  C   UNL     1       7.891  12.771  22.539  0.00  0.00    +0.000 A 
ATOM     11  C   UNL     1       9.191  12.662  22.081  0.00  0.00    +0.000 A 
ATOM     12  C   UNL     1       9.599  13.428  21.000  0.00  0.00    +0.000 A 
ATOM     13  C   UNL     1       8.752  14.368  20.381  0.00  0.00    +0.000 A 
BRANCH   8  15
ATOM     14  C   UNL     1       5.297  15.569  20.768  0.00  0.00    +0.000 C 
ATOM     15  O   UNL     1       6.621  15.412  20.259  0.00  0.00    +0.000 OA
ENDBRANCH   8  15
ENDBRANCH   1  13
BRANCH   7  16
ATOM     16  C   UNL     1       9.469  12.733  18.027  0.00  0.00    +0.000 A 
ATOM     17  C   UNL     1      10.269  11.724  18.566  0.00  0.00    +0.000 A 
ATOM     18  C   UNL     1       9.825  10.394  18.619  0.00  0.00    +0.000 A 
ATOM     19  C   UNL     1       8.595  10.015  18.066  0.00  0.00    +0.000 A 
ATOM     20  C   UNL     1       7.821  11.019  17.463  0.00  0.00    +0.000 A 
ATOM     21  C   UNL     1       8.246  12.372  17.453  0.00  0.00    +0.000 A 
BRANCH  19  22
ATOM     22  C   UNL     1       8.135   8.615  18.144  0.00  0.00    +0.000 A 
ATOM     23  C   UNL     1       8.562   7.586  19.059  0.00  0.00    +0.000 A 
ATOM     24  C   UNL     1       7.941   6.375  18.842  0.00  0.00    +0.000 A 
ATOM     25  S   UNL     1       6.838   6.446  17.543  0.00  0.00    +0.000 S 
ATOM     26  C   UNL     1       7.188   8.101  17.274  0.00  0.00    +0.000 A 
ENDBRANCH  19  22
ENDBRANCH   7  16
BRANCH   2  27
ATOM     27  S   UNL     1      11.093  16.706  20.471  0.00  0.00    +0.000 S 
ATOM     28  O   UNL     1      11.967  15.555  20.622  0.00  0.00    +0.000 OA
ATOM     29  O   UNL     1      11.653  18.028  20.257  0.00  0.00    +0.000 OA
BRANCH  27  30
ATOM     30  C   UNL     1      10.154  16.832  22.025  0.00  0.00    +0.000 C 
ATOM     31  C   UNL     1      10.898  16.319  23.249  0.00  0.00    +0.000 C 
ATOM     32  C   UNL     1       9.783  18.309  22.270  0.00  0.00    +0.000 C 
ENDBRANCH  27  30
ENDBRANCH   2  27
TORSDOF 6
ENDMDL
MODEL 6
REMARK VINA RESULT:      -5.5      8.160     10.370
REMARK  Name = 
REMARK  9 active torsions:
REMARK  status: ('A' for Active; 'I' for Inactive)
REMARK    1  A    between atoms: C_1  and  O_2
REMARK    2  A    between atoms: O_2  and  C_3
REMARK    3  A    between atoms: C_8  and  C_9
REMARK    4  A    between atoms: C_10  and  S_11
REMARK    5  A    between atoms: S_11  and  C_14
REMARK    6  A    between atoms: C_14  and  C_15
REMARK    7  A    between atoms: C_14  and  C_16
REMARK    8  A    between atoms: N_21  and  C_22
REMARK    9  A    between atoms: C_25  and  C_26
REMARK                            x       y       z     vdW  Elec       q    Type
REMARK                         _______ _______ _______ _____ _____    ______ ____
ROOT
ATOM      1  C   UNL     1       8.740  14.234  20.103  0.00  0.00    +0.000 C 
ATOM      2  C   UNL     1       9.538  14.110  18.759  0.00  0.00    +0.000 C 
ATOM      3  C   UNL     1       9.643  12.630  18.625  0.00  0.00    +0.000 C 
ATOM      4  O   UNL     1       9.981  12.038  17.609  0.00  0.00    +0.000 OA
ATOM      5  C   UNL     1       9.256  11.938  19.938  0.00  0.00    +0.000 C 
ATOM      6  O   UNL     1       9.348  10.736  20.111  0.00  0.00    +0.000 OA
ATOM      7  N   UNL     1       8.811  12.927  20.775  0.00  0.00    +0.000 N 
ENDROOT
BRANCH   1  13
ATOM      8  C   UNL     1       8.107  16.486  21.176  0.00  0.00    +0.000 A 
ATOM      9  C   UNL     1       8.241  17.380  22.250  0.00  0.00    +0.000 A 
ATOM     10  C   UNL     1       9.267  17.234  23.186  0.00  0.00    +0.000 A 
ATOM     11  C   UNL     1      10.151  16.176  23.079  0.00  0.00    +0.000 A 
ATOM     12  C   UNL     1       9.987  15.253  22.059  0.00  0.00    +0.000 A 
ATOM     13  C   UNL     1       8.983  15.382  21.079  0.00  0.00    +0.000 A 
BRANCH   8  15
ATOM     14  C   UNL     1       5.774  16.440  20.640  0.00  0.00    +0.000 C 
ATOM     15  O   UNL     1       7.129  16.592  20.219  0.00  0.00    +0.000 OA
ENDBRANCH   8  15
ENDBRANCH   1  13
BRANCH   7  16
ATOM     16  C   UNL     1       8.286  12.690  22.077  0.00  0.00    +0.000 A 
ATOM     17  C   UNL     1       6.923  12.902  22.290  0.00  0.00    +0.000 A 
ATOM     18  C   UNL     1       6.301  12.497  23.480  0.00  0.00    +0.000 A 
ATOM     19  C   UNL     1       7.036  11.933  24.531  0.00  0.00    +0.000 A 
ATOM     20  C   UNL     1       8.420  11.783  24.343  0.00  0.00    +0.000 A 
ATOM     21  C   UNL     1       9.042  12.145  23.121  0.00  0.00    +0.000 A 
BRANCH  19  22
ATOM     22  C   UNL     1       6.365  11.499  25.771  0.00  0.00    +0.000 A 
ATOM     23  C   UNL     1       6.837  11.619  27.129  0.00  0.00    +0.000 A 
ATOM     24  C   UNL     1       5.966  11.087  28.054  0.00  0.00    +0.000 A 
ATOM     25  S   UNL     1       4.570  10.436  27.320  0.00  0.00    +0.000 S 
ATOM     26  C   UNL     1       5.131  10.870  25.761  0.00  0.00    +0.000 A 
ENDBRANCH  19  22
ENDBRANCH   7  16
BRANCH   2  27
ATOM     27  S   UNL     1      11.176  14.796  18.670  0.00  0.00    +0.000 S 
ATOM     28  O   UNL     1      11.928  14.214  19.770  0.00  0.00    +0.000 OA
ATOM     29  O   UNL     1      11.631  14.627  17.302  0.00  0.00    +0.000 OA
BRANCH  27  30
ATOM     30  C   UNL     1      11.178  16.593  18.955  0.00  0.00    +0.000 C 
ATOM     31  C   UNL     1      12.326  17.088  19.822  0.00  0.00    +0.000 C 
ATOM     32  C   UNL     1      11.253  17.317  17.596  0.00  0.00    +0.000 C 
ENDBRANCH  27  30
ENDBRANCH   2  27
TORSDOF 6
ENDMDL
MODEL 7
REMARK VINA RESULT:      -5.4      5.321      8.766
REMARK  Name = 
REMARK  9 active torsions:
REMARK  status: ('A' for Active; 'I' for Inactive)
REMARK    1  A    between atoms: C_1  and  O_2
REMARK    2  A    between atoms: O_2  and  C_3
REMARK    3  A    between atoms: C_8  and  C_9
REMARK    4  A    between atoms: C_10  and  S_11
REMARK    5  A    between atoms: S_11  and  C_14
REMARK    6  A    between atoms: C_14  and  C_15
REMARK    7  A    between atoms: C_14  and  C_16
REMARK    8  A    between atoms: N_21  and  C_22
REMARK    9  A    between atoms: C_25  and  C_26
REMARK                            x       y       z     vdW  Elec       q    Type
REMARK                         _______ _______ _______ _____ _____    ______ ____
ROOT
ATOM      1  C   UNL     1       8.987  15.232  20.461  0.00  0.00    +0.000 C 
ATOM      2  C   UNL     1      10.174  16.248  20.581  0.00  0.00    +0.000 C 
ATOM      3  C   UNL     1       9.441  17.545  20.585  0.00  0.00    +0.000 C 
ATOM      4  O   UNL     1       9.923  18.625  20.897  0.00  0.00    +0.000 OA
ATOM      5  C   UNL     1       7.983  17.344  20.152  0.00  0.00    +0.000 C 
ATOM      6  O   UNL     1       7.203  18.265  19.989  0.00  0.00    +0.000 OA
ATOM      7  N   UNL     1       7.804  15.992  20.028  0.00  0.00    +0.000 N 
ENDROOT
BRANCH   1  13
ATOM      8  C   UNL     1       9.414  12.697  20.336  0.00  0.00    +0.000 A 
ATOM      9  C   UNL     1       9.286  11.495  19.621  0.00  0.00    +0.000 A 
ATOM     10  C   UNL     1       8.944  11.494  18.267  0.00  0.00    +0.000 A 
ATOM     11  C   UNL     1       8.695  12.691  17.619  0.00  0.00    +0.000 A 
ATOM     12  C   UNL     1       8.756  13.877  18.333  0.00  0.00    +0.000 A 
ATOM     13  C   UNL     1       9.125  13.921  19.692  0.00  0.00    +0.000 A 
BRANCH   8  15
ATOM     14  C   UNL     1       8.778  12.372  22.621  0.00  0.00    +0.000 C 
ATOM     15  O   UNL     1       9.762  12.757  21.662  0.00  0.00    +0.000 OA
ENDBRANCH   8  15
ENDBRANCH   1  13
BRANCH   7  16
ATOM     16  C   UNL     1       6.557  15.381  19.711  0.00  0.00    +0.000 A 
ATOM     17  C   UNL     1       5.790  14.862  20.755  0.00  0.00    +0.000 A 
ATOM     18  C   UNL     1       4.470  14.434  20.546  0.00  0.00    +0.000 A 
ATOM     19  C   UNL     1       3.898  14.440  19.268  0.00  0.00    +0.000 A 
ATOM     20  C   UNL     1       4.693  14.899  18.205  0.00  0.00    +0.000 A 
ATOM     21  C   UNL     1       6.009  15.379  18.423  0.00  0.00    +0.000 A 
BRANCH  19  22
ATOM     22  C   UNL     1       2.503  14.001  19.066  0.00  0.00    +0.000 A 
ATOM     23  C   UNL     1       2.019  12.670  18.794  0.00  0.00    +0.000 A 
ATOM     24  C   UNL     1       0.652  12.612  18.638  0.00  0.00    +0.000 A 
ATOM     25  S   UNL     1      -0.079  14.144  18.813  0.00  0.00    +0.000 S 
ATOM     26  C   UNL     1       1.438  14.885  19.103  0.00  0.00    +0.000 A 
ENDBRANCH  19  22
ENDBRANCH   7  16
BRANCH   2  27
ATOM     27  S   UNL     1      11.391  16.299  19.287  0.00  0.00    +0.000 S 
ATOM     28  O   UNL     1      12.332  17.347  19.645  0.00  0.00    +0.000 OA
ATOM     29  O   UNL     1      11.853  14.937  19.089  0.00  0.00    +0.000 OA
BRANCH  27  30
ATOM     30  C   UNL     1      10.669  16.794  17.691  0.00  0.00    +0.000 C 
ATOM     31  C   UNL     1      10.971  18.229  17.286  0.00  0.00    +0.000 C 
ATOM     32  C   UNL     1      11.202  15.859  16.587  0.00  0.00    +0.000 C 
ENDBRANCH  27  30
ENDBRANCH   2  27
TORSDOF 6
ENDMDL
MODEL 8
REMARK VINA RESULT:      -5.4      2.408      7.692
REMARK  Name = 
REMARK  9 active torsions:
REMARK  status: ('A' for Active; 'I' for Inactive)
REMARK    1  A    between atoms: C_1  and  O_2
REMARK    2  A    between atoms: O_2  and  C_3
REMARK    3  A    between atoms: C_8  and  C_9
REMARK    4  A    between atoms: C_10  and  S_11
REMARK    5  A    between atoms: S_11  and  C_14
REMARK    6  A    between atoms: C_14  and  C_15
REMARK    7  A    between atoms: C_14  and  C_16
REMARK    8  A    between atoms: N_21  and  C_22
REMARK    9  A    between atoms: C_25  and  C_26
REMARK                            x       y       z     vdW  Elec       q    Type
REMARK                         _______ _______ _______ _____ _____    ______ ____
ROOT
ATOM      1  C   UNL     1      -2.046  13.967  20.507  0.00  0.00    +0.000 C 
ATOM      2  C   UNL     1      -3.378  14.440  21.184  0.00  0.00    +0.000 C 
ATOM      3  C   UNL     1      -3.034  15.844  21.543  0.00  0.00    +0.000 C 
ATOM      4  O   UNL     1      -3.838  16.700  21.885  0.00  0.00    +0.000 OA
ATOM      5  C   UNL     1      -1.524  16.081  21.414  0.00  0.00    +0.000 C 
ATOM      6  O   UNL     1      -0.983  17.123  21.738  0.00  0.00    +0.000 OA
ATOM      7  N   UNL     1      -1.001  14.934  20.877  0.00  0.00    +0.000 N 
ENDROOT
BRANCH   1  13
ATOM      8  C   UNL     1      -1.502  11.653  19.521  0.00  0.00    +0.000 A 
ATOM      9  C   UNL     1      -0.811  10.435  19.634  0.00  0.00    +0.000 A 
ATOM     10  C   UNL     1      -0.229  10.047  20.842  0.00  0.00    +0.000 A 
ATOM     11  C   UNL     1      -0.301  10.883  21.942  0.00  0.00    +0.000 A 
ATOM     12  C   UNL     1      -0.925  12.114  21.821  0.00  0.00    +0.000 A 
ATOM     13  C   UNL     1      -1.549  12.529  20.628  0.00  0.00    +0.000 A 
BRANCH   8  15
ATOM     14  C   UNL     1      -3.015  11.179  17.726  0.00  0.00    +0.000 C 
ATOM     15  O   UNL     1      -2.106  12.077  18.364  0.00  0.00    +0.000 OA
ENDBRANCH   8  15
ENDBRANCH   1  13
BRANCH   7  16
ATOM     16  C   UNL     1       0.370  14.774  20.530  0.00  0.00    +0.000 A 
ATOM     17  C   UNL     1       0.724  14.846  19.181  0.00  0.00    +0.000 A 
ATOM     18  C   UNL     1       2.068  14.901  18.783  0.00  0.00    +0.000 A 
ATOM     19  C   UNL     1       3.108  14.810  19.717  0.00  0.00    +0.000 A 
ATOM     20  C   UNL     1       2.752  14.668  21.068  0.00  0.00    +0.000 A 
ATOM     21  C   UNL     1       1.394  14.663  21.477  0.00  0.00    +0.000 A 
BRANCH  19  22
ATOM     22  C   UNL     1       4.517  14.885  19.285  0.00  0.00    +0.000 A 
ATOM     23  C   UNL     1       5.052  14.704  17.958  0.00  0.00    +0.000 A 
ATOM     24  C   UNL     1       6.424  14.821  17.906  0.00  0.00    +0.000 A 
ATOM     25  S   UNL     1       7.096  15.150  19.440  0.00  0.00    +0.000 S 
ATOM     26  C   UNL     1       5.548  15.140  20.173  0.00  0.00    +0.000 A 
ENDBRANCH  19  22
ENDBRANCH   7  16
BRANCH   2  27
ATOM     27  S   UNL     1      -3.933  13.608  22.654  0.00  0.00    +0.000 S 
ATOM     28  O   UNL     1      -4.091  12.207  22.300  0.00  0.00    +0.000 OA
ATOM     29  O   UNL     1      -3.033  13.997  23.724  0.00  0.00    +0.000 OA
BRANCH  27  30
ATOM     30  C   UNL     1      -5.578  14.182  23.182  0.00  0.00    +0.000 C 
ATOM     31  C   UNL     1      -6.524  14.510  22.035  0.00  0.00    +0.000 C 
ATOM     32  C   UNL     1      -6.235  13.091  24.052  0.00  0.00    +0.000 C 
ENDBRANCH  27  30
ENDBRANCH   2  27
TORSDOF 6
ENDMDL
MODEL 9
REMARK VINA RESULT:      -5.3      1.127      1.495
REMARK  Name = 
REMARK  9 active torsions:
REMARK  status: ('A' for Active; 'I' for Inactive)
REMARK    1  A    between atoms: C_1  and  O_2
REMARK    2  A    between atoms: O_2  and  C_3
REMARK    3  A    between atoms: C_8  and  C_9
REMARK    4  A    between atoms: C_10  and  S_11
REMARK    5  A    between atoms: S_11  and  C_14
REMARK    6  A    between atoms: C_14  and  C_15
REMARK    7  A    between atoms: C_14  and  C_16
REMARK    8  A    between atoms: N_21  and  C_22
REMARK    9  A    between atoms: C_25  and  C_26
REMARK                            x       y       z     vdW  Elec       q    Type
REMARK                         _______ _______ _______ _____ _____    ______ ____
ROOT
ATOM      1  C   UNL     1       1.049  13.663  21.463  0.00  0.00    +0.000 C 
ATOM      2  C   UNL     1       2.429  14.373  21.239  0.00  0.00    +0.000 C 
ATOM      3  C   UNL     1       2.214  15.653  21.969  0.00  0.00    +0.000 C 
ATOM      4  O   UNL     1       3.095  16.444  22.276  0.00  0.00    +0.000 OA
ATOM      5  C   UNL     1       0.729  15.847  22.298  0.00  0.00    +0.000 C 
ATOM      6  O   UNL     1       0.286  16.858  22.811  0.00  0.00    +0.000 OA
ATOM      7  N   UNL     1       0.099  14.691  21.916  0.00  0.00    +0.000 N 
ENDROOT
BRANCH   1  13
ATOM      8  C   UNL     1       0.361  11.352  20.564  0.00  0.00    +0.000 A 
ATOM      9  C   UNL     1      -0.431  10.597  19.684  0.00  0.00    +0.000 A 
ATOM     10  C   UNL     1      -1.096  11.200  18.615  0.00  0.00    +0.000 A 
ATOM     11  C   UNL     1      -1.004  12.568  18.430  0.00  0.00    +0.000 A 
ATOM     12  C   UNL     1      -0.277  13.329  19.331  0.00  0.00    +0.000 A 
ATOM     13  C   UNL     1       0.431  12.754  20.404  0.00  0.00    +0.000 A 
BRANCH   8  15
ATOM     14  C   UNL     1       0.755   9.458  21.975  0.00  0.00    +0.000 C 
ATOM     15  O   UNL     1       1.048  10.810  21.621  0.00  0.00    +0.000 OA
ENDBRANCH   8  15
ENDBRANCH   1  13
BRANCH   7  16
ATOM     16  C   UNL     1      -1.287  14.438  22.121  0.00  0.00    +0.000 A 
ATOM     17  C   UNL     1      -1.652  13.491  23.079  0.00  0.00    +0.000 A 
ATOM     18  C   UNL     1      -2.988  13.336  23.478  0.00  0.00    +0.000 A 
ATOM     19  C   UNL     1      -4.017  14.072  22.876  0.00  0.00    +0.000 A 
ATOM     20  C   UNL     1      -3.657  14.976  21.863  0.00  0.00    +0.000 A 
ATOM     21  C   UNL     1      -2.302  15.169  21.494  0.00  0.00    +0.000 A 
BRANCH  19  22
ATOM     22  C   UNL     1      -5.416  13.909  23.317  0.00  0.00    +0.000 A 
ATOM     23  C   UNL     1      -6.030  12.754  23.923  0.00  0.00    +0.000 A 
ATOM     24  C   UNL     1      -7.369  12.932  24.194  0.00  0.00    +0.000 A 
ATOM     25  S   UNL     1      -7.917  14.480  23.730  0.00  0.00    +0.000 S 
ATOM     26  C   UNL     1      -6.357  14.915  23.170  0.00  0.00    +0.000 A 
ENDBRANCH  19  22
ENDBRANCH   7  16
BRANCH   2  27
ATOM     27  S   UNL     1       2.935  14.754  19.578  0.00  0.00    +0.000 S 
ATOM     28  O   UNL     1       3.073  13.483  18.887  0.00  0.00    +0.000 OA
ATOM     29  O   UNL     1       2.019  15.764  19.079  0.00  0.00    +0.000 OA
BRANCH  27  30
ATOM     30  C   UNL     1       4.578  15.535  19.529  0.00  0.00    +0.000 C 
ATOM     31  C   UNL     1       5.629  14.836  20.380  0.00  0.00    +0.000 C 
ATOM     32  C   UNL     1       5.079  15.561  18.071  0.00  0.00    +0.000 C 
ENDBRANCH  27  30
ENDBRANCH   2  27
TORSDOF 6
ENDMDL
