MODEL 1
REMARK VINA RESULT:      -8.4      0.000      0.000
REMARK  Name = 
REMARK  6 active torsions:
REMARK  status: ('A' for Active; 'I' for Inactive)
REMARK    1  A    between atoms: C_1  and  C_2
REMARK    2  A    between atoms: N_6  and  C_7
REMARK    3  A    between atoms: C_7  and  C_8
REMARK    4  A    between atoms: N_10  and  C_11
REMARK    5  A    between atoms: C_13  and  C_14
REMARK    6  A    between atoms: C_20  and  N_21
REMARK                            x       y       z     vdW  Elec       q    Type
REMARK                         _______ _______ _______ _____ _____    ______ ____
ROOT
ATOM      1  C   UNL     1       2.996   5.376  17.881  0.00  0.00    +0.000 A 
ATOM      2  C   UNL     1       1.931   4.783  18.570  0.00  0.00    +0.000 A 
ATOM      3  C   UNL     1       2.076   3.518  19.147  0.00  0.00    +0.000 A 
ATOM      4  C   UNL     1       3.272   2.823  18.940  0.00  0.00    +0.000 A 
ATOM      5  C   UNL     1       4.326   3.407  18.222  0.00  0.00    +0.000 A 
ATOM      6  C   UNL     1       4.232   4.708  17.704  0.00  0.00    +0.000 A 
ENDROOT
BRANCH   6   7
ATOM      7  N   UNL     1       5.304   5.336  17.085  0.00  0.00    +0.000 N 
ATOM      8  C   UNL     1       5.490   5.288  15.621  0.00  0.00    +0.000 C 
ATOM      9  C   UNL     1       7.009   5.236  15.362  0.00  0.00    +0.000 C 
ATOM     10  O   UNL     1       7.711   6.334  15.985  0.00  0.00    +0.000 OA
ATOM     11  C   UNL     1       7.431   6.415  17.390  0.00  0.00    +0.000 C 
ATOM     12  C   UNL     1       5.921   6.545  17.652  0.00  0.00    +0.000 C 
ENDBRANCH   6   7
BRANCH   1  15
ATOM     13  C   UNL     1       2.492   7.701  18.417  0.00  0.00    +0.000 C 
ATOM     14  O   UNL     1       2.239   7.468  19.599  0.00  0.00    +0.000 OA
ATOM     15  N   UNL     1       2.875   6.736  17.502  0.00  0.00    +0.000 N 
ATOM     16  H   UNL     1       2.635   6.839  16.521  0.00  0.00    +0.000 HD
BRANCH  13  17
ATOM     17  C   UNL     1       2.373   9.105  17.871  0.00  0.00    +0.000 C 
BRANCH  17  23
ATOM     18  C   UNL     1      -2.496   9.889  17.387  0.00  0.00    +0.000 C 
ATOM     19  C   UNL     1      -1.189  10.269  18.021  0.00  0.00    +0.000 A 
ATOM     20  C   UNL     1      -1.081  11.417  18.803  0.00  0.00    +0.000 A 
ATOM     21  C   UNL     1       0.158  11.771  19.318  0.00  0.00    +0.000 A 
ATOM     22  C   UNL     1       1.273  10.993  19.033  0.00  0.00    +0.000 A 
ATOM     23  N   UNL     1       1.164   9.864  18.284  0.00  0.00    +0.000 N 
ATOM     24  C   UNL     1      -0.048   9.494  17.798  0.00  0.00    +0.000 A 
ENDBRANCH  17  23
ENDBRANCH  13  17
ENDBRANCH   1  15
BRANCH   3  25
ATOM     25  C   UNL     1       0.993   2.945  20.028  0.00  0.00    +0.000 C 
ATOM     26  F   UNL     1       0.022   2.297  19.328  0.00  0.00    +0.000 F 
ATOM     27  F   UNL     1       1.469   2.048  20.934  0.00  0.00    +0.000 F 
ATOM     28  F   UNL     1       0.351   3.907  20.744  0.00  0.00    +0.000 F 
ENDBRANCH   3  25
TORSDOF 5
ENDMDL
MODEL 2
REMARK VINA RESULT:      -8.3      0.581      1.311
REMARK  Name = 
REMARK  6 active torsions:
REMARK  status: ('A' for Active; 'I' for Inactive)
REMARK    1  A    between atoms: C_1  and  C_2
REMARK    2  A    between atoms: N_6  and  C_7
REMARK    3  A    between atoms: C_7  and  C_8
REMARK    4  A    between atoms: N_10  and  C_11
REMARK    5  A    between atoms: C_13  and  C_14
REMARK    6  A    between atoms: C_20  and  N_21
REMARK                            x       y       z     vdW  Elec       q    Type
REMARK                         _______ _______ _______ _____ _____    ______ ____
ROOT
ATOM      1  C   UNL     1       3.291   5.173  18.111  0.00  0.00    +0.000 A 
ATOM      2  C   UNL     1       2.165   4.632  18.744  0.00  0.00    +0.000 A 
ATOM      3  C   UNL     1       2.261   3.438  19.465  0.00  0.00    +0.000 A 
ATOM      4  C   UNL     1       3.480   2.752  19.459  0.00  0.00    +0.000 A 
ATOM      5  C   UNL     1       4.597   3.281  18.797  0.00  0.00    +0.000 A 
ATOM      6  C   UNL     1       4.545   4.518  18.136  0.00  0.00    +0.000 A 
ENDROOT
BRANCH   6   7
ATOM      7  N   UNL     1       5.670   5.101  17.569  0.00  0.00    +0.000 N 
ATOM      8  C   UNL     1       6.572   5.968  18.352  0.00  0.00    +0.000 C 
ATOM      9  C   UNL     1       7.083   7.066  17.398  0.00  0.00    +0.000 C 
ATOM     10  O   UNL     1       7.709   6.519  16.216  0.00  0.00    +0.000 OA
ATOM     11  C   UNL     1       6.843   5.602  15.531  0.00  0.00    +0.000 C 
ATOM     12  C   UNL     1       6.392   4.462  16.459  0.00  0.00    +0.000 C 
ENDBRANCH   6   7
BRANCH   1  15
ATOM     13  C   UNL     1       2.715   7.532  18.344  0.00  0.00    +0.000 C 
ATOM     14  O   UNL     1       2.348   7.420  19.515  0.00  0.00    +0.000 OA
ATOM     15  N   UNL     1       3.195   6.483  17.579  0.00  0.00    +0.000 N 
ATOM     16  H   UNL     1       3.053   6.477  16.575  0.00  0.00    +0.000 HD
BRANCH  13  17
ATOM     17  C   UNL     1       2.638   8.868  17.642  0.00  0.00    +0.000 C 
BRANCH  17  23
ATOM     18  C   UNL     1      -2.195   9.956  17.741  0.00  0.00    +0.000 C 
ATOM     19  C   UNL     1      -0.786  10.324  18.107  0.00  0.00    +0.000 A 
ATOM     20  C   UNL     1      -0.494  11.570  18.660  0.00  0.00    +0.000 A 
ATOM     21  C   UNL     1       0.829  11.900  18.922  0.00  0.00    +0.000 A 
ATOM     22  C   UNL     1       1.840  10.999  18.615  0.00  0.00    +0.000 A 
ATOM     23  N   UNL     1       1.553   9.778  18.092  0.00  0.00    +0.000 N 
ATOM     24  C   UNL     1       0.261   9.435  17.856  0.00  0.00    +0.000 A 
ENDBRANCH  17  23
ENDBRANCH  13  17
ENDBRANCH   1  15
BRANCH   3  25
ATOM     25  C   UNL     1       1.096   2.937  20.284  0.00  0.00    +0.000 C 
ATOM     26  F   UNL     1       1.466   2.056  21.253  0.00  0.00    +0.000 F 
ATOM     27  F   UNL     1       0.428   3.938  20.917  0.00  0.00    +0.000 F 
ATOM     28  F   UNL     1       0.177   2.284  19.523  0.00  0.00    +0.000 F 
ENDBRANCH   3  25
TORSDOF 5
ENDMDL
MODEL 3
REMARK VINA RESULT:      -8.1      0.392      1.548
REMARK  Name = 
REMARK  6 active torsions:
REMARK  status: ('A' for Active; 'I' for Inactive)
REMARK    1  A    between atoms: C_1  and  C_2
REMARK    2  A    between atoms: N_6  and  C_7
REMARK    3  A    between atoms: C_7  and  C_8
REMARK    4  A    between atoms: N_10  and  C_11
REMARK    5  A    between atoms: C_13  and  C_14
REMARK    6  A    between atoms: C_20  and  N_21
REMARK                            x       y       z     vdW  Elec       q    Type
REMARK                         _______ _______ _______ _____ _____    ______ ____
ROOT
ATOM      1  C   UNL     1       2.996   5.390  17.865  0.00  0.00    +0.000 A 
ATOM      2  C   UNL     1       1.932   4.808  18.565  0.00  0.00    +0.000 A 
ATOM      3  C   UNL     1       2.065   3.536  19.130  0.00  0.00    +0.000 A 
ATOM      4  C   UNL     1       3.246   2.824  18.898  0.00  0.00    +0.000 A 
ATOM      5  C   UNL     1       4.298   3.398  18.170  0.00  0.00    +0.000 A 
ATOM      6  C   UNL     1       4.218   4.705  17.664  0.00  0.00    +0.000 A 
ENDROOT
BRANCH   6   7
ATOM      7  N   UNL     1       5.290   5.321  17.034  0.00  0.00    +0.000 N 
ATOM      8  C   UNL     1       5.474   5.251  15.571  0.00  0.00    +0.000 C 
ATOM      9  C   UNL     1       6.993   5.192  15.310  0.00  0.00    +0.000 C 
ATOM     10  O   UNL     1       7.698   6.297  15.917  0.00  0.00    +0.000 OA
ATOM     11  C   UNL     1       7.420   6.399  17.321  0.00  0.00    +0.000 C 
ATOM     12  C   UNL     1       5.911   6.536  17.583  0.00  0.00    +0.000 C 
ENDBRANCH   6   7
BRANCH   1  15
ATOM     13  C   UNL     1       2.473   7.709  18.412  0.00  0.00    +0.000 C 
ATOM     14  O   UNL     1       2.174   7.460  19.581  0.00  0.00    +0.000 OA
ATOM     15  N   UNL     1       2.891   6.756  17.500  0.00  0.00    +0.000 N 
ATOM     16  H   UNL     1       2.690   6.872  16.513  0.00  0.00    +0.000 HD
BRANCH  13  17
ATOM     17  C   UNL     1       2.376   9.120  17.881  0.00  0.00    +0.000 C 
BRANCH  17  23
ATOM     18  C   UNL     1       0.347  12.401  20.990  0.00  0.00    +0.000 C 
ATOM     19  C   UNL     1       0.188  11.457  19.834  0.00  0.00    +0.000 A 
ATOM     20  C   UNL     1      -1.073  11.165  19.318  0.00  0.00    +0.000 A 
ATOM     21  C   UNL     1      -1.186  10.236  18.293  0.00  0.00    +0.000 A 
ATOM     22  C   UNL     1      -0.051   9.597  17.811  0.00  0.00    +0.000 A 
ATOM     23  N   UNL     1       1.180   9.895  18.303  0.00  0.00    +0.000 N 
ATOM     24  C   UNL     1       1.305  10.821  19.287  0.00  0.00    +0.000 A 
ENDBRANCH  17  23
ENDBRANCH  13  17
ENDBRANCH   1  15
BRANCH   3  25
ATOM     25  C   UNL     1       0.986   2.972  20.022  0.00  0.00    +0.000 C 
ATOM     26  F   UNL     1       0.342   3.927  20.750  0.00  0.00    +0.000 F 
ATOM     27  F   UNL     1       0.021   2.310  19.328  0.00  0.00    +0.000 F 
ATOM     28  F   UNL     1       1.480   2.088  20.929  0.00  0.00    +0.000 F 
ENDBRANCH   3  25
TORSDOF 5
ENDMDL
MODEL 4
REMARK VINA RESULT:      -8.0      0.739      1.938
REMARK  Name = 
REMARK  6 active torsions:
REMARK  status: ('A' for Active; 'I' for Inactive)
REMARK    1  A    between atoms: C_1  and  C_2
REMARK    2  A    between atoms: N_6  and  C_7
REMARK    3  A    between atoms: C_7  and  C_8
REMARK    4  A    between atoms: N_10  and  C_11
REMARK    5  A    between atoms: C_13  and  C_14
REMARK    6  A    between atoms: C_20  and  N_21
REMARK                            x       y       z     vdW  Elec       q    Type
REMARK                         _______ _______ _______ _____ _____    ______ ____
ROOT
ATOM      1  C   UNL     1       3.312   5.164  18.108  0.00  0.00    +0.000 A 
ATOM      2  C   UNL     1       2.174   4.648  18.740  0.00  0.00    +0.000 A 
ATOM      3  C   UNL     1       2.254   3.477  19.500  0.00  0.00    +0.000 A 
ATOM      4  C   UNL     1       3.470   2.786  19.534  0.00  0.00    +0.000 A 
ATOM      5  C   UNL     1       4.599   3.289  18.873  0.00  0.00    +0.000 A 
ATOM      6  C   UNL     1       4.563   4.505  18.173  0.00  0.00    +0.000 A 
ENDROOT
BRANCH   6   7
ATOM      7  N   UNL     1       5.698   5.065  17.605  0.00  0.00    +0.000 N 
ATOM      8  C   UNL     1       6.643   5.876  18.398  0.00  0.00    +0.000 C 
ATOM      9  C   UNL     1       7.178   6.983  17.468  0.00  0.00    +0.000 C 
ATOM     10  O   UNL     1       7.766   6.450  16.261  0.00  0.00    +0.000 OA
ATOM     11  C   UNL     1       6.858   5.586  15.563  0.00  0.00    +0.000 C 
ATOM     12  C   UNL     1       6.380   4.434  16.464  0.00  0.00    +0.000 C 
ENDBRANCH   6   7
BRANCH   1  15
ATOM     13  C   UNL     1       2.777   7.538  18.268  0.00  0.00    +0.000 C 
ATOM     14  O   UNL     1       2.422   7.471  19.446  0.00  0.00    +0.000 OA
ATOM     15  N   UNL     1       3.231   6.457  17.533  0.00  0.00    +0.000 N 
ATOM     16  H   UNL     1       3.076   6.420  16.531  0.00  0.00    +0.000 HD
BRANCH  13  17
ATOM     17  C   UNL     1       2.712   8.851  17.523  0.00  0.00    +0.000 C 
BRANCH  17  23
ATOM     18  C   UNL     1       1.440  13.087  19.757  0.00  0.00    +0.000 C 
ATOM     19  C   UNL     1       1.022  11.823  19.063  0.00  0.00    +0.000 A 
ATOM     20  C   UNL     1      -0.320  11.449  19.006  0.00  0.00    +0.000 A 
ATOM     21  C   UNL     1      -0.661  10.241  18.414  0.00  0.00    +0.000 A 
ATOM     22  C   UNL     1       0.333   9.415  17.906  0.00  0.00    +0.000 A 
ATOM     23  N   UNL     1       1.639   9.788  17.946  0.00  0.00    +0.000 N 
ATOM     24  C   UNL     1       1.981  10.980  18.499  0.00  0.00    +0.000 A 
ENDBRANCH  17  23
ENDBRANCH  13  17
ENDBRANCH   1  15
BRANCH   3  25
ATOM     25  C   UNL     1       1.075   3.007  20.317  0.00  0.00    +0.000 C 
ATOM     26  F   UNL     1       1.426   2.157  21.320  0.00  0.00    +0.000 F 
ATOM     27  F   UNL     1       0.400   4.030  20.905  0.00  0.00    +0.000 F 
ATOM     28  F   UNL     1       0.166   2.332  19.563  0.00  0.00    +0.000 F 
ENDBRANCH   3  25
TORSDOF 5
ENDMDL
MODEL 5
REMARK VINA RESULT:      -7.8      1.609      2.142
REMARK  Name = 
REMARK  6 active torsions:
REMARK  status: ('A' for Active; 'I' for Inactive)
REMARK    1  A    between atoms: C_1  and  C_2
REMARK    2  A    between atoms: N_6  and  C_7
REMARK    3  A    between atoms: C_7  and  C_8
REMARK    4  A    between atoms: N_10  and  C_11
REMARK    5  A    between atoms: C_13  and  C_14
REMARK    6  A    between atoms: C_20  and  N_21
REMARK                            x       y       z     vdW  Elec       q    Type
REMARK                         _______ _______ _______ _____ _____    ______ ____
ROOT
ATOM      1  C   UNL     1       3.660   5.048  19.295  0.00  0.00    +0.000 A 
ATOM      2  C   UNL     1       2.712   4.477  20.152  0.00  0.00    +0.000 A 
ATOM      3  C   UNL     1       2.881   3.174  20.630  0.00  0.00    +0.000 A 
ATOM      4  C   UNL     1       3.965   2.426  20.157  0.00  0.00    +0.000 A 
ATOM      5  C   UNL     1       4.895   2.991  19.274  0.00  0.00    +0.000 A 
ATOM      6  C   UNL     1       4.790   4.323  18.845  0.00  0.00    +0.000 A 
ENDROOT
BRANCH   6   7
ATOM      7  N   UNL     1       5.760   4.925  18.056  0.00  0.00    +0.000 N 
ATOM      8  C   UNL     1       6.981   5.513  18.642  0.00  0.00    +0.000 C 
ATOM      9  C   UNL     1       7.334   6.753  17.796  0.00  0.00    +0.000 C 
ATOM     10  O   UNL     1       7.474   6.439  16.393  0.00  0.00    +0.000 OA
ATOM     11  C   UNL     1       6.310   5.778  15.876  0.00  0.00    +0.000 C 
ATOM     12  C   UNL     1       5.998   4.497  16.669  0.00  0.00    +0.000 C 
ENDBRANCH   6   7
BRANCH   1  15
ATOM     13  C   UNL     1       2.548   6.926  18.205  0.00  0.00    +0.000 C 
ATOM     14  O   UNL     1       1.676   6.226  17.687  0.00  0.00    +0.000 OA
ATOM     15  N   UNL     1       3.559   6.433  19.011  0.00  0.00    +0.000 N 
ATOM     16  H   UNL     1       4.462   6.894  19.036  0.00  0.00    +0.000 HD
BRANCH  13  17
ATOM     17  C   UNL     1       2.578   8.416  17.961  0.00  0.00    +0.000 C 
BRANCH  17  23
ATOM     18  C   UNL     1      -0.020   9.426  22.057  0.00  0.00    +0.000 C 
ATOM     19  C   UNL     1       0.221   9.667  20.595  0.00  0.00    +0.000 A 
ATOM     20  C   UNL     1      -0.662  10.442  19.844  0.00  0.00    +0.000 A 
ATOM     21  C   UNL     1      -0.442  10.587  18.481  0.00  0.00    +0.000 A 
ATOM     22  C   UNL     1       0.635   9.947  17.882  0.00  0.00    +0.000 A 
ATOM     23  N   UNL     1       1.504   9.206  18.618  0.00  0.00    +0.000 N 
ATOM     24  C   UNL     1       1.314   9.079  19.956  0.00  0.00    +0.000 A 
ENDBRANCH  17  23
ENDBRANCH  13  17
ENDBRANCH   1  15
BRANCH   3  25
ATOM     25  C   UNL     1       1.954   2.612  21.681  0.00  0.00    +0.000 C 
ATOM     26  F   UNL     1       0.652   2.587  21.285  0.00  0.00    +0.000 F 
ATOM     27  F   UNL     1       2.268   1.336  22.031  0.00  0.00    +0.000 F 
ATOM     28  F   UNL     1       1.977   3.341  22.829  0.00  0.00    +0.000 F 
ENDBRANCH   3  25
TORSDOF 5
ENDMDL
MODEL 6
REMARK VINA RESULT:      -7.7      0.922      1.932
REMARK  Name = 
REMARK  6 active torsions:
REMARK  status: ('A' for Active; 'I' for Inactive)
REMARK    1  A    between atoms: C_1  and  C_2
REMARK    2  A    between atoms: N_6  and  C_7
REMARK    3  A    between atoms: C_7  and  C_8
REMARK    4  A    between atoms: N_10  and  C_11
REMARK    5  A    between atoms: C_13  and  C_14
REMARK    6  A    between atoms: C_20  and  N_21
REMARK                            x       y       z     vdW  Elec       q    Type
REMARK                         _______ _______ _______ _____ _____    ______ ____
ROOT
ATOM      1  C   UNL     1       3.306   5.487  18.160  0.00  0.00    +0.000 A 
ATOM      2  C   UNL     1       2.163   4.774  18.540  0.00  0.00    +0.000 A 
ATOM      3  C   UNL     1       2.278   3.516  19.139  0.00  0.00    +0.000 A 
ATOM      4  C   UNL     1       3.551   2.950  19.262  0.00  0.00    +0.000 A 
ATOM      5  C   UNL     1       4.692   3.654  18.851  0.00  0.00    +0.000 A 
ATOM      6  C   UNL     1       4.606   4.952  18.322  0.00  0.00    +0.000 A 
ENDROOT
BRANCH   6   7
ATOM      7  N   UNL     1       5.733   5.699  18.011  0.00  0.00    +0.000 N 
ATOM      8  C   UNL     1       7.084   5.276  18.431  0.00  0.00    +0.000 C 
ATOM      9  C   UNL     1       7.880   6.558  18.747  0.00  0.00    +0.000 C 
ATOM     10  O   UNL     1       7.896   7.483  17.638  0.00  0.00    +0.000 OA
ATOM     11  C   UNL     1       6.570   7.797  17.187  0.00  0.00    +0.000 C 
ATOM     12  C   UNL     1       5.798   6.526  16.796  0.00  0.00    +0.000 C 
ENDBRANCH   6   7
BRANCH   1  15
ATOM     13  C   UNL     1       2.524   7.760  18.578  0.00  0.00    +0.000 C 
ATOM     14  O   UNL     1       2.069   7.494  19.692  0.00  0.00    +0.000 OA
ATOM     15  N   UNL     1       3.151   6.838  17.758  0.00  0.00    +0.000 N 
ATOM     16  H   UNL     1       3.095   6.931  16.749  0.00  0.00    +0.000 HD
BRANCH  13  17
ATOM     17  C   UNL     1       2.398   9.155  18.013  0.00  0.00    +0.000 C 
BRANCH  17  23
ATOM     18  C   UNL     1       0.108  12.242  21.138  0.00  0.00    +0.000 C 
ATOM     19  C   UNL     1       0.047  11.367  19.921  0.00  0.00    +0.000 A 
ATOM     20  C   UNL     1      -1.168  11.103  19.290  0.00  0.00    +0.000 A 
ATOM     21  C   UNL     1      -1.193  10.235  18.207  0.00  0.00    +0.000 A 
ATOM     22  C   UNL     1      -0.019   9.629  17.779  0.00  0.00    +0.000 A 
ATOM     23  N   UNL     1       1.167   9.900  18.384  0.00  0.00    +0.000 N 
ATOM     24  C   UNL     1       1.208  10.768  19.427  0.00  0.00    +0.000 A 
ENDBRANCH  17  23
ENDBRANCH  13  17
ENDBRANCH   1  15
BRANCH   3  25
ATOM     25  C   UNL     1       1.064   2.816  19.700  0.00  0.00    +0.000 C 
ATOM     26  F   UNL     1       1.363   1.960  20.715  0.00  0.00    +0.000 F 
ATOM     27  F   UNL     1       0.138   3.681  20.194  0.00  0.00    +0.000 F 
ATOM     28  F   UNL     1       0.425   2.066  18.761  0.00  0.00    +0.000 F 
ENDBRANCH   3  25
TORSDOF 5
ENDMDL
MODEL 7
REMARK VINA RESULT:      -7.7      0.754      1.691
REMARK  Name = 
REMARK  6 active torsions:
REMARK  status: ('A' for Active; 'I' for Inactive)
REMARK    1  A    between atoms: C_1  and  C_2
REMARK    2  A    between atoms: N_6  and  C_7
REMARK    3  A    between atoms: C_7  and  C_8
REMARK    4  A    between atoms: N_10  and  C_11
REMARK    5  A    between atoms: C_13  and  C_14
REMARK    6  A    between atoms: C_20  and  N_21
REMARK                            x       y       z     vdW  Elec       q    Type
REMARK                         _______ _______ _______ _____ _____    ______ ____
ROOT
ATOM      1  C   UNL     1       3.178   5.166  17.948  0.00  0.00    +0.000 A 
ATOM      2  C   UNL     1       2.039   4.536  18.462  0.00  0.00    +0.000 A 
ATOM      3  C   UNL     1       2.117   3.239  18.976  0.00  0.00    +0.000 A 
ATOM      4  C   UNL     1       3.333   2.554  18.878  0.00  0.00    +0.000 A 
ATOM      5  C   UNL     1       4.464   3.177  18.333  0.00  0.00    +0.000 A 
ATOM      6  C   UNL     1       4.429   4.508  17.886  0.00  0.00    +0.000 A 
ENDROOT
BRANCH   6   7
ATOM      7  N   UNL     1       5.566   5.168  17.443  0.00  0.00    +0.000 N 
ATOM      8  C   UNL     1       6.310   6.101  18.314  0.00  0.00    +0.000 C 
ATOM      9  C   UNL     1       6.847   7.230  17.411  0.00  0.00    +0.000 C 
ATOM     10  O   UNL     1       7.640   6.726  16.314  0.00  0.00    +0.000 OA
ATOM     11  C   UNL     1       6.925   5.747  15.545  0.00  0.00    +0.000 C 
ATOM     12  C   UNL     1       6.454   4.579  16.428  0.00  0.00    +0.000 C 
ENDBRANCH   6   7
BRANCH   1  15
ATOM     13  C   UNL     1       2.643   7.463  18.571  0.00  0.00    +0.000 C 
ATOM     14  O   UNL     1       2.285   7.165  19.712  0.00  0.00    +0.000 OA
ATOM     15  N   UNL     1       3.098   6.547  17.639  0.00  0.00    +0.000 N 
ATOM     16  H   UNL     1       2.946   6.708  16.649  0.00  0.00    +0.000 HD
BRANCH  13  17
ATOM     17  C   UNL     1       2.579   8.897  18.099  0.00  0.00    +0.000 C 
BRANCH  17  23
ATOM     18  C   UNL     1      -0.052  11.342  21.512  0.00  0.00    +0.000 C 
ATOM     19  C   UNL     1       0.054  10.797  20.117  0.00  0.00    +0.000 A 
ATOM     20  C   UNL     1      -1.045  10.811  19.259  0.00  0.00    +0.000 A 
ATOM     21  C   UNL     1      -0.928  10.237  18.001  0.00  0.00    +0.000 A 
ATOM     22  C   UNL     1       0.269   9.643  17.621  0.00  0.00    +0.000 A 
ATOM     23  N   UNL     1       1.344   9.645  18.451  0.00  0.00    +0.000 N 
ATOM     24  C   UNL     1       1.249  10.226  19.674  0.00  0.00    +0.000 A 
ENDBRANCH  17  23
ENDBRANCH  13  17
ENDBRANCH   1  15
BRANCH   3  25
ATOM     25  C   UNL     1       0.935   2.616  19.680  0.00  0.00    +0.000 C 
ATOM     26  F   UNL     1       0.187   1.821  18.867  0.00  0.00    +0.000 F 
ATOM     27  F   UNL     1       1.300   1.841  20.737  0.00  0.00    +0.000 F 
ATOM     28  F   UNL     1       0.078   3.553  20.170  0.00  0.00    +0.000 F 
ENDBRANCH   3  25
TORSDOF 5
ENDMDL
MODEL 8
REMARK VINA RESULT:      -7.6      1.053      1.622
REMARK  Name = 
REMARK  6 active torsions:
REMARK  status: ('A' for Active; 'I' for Inactive)
REMARK    1  A    between atoms: C_1  and  C_2
REMARK    2  A    between atoms: N_6  and  C_7
REMARK    3  A    between atoms: C_7  and  C_8
REMARK    4  A    between atoms: N_10  and  C_11
REMARK    5  A    between atoms: C_13  and  C_14
REMARK    6  A    between atoms: C_20  and  N_21
REMARK                            x       y       z     vdW  Elec       q    Type
REMARK                         _______ _______ _______ _____ _____    ______ ____
ROOT
ATOM      1  C   UNL     1       3.152   5.120  18.463  0.00  0.00    +0.000 A 
ATOM      2  C   UNL     1       2.236   4.548  19.353  0.00  0.00    +0.000 A 
ATOM      3  C   UNL     1       2.569   3.396  20.072  0.00  0.00    +0.000 A 
ATOM      4  C   UNL     1       3.797   2.779  19.811  0.00  0.00    +0.000 A 
ATOM      5  C   UNL     1       4.700   3.337  18.895  0.00  0.00    +0.000 A 
ATOM      6  C   UNL     1       4.420   4.538  18.223  0.00  0.00    +0.000 A 
ENDROOT
BRANCH   6   7
ATOM      7  N   UNL     1       5.347   5.155  17.396  0.00  0.00    +0.000 N 
ATOM      8  C   UNL     1       5.345   4.943  15.935  0.00  0.00    +0.000 C 
ATOM      9  C   UNL     1       6.817   4.960  15.475  0.00  0.00    +0.000 C 
ATOM     10  O   UNL     1       7.502   6.169  15.870  0.00  0.00    +0.000 OA
ATOM     11  C   UNL     1       7.401   6.401  17.282  0.00  0.00    +0.000 C 
ATOM     12  C   UNL     1       5.932   6.461  17.734  0.00  0.00    +0.000 C 
ENDBRANCH   6   7
BRANCH   1  15
ATOM     13  C   UNL     1       2.499   7.453  18.743  0.00  0.00    +0.000 C 
ATOM     14  O   UNL     1       2.420   7.377  19.970  0.00  0.00    +0.000 OA
ATOM     15  N   UNL     1       2.855   6.396  17.924  0.00  0.00    +0.000 N 
ATOM     16  H   UNL     1       2.485   6.335  16.981  0.00  0.00    +0.000 HD
BRANCH  13  17
ATOM     17  C   UNL     1       2.179   8.748  18.034  0.00  0.00    +0.000 C 
BRANCH  17  23
ATOM     18  C   UNL     1      -0.166  10.512  22.027  0.00  0.00    +0.000 C 
ATOM     19  C   UNL     1      -0.104  10.360  20.535  0.00  0.00    +0.000 A 
ATOM     20  C   UNL     1      -1.169  10.763  19.731  0.00  0.00    +0.000 A 
ATOM     21  C   UNL     1      -1.103  10.545  18.361  0.00  0.00    +0.000 A 
ATOM     22  C   UNL     1       0.007   9.914  17.815  0.00  0.00    +0.000 A 
ATOM     23  N   UNL     1       1.052   9.538  18.597  0.00  0.00    +0.000 N 
ATOM     24  C   UNL     1       1.010   9.770  19.934  0.00  0.00    +0.000 A 
ENDBRANCH  17  23
ENDBRANCH  13  17
ENDBRANCH   1  15
BRANCH   3  25
ATOM     25  C   UNL     1       1.654   2.869  21.151  0.00  0.00    +0.000 C 
ATOM     26  F   UNL     1       1.836   1.544  21.405  0.00  0.00    +0.000 F 
ATOM     27  F   UNL     1       1.820   3.509  22.340  0.00  0.00    +0.000 F 
ATOM     28  F   UNL     1       0.341   3.006  20.823  0.00  0.00    +0.000 F 
ENDBRANCH   3  25
TORSDOF 5
ENDMDL
MODEL 9
REMARK VINA RESULT:      -7.6      1.294      1.473
REMARK  Name = 
REMARK  6 active torsions:
REMARK  status: ('A' for Active; 'I' for Inactive)
REMARK    1  A    between atoms: C_1  and  C_2
REMARK    2  A    between atoms: N_6  and  C_7
REMARK    3  A    between atoms: C_7  and  C_8
REMARK    4  A    between atoms: N_10  and  C_11
REMARK    5  A    between atoms: C_13  and  C_14
REMARK    6  A    between atoms: C_20  and  N_21
REMARK                            x       y       z     vdW  Elec       q    Type
REMARK                         _______ _______ _______ _____ _____    ______ ____
ROOT
ATOM      1  C   UNL     1       3.166   5.042  18.394  0.00  0.00    +0.000 A 
ATOM      2  C   UNL     1       2.274   4.497  19.326  0.00  0.00    +0.000 A 
ATOM      3  C   UNL     1       2.669   3.440  20.152  0.00  0.00    +0.000 A 
ATOM      4  C   UNL     1       3.936   2.881  19.960  0.00  0.00    +0.000 A 
ATOM      5  C   UNL     1       4.816   3.409  19.004  0.00  0.00    +0.000 A 
ATOM      6  C   UNL     1       4.471   4.522  18.221  0.00  0.00    +0.000 A 
ENDROOT
BRANCH   6   7
ATOM      7  N   UNL     1       5.370   5.118  17.348  0.00  0.00    +0.000 N 
ATOM      8  C   UNL     1       5.370   4.810  15.904  0.00  0.00    +0.000 C 
ATOM      9  C   UNL     1       6.837   4.853  15.433  0.00  0.00    +0.000 C 
ATOM     10  O   UNL     1       7.476   6.111  15.742  0.00  0.00    +0.000 OA
ATOM     11  C   UNL     1       7.373   6.432  17.137  0.00  0.00    +0.000 C 
ATOM     12  C   UNL     1       5.905   6.466  17.594  0.00  0.00    +0.000 C 
ENDBRANCH   6   7
BRANCH   1  15
ATOM     13  C   UNL     1       2.482   7.382  18.453  0.00  0.00    +0.000 C 
ATOM     14  O   UNL     1       2.500   7.450  19.683  0.00  0.00    +0.000 OA
ATOM     15  N   UNL     1       2.797   6.242  17.736  0.00  0.00    +0.000 N 
ATOM     16  H   UNL     1       2.356   6.064  16.839  0.00  0.00    +0.000 HD
BRANCH  13  17
ATOM     17  C   UNL     1       2.076   8.580  17.626  0.00  0.00    +0.000 C 
BRANCH  17  23
ATOM     18  C   UNL     1      -0.721  10.877  21.010  0.00  0.00    +0.000 C 
ATOM     19  C   UNL     1       0.385  10.942  19.997  0.00  0.00    +0.000 A 
ATOM     20  C   UNL     1       0.952  12.163  19.637  0.00  0.00    +0.000 A 
ATOM     21  C   UNL     1       1.927  12.191  18.648  0.00  0.00    +0.000 A 
ATOM     22  C   UNL     1       2.308  11.012  18.020  0.00  0.00    +0.000 A 
ATOM     23  N   UNL     1       1.766   9.820  18.384  0.00  0.00    +0.000 N 
ATOM     24  C   UNL     1       0.832   9.779  19.369  0.00  0.00    +0.000 A 
ENDBRANCH  17  23
ENDBRANCH  13  17
ENDBRANCH   1  15
BRANCH   3  25
ATOM     25  C   UNL     1       1.773   2.958  21.267  0.00  0.00    +0.000 C 
ATOM     26  F   UNL     1       0.452   3.177  21.023  0.00  0.00    +0.000 F 
ATOM     27  F   UNL     1       1.899   1.625  21.505  0.00  0.00    +0.000 F 
ATOM     28  F   UNL     1       2.039   3.584  22.445  0.00  0.00    +0.000 F 
ENDBRANCH   3  25
TORSDOF 5
ENDMDL
