MODEL 1
REMARK VINA RESULT:      -6.2      0.000      0.000
REMARK  Name = 
REMARK  8 active torsions:
REMARK  status: ('A' for Active; 'I' for Inactive)
REMARK    1  A    between atoms: C_1  and  C_2
REMARK    2  A    between atoms: C_2  and  C_3
REMARK    3  A    between atoms: C_2  and  S_4
REMARK    4  A    between atoms: S_4  and  C_5
REMARK    5  A    between atoms: C_5  and  C_6
REMARK    6  A    between atoms: C_6  and  N_7
REMARK    7  A    between atoms: N_10  and  S_11
REMARK    8  A    between atoms: S_11  and  N_12
REMARK                            x       y       z     vdW  Elec       q    Type
REMARK                         _______ _______ _______ _____ _____    ______ ____
ROOT
ATOM      1  N   UNL     1       4.172   3.926  17.010  0.00  0.00    +0.000 NA
ATOM      2  C   UNL     1       4.749   5.242  16.666  0.00  0.00    +0.000 C 
ATOM      3  C   UNL     1       4.969   6.190  17.859  0.00  0.00    +0.000 C 
ATOM      4  N   UNL     1       5.805   5.567  18.924  0.00  0.00    +0.000 NA
ATOM      5  C   UNL     1       5.250   4.230  19.315  0.00  0.00    +0.000 C 
ATOM      6  C   UNL     1       4.970   3.322  18.100  0.00  0.00    +0.000 C 
ENDROOT
BRANCH   4   7
ATOM      7  S   UNL     1       7.476   5.635  18.723  0.00  0.00    +0.000 S 
ATOM      8  O   UNL     1       7.920   4.422  18.090  0.00  0.00    +0.000 OA
ATOM      9  O   UNL     1       7.857   6.949  18.274  0.00  0.00    +0.000 OA
BRANCH   7  10
ATOM     10  N   UNL     1       7.904   5.513  20.321  0.00  0.00    +0.000 NA
ATOM     11  H   UNL     1       7.450   6.216  20.897  0.00  0.00    +0.000 HD
ATOM     12  H   UNL     1       8.886   5.329  20.484  0.00  0.00    +0.000 HD
ENDBRANCH   7  10
ENDBRANCH   4   7
BRANCH   1  13
ATOM     13  C   UNL     1       2.723   3.953  17.300  0.00  0.00    +0.000 C 
BRANCH  13  14
ATOM     14  C   UNL     1       2.226   2.575  17.777  0.00  0.00    +0.000 C 
BRANCH  14  15
ATOM     15  S   UNL     1       0.898   2.653  19.023  0.00  0.00    +0.000 S 
BRANCH  15  17
ATOM     16  C   UNL     1       1.487   4.825  20.606  0.00  0.00    +0.000 C 
ATOM     17  C   UNL     1       1.856   3.352  20.436  0.00  0.00    +0.000 C 
ATOM     18  C   UNL     1       1.599   2.599  21.740  0.00  0.00    +0.000 C 
ENDBRANCH  15  17
ENDBRANCH  14  15
ENDBRANCH  13  14
ENDBRANCH   1  13
TORSDOF 6
ENDMDL
MODEL 2
REMARK VINA RESULT:      -6.1      1.058      1.454
REMARK  Name = 
REMARK  8 active torsions:
REMARK  status: ('A' for Active; 'I' for Inactive)
REMARK    1  A    between atoms: C_1  and  C_2
REMARK    2  A    between atoms: C_2  and  C_3
REMARK    3  A    between atoms: C_2  and  S_4
REMARK    4  A    between atoms: S_4  and  C_5
REMARK    5  A    between atoms: C_5  and  C_6
REMARK    6  A    between atoms: C_6  and  N_7
REMARK    7  A    between atoms: N_10  and  S_11
REMARK    8  A    between atoms: S_11  and  N_12
REMARK                            x       y       z     vdW  Elec       q    Type
REMARK                         _______ _______ _______ _____ _____    ______ ____
ROOT
ATOM      1  N   UNL     1       4.240   3.399  17.247  0.00  0.00    +0.000 NA
ATOM      2  C   UNL     1       4.887   4.250  16.226  0.00  0.00    +0.000 C 
ATOM      3  C   UNL     1       5.037   5.733  16.613  0.00  0.00    +0.000 C 
ATOM      4  N   UNL     1       5.760   5.905  17.905  0.00  0.00    +0.000 NA
ATOM      5  C   UNL     1       5.130   5.068  18.977  0.00  0.00    +0.000 C 
ATOM      6  C   UNL     1       4.924   3.601  18.543  0.00  0.00    +0.000 C 
ENDROOT
BRANCH   4   7
ATOM      7  S   UNL     1       7.443   5.880  17.850  0.00  0.00    +0.000 S 
ATOM      8  O   UNL     1       7.959   6.458  19.061  0.00  0.00    +0.000 OA
ATOM      9  O   UNL     1       7.891   4.618  17.321  0.00  0.00    +0.000 OA
BRANCH   7  10
ATOM     10  N   UNL     1       7.650   7.017  16.661  0.00  0.00    +0.000 NA
ATOM     11  H   UNL     1       7.328   6.693  15.754  0.00  0.00    +0.000 HD
ATOM     12  H   UNL     1       8.530   7.516  16.700  0.00  0.00    +0.000 HD
ENDBRANCH   7  10
ENDBRANCH   4   7
BRANCH   1  13
ATOM     13  C   UNL     1       2.774   3.560  17.334  0.00  0.00    +0.000 C 
BRANCH  13  14
ATOM     14  C   UNL     1       2.109   2.290  17.900  0.00  0.00    +0.000 C 
BRANCH  14  15
ATOM     15  S   UNL     1       0.811   2.619  19.136  0.00  0.00    +0.000 S 
BRANCH  15  17
ATOM     16  C   UNL     1       1.477   4.840  20.617  0.00  0.00    +0.000 C 
ATOM     17  C   UNL     1       1.849   3.366  20.467  0.00  0.00    +0.000 C 
ATOM     18  C   UNL     1       1.679   2.649  21.805  0.00  0.00    +0.000 C 
ENDBRANCH  15  17
ENDBRANCH  14  15
ENDBRANCH  13  14
ENDBRANCH   1  13
TORSDOF 6
ENDMDL
MODEL 3
REMARK VINA RESULT:      -5.9      3.313      5.488
REMARK  Name = 
REMARK  8 active torsions:
REMARK  status: ('A' for Active; 'I' for Inactive)
REMARK    1  A    between atoms: C_1  and  C_2
REMARK    2  A    between atoms: C_2  and  C_3
REMARK    3  A    between atoms: C_2  and  S_4
REMARK    4  A    between atoms: S_4  and  C_5
REMARK    5  A    between atoms: C_5  and  C_6
REMARK    6  A    between atoms: C_6  and  N_7
REMARK    7  A    between atoms: N_10  and  S_11
REMARK    8  A    between atoms: S_11  and  N_12
REMARK                            x       y       z     vdW  Elec       q    Type
REMARK                         _______ _______ _______ _____ _____    ______ ____
ROOT
ATOM      1  N   UNL     1       3.693   4.547  17.634  0.00  0.00    +0.000 NA
ATOM      2  C   UNL     1       2.300   4.067  17.751  0.00  0.00    +0.000 C 
ATOM      3  C   UNL     1       2.139   2.690  18.421  0.00  0.00    +0.000 C 
ATOM      4  N   UNL     1       2.774   2.644  19.769  0.00  0.00    +0.000 NA
ATOM      5  C   UNL     1       4.196   3.114  19.698  0.00  0.00    +0.000 C 
ATOM      6  C   UNL     1       4.343   4.461  18.960  0.00  0.00    +0.000 C 
ENDROOT
BRANCH   4   7
ATOM      7  S   UNL     1       1.871   3.238  21.060  0.00  0.00    +0.000 S 
ATOM      8  O   UNL     1       1.890   2.273  22.127  0.00  0.00    +0.000 OA
ATOM      9  O   UNL     1       2.160   4.636  21.251  0.00  0.00    +0.000 OA
BRANCH   7  10
ATOM     10  N   UNL     1       0.372   3.133  20.359  0.00  0.00    +0.000 NA
ATOM     11  H   UNL     1       0.421   3.107  19.345  0.00  0.00    +0.000 HD
ATOM     12  H   UNL     1      -0.337   3.717  20.784  0.00  0.00    +0.000 HD
ENDBRANCH   7  10
ENDBRANCH   4   7
BRANCH   1  13
ATOM     13  C   UNL     1       4.474   3.896  16.562  0.00  0.00    +0.000 C 
BRANCH  13  14
ATOM     14  C   UNL     1       5.446   4.893  15.900  0.00  0.00    +0.000 C 
BRANCH  14  15
ATOM     15  S   UNL     1       7.182   4.693  16.417  0.00  0.00    +0.000 S 
BRANCH  15  17
ATOM     16  C   UNL     1       6.148   7.132  17.157  0.00  0.00    +0.000 C 
ATOM     17  C   UNL     1       7.410   6.287  17.318  0.00  0.00    +0.000 C 
ATOM     18  C   UNL     1       7.709   6.076  18.801  0.00  0.00    +0.000 C 
ENDBRANCH  15  17
ENDBRANCH  14  15
ENDBRANCH  13  14
ENDBRANCH   1  13
TORSDOF 6
ENDMDL
MODEL 4
REMARK VINA RESULT:      -5.9      2.026      2.748
REMARK  Name = 
REMARK  8 active torsions:
REMARK  status: ('A' for Active; 'I' for Inactive)
REMARK    1  A    between atoms: C_1  and  C_2
REMARK    2  A    between atoms: C_2  and  C_3
REMARK    3  A    between atoms: C_2  and  S_4
REMARK    4  A    between atoms: S_4  and  C_5
REMARK    5  A    between atoms: C_5  and  C_6
REMARK    6  A    between atoms: C_6  and  N_7
REMARK    7  A    between atoms: N_10  and  S_11
REMARK    8  A    between atoms: S_11  and  N_12
REMARK                            x       y       z     vdW  Elec       q    Type
REMARK                         _______ _______ _______ _____ _____    ______ ____
ROOT
ATOM      1  N   UNL     1       3.997   4.726  18.945  0.00  0.00    +0.000 NA
ATOM      2  C   UNL     1       3.815   4.656  17.480  0.00  0.00    +0.000 C 
ATOM      3  C   UNL     1       4.588   5.718  16.676  0.00  0.00    +0.000 C 
ATOM      4  N   UNL     1       6.048   5.696  16.977  0.00  0.00    +0.000 NA
ATOM      5  C   UNL     1       6.283   5.775  18.455  0.00  0.00    +0.000 C 
ATOM      6  C   UNL     1       5.444   4.751  19.249  0.00  0.00    +0.000 C 
ENDROOT
BRANCH   4   7
ATOM      7  S   UNL     1       6.983   4.567  16.147  0.00  0.00    +0.000 S 
ATOM      8  O   UNL     1       8.103   4.194  16.969  0.00  0.00    +0.000 OA
ATOM      9  O   UNL     1       6.125   3.611  15.497  0.00  0.00    +0.000 OA
BRANCH   7  10
ATOM     10  N   UNL     1       7.577   5.579  14.976  0.00  0.00    +0.000 NA
ATOM     11  H   UNL     1       6.943   5.672  14.188  0.00  0.00    +0.000 HD
ATOM     12  H   UNL     1       8.564   5.467  14.779  0.00  0.00    +0.000 HD
ENDBRANCH   7  10
ENDBRANCH   4   7
BRANCH   1  13
ATOM     13  C   UNL     1       3.248   5.818  19.601  0.00  0.00    +0.000 C 
BRANCH  13  14
ATOM     14  C   UNL     1       2.361   5.278  20.740  0.00  0.00    +0.000 C 
BRANCH  14  15
ATOM     15  S   UNL     1       0.887   4.372  20.168  0.00  0.00    +0.000 S 
BRANCH  15  17
ATOM     16  C   UNL     1       1.831   1.942  19.287  0.00  0.00    +0.000 C 
ATOM     17  C   UNL     1       1.418   2.652  20.575  0.00  0.00    +0.000 C 
ATOM     18  C   UNL     1       2.570   2.623  21.577  0.00  0.00    +0.000 C 
ENDBRANCH  15  17
ENDBRANCH  14  15
ENDBRANCH  13  14
ENDBRANCH   1  13
TORSDOF 6
ENDMDL
MODEL 5
REMARK VINA RESULT:      -5.9      3.529      5.463
REMARK  Name = 
REMARK  8 active torsions:
REMARK  status: ('A' for Active; 'I' for Inactive)
REMARK    1  A    between atoms: C_1  and  C_2
REMARK    2  A    between atoms: C_2  and  C_3
REMARK    3  A    between atoms: C_2  and  S_4
REMARK    4  A    between atoms: S_4  and  C_5
REMARK    5  A    between atoms: C_5  and  C_6
REMARK    6  A    between atoms: C_6  and  N_7
REMARK    7  A    between atoms: N_10  and  S_11
REMARK    8  A    between atoms: S_11  and  N_12
REMARK                            x       y       z     vdW  Elec       q    Type
REMARK                         _______ _______ _______ _____ _____    ______ ____
ROOT
ATOM      1  N   UNL     1       3.373   3.967  17.117  0.00  0.00    +0.000 NA
ATOM      2  C   UNL     1       2.680   2.800  17.702  0.00  0.00    +0.000 C 
ATOM      3  C   UNL     1       3.275   2.285  19.026  0.00  0.00    +0.000 C 
ATOM      4  N   UNL     1       3.358   3.358  20.058  0.00  0.00    +0.000 NA
ATOM      5  C   UNL     1       4.065   4.561  19.512  0.00  0.00    +0.000 C 
ATOM      6  C   UNL     1       3.500   5.018  18.150  0.00  0.00    +0.000 C 
ENDROOT
BRANCH   4   7
ATOM      7  S   UNL     1       1.964   3.671  20.952  0.00  0.00    +0.000 S 
ATOM      8  O   UNL     1       0.828   3.635  20.071  0.00  0.00    +0.000 OA
ATOM      9  O   UNL     1       2.021   2.958  22.201  0.00  0.00    +0.000 OA
BRANCH   7  10
ATOM     10  N   UNL     1       2.256   5.270  21.278  0.00  0.00    +0.000 NA
ATOM     11  H   UNL     1       1.864   5.886  20.573  0.00  0.00    +0.000 HD
ATOM     12  H   UNL     1       3.189   5.470  21.617  0.00  0.00    +0.000 HD
ENDBRANCH   7  10
ENDBRANCH   4   7
BRANCH   1  13
ATOM     13  C   UNL     1       4.655   3.646  16.456  0.00  0.00    +0.000 C 
BRANCH  13  14
ATOM     14  C   UNL     1       5.492   4.919  16.221  0.00  0.00    +0.000 C 
BRANCH  14  15
ATOM     15  S   UNL     1       7.187   4.826  16.882  0.00  0.00    +0.000 S 
BRANCH  15  17
ATOM     16  C   UNL     1       7.919   5.810  19.345  0.00  0.00    +0.000 C 
ATOM     17  C   UNL     1       7.102   6.198  18.114  0.00  0.00    +0.000 C 
ATOM     18  C   UNL     1       7.615   7.520  17.545  0.00  0.00    +0.000 C 
ENDBRANCH  15  17
ENDBRANCH  14  15
ENDBRANCH  13  14
ENDBRANCH   1  13
TORSDOF 6
ENDMDL
MODEL 6
REMARK VINA RESULT:      -5.9      3.414      5.650
REMARK  Name = 
REMARK  8 active torsions:
REMARK  status: ('A' for Active; 'I' for Inactive)
REMARK    1  A    between atoms: C_1  and  C_2
REMARK    2  A    between atoms: C_2  and  C_3
REMARK    3  A    between atoms: C_2  and  S_4
REMARK    4  A    between atoms: S_4  and  C_5
REMARK    5  A    between atoms: C_5  and  C_6
REMARK    6  A    between atoms: C_6  and  N_7
REMARK    7  A    between atoms: N_10  and  S_11
REMARK    8  A    between atoms: S_11  and  N_12
REMARK                            x       y       z     vdW  Elec       q    Type
REMARK                         _______ _______ _______ _____ _____    ______ ____
ROOT
ATOM      1  N   UNL     1       3.976   4.440  17.769  0.00  0.00    +0.000 NA
ATOM      2  C   UNL     1       2.543   4.079  17.780  0.00  0.00    +0.000 C 
ATOM      3  C   UNL     1       2.221   2.705  18.398  0.00  0.00    +0.000 C 
ATOM      4  N   UNL     1       2.756   2.574  19.783  0.00  0.00    +0.000 NA
ATOM      5  C   UNL     1       4.214   2.921  19.820  0.00  0.00    +0.000 C 
ATOM      6  C   UNL     1       4.525   4.267  19.132  0.00  0.00    +0.000 C 
ENDROOT
BRANCH   4   7
ATOM      7  S   UNL     1       1.820   3.214  21.029  0.00  0.00    +0.000 S 
ATOM      8  O   UNL     1       1.745   2.253  22.097  0.00  0.00    +0.000 OA
ATOM      9  O   UNL     1       2.164   4.598  21.231  0.00  0.00    +0.000 OA
BRANCH   7  10
ATOM     10  N   UNL     1       0.354   3.175  20.257  0.00  0.00    +0.000 NA
ATOM     11  H   UNL     1       0.206   2.308  19.750  0.00  0.00    +0.000 HD
ATOM     12  H   UNL     1       0.091   4.040  19.802  0.00  0.00    +0.000 HD
ENDBRANCH   7  10
ENDBRANCH   4   7
BRANCH   1  13
ATOM     13  C   UNL     1       4.770   3.748  16.733  0.00  0.00    +0.000 C 
BRANCH  13  14
ATOM     14  C   UNL     1       6.192   4.335  16.640  0.00  0.00    +0.000 C 
BRANCH  14  15
ATOM     15  S   UNL     1       6.239   6.106  16.212  0.00  0.00    +0.000 S 
BRANCH  15  17
ATOM     16  C   UNL     1       7.742   5.682  18.477  0.00  0.00    +0.000 C 
ATOM     17  C   UNL     1       6.928   6.775  17.787  0.00  0.00    +0.000 C 
ATOM     18  C   UNL     1       7.802   8.008  17.560  0.00  0.00    +0.000 C 
ENDBRANCH  15  17
ENDBRANCH  14  15
ENDBRANCH  13  14
ENDBRANCH   1  13
TORSDOF 6
ENDMDL
MODEL 7
REMARK VINA RESULT:      -5.9      3.448      5.525
REMARK  Name = 
REMARK  8 active torsions:
REMARK  status: ('A' for Active; 'I' for Inactive)
REMARK    1  A    between atoms: C_1  and  C_2
REMARK    2  A    between atoms: C_2  and  C_3
REMARK    3  A    between atoms: C_2  and  S_4
REMARK    4  A    between atoms: S_4  and  C_5
REMARK    5  A    between atoms: C_5  and  C_6
REMARK    6  A    between atoms: C_6  and  N_7
REMARK    7  A    between atoms: N_10  and  S_11
REMARK    8  A    between atoms: S_11  and  N_12
REMARK                            x       y       z     vdW  Elec       q    Type
REMARK                         _______ _______ _______ _____ _____    ______ ____
ROOT
ATOM      1  N   UNL     1       3.527   4.168  17.155  0.00  0.00    +0.000 NA
ATOM      2  C   UNL     1       3.951   2.997  17.952  0.00  0.00    +0.000 C 
ATOM      3  C   UNL     1       4.243   3.289  19.436  0.00  0.00    +0.000 C 
ATOM      4  N   UNL     1       3.086   3.938  20.118  0.00  0.00    +0.000 NA
ATOM      5  C   UNL     1       2.628   5.140  19.350  0.00  0.00    +0.000 C 
ATOM      6  C   UNL     1       2.410   4.844  17.851  0.00  0.00    +0.000 C 
ENDROOT
BRANCH   4   7
ATOM      7  S   UNL     1       1.867   2.924  20.687  0.00  0.00    +0.000 S 
ATOM      8  O   UNL     1       1.671   1.855  19.745  0.00  0.00    +0.000 OA
ATOM      9  O   UNL     1       2.034   2.713  22.101  0.00  0.00    +0.000 OA
BRANCH   7  10
ATOM     10  N   UNL     1       0.592   3.965  20.488  0.00  0.00    +0.000 NA
ATOM     11  H   UNL     1       0.026   3.733  19.678  0.00  0.00    +0.000 HD
ATOM     12  H   UNL     1       0.812   4.941  20.647  0.00  0.00    +0.000 HD
ENDBRANCH   7  10
ENDBRANCH   4   7
BRANCH   1  13
ATOM     13  C   UNL     1       4.625   5.089  16.794  0.00  0.00    +0.000 C 
BRANCH  13  14
ATOM     14  C   UNL     1       5.781   4.332  16.110  0.00  0.00    +0.000 C 
BRANCH  14  15
ATOM     15  S   UNL     1       7.414   4.638  16.858  0.00  0.00    +0.000 S 
BRANCH  15  17
ATOM     16  C   UNL     1       7.484   5.691  19.399  0.00  0.00    +0.000 C 
ATOM     17  C   UNL     1       6.967   6.018  17.999  0.00  0.00    +0.000 C 
ATOM     18  C   UNL     1       7.533   7.359  17.536  0.00  0.00    +0.000 C 
ENDBRANCH  15  17
ENDBRANCH  14  15
ENDBRANCH  13  14
ENDBRANCH   1  13
TORSDOF 6
ENDMDL
MODEL 8
REMARK VINA RESULT:      -5.8      1.811      2.751
REMARK  Name = 
REMARK  8 active torsions:
REMARK  status: ('A' for Active; 'I' for Inactive)
REMARK    1  A    between atoms: C_1  and  C_2
REMARK    2  A    between atoms: C_2  and  C_3
REMARK    3  A    between atoms: C_2  and  S_4
REMARK    4  A    between atoms: S_4  and  C_5
REMARK    5  A    between atoms: C_5  and  C_6
REMARK    6  A    between atoms: C_6  and  N_7
REMARK    7  A    between atoms: N_10  and  S_11
REMARK    8  A    between atoms: S_11  and  N_12
REMARK                            x       y       z     vdW  Elec       q    Type
REMARK                         _______ _______ _______ _____ _____    ______ ____
ROOT
ATOM      1  N   UNL     1       3.861   6.122  18.874  0.00  0.00    +0.000 NA
ATOM      2  C   UNL     1       5.054   5.433  19.411  0.00  0.00    +0.000 C 
ATOM      3  C   UNL     1       5.495   4.185  18.625  0.00  0.00    +0.000 C 
ATOM      4  N   UNL     1       5.726   4.483  17.183  0.00  0.00    +0.000 NA
ATOM      5  C   UNL     1       4.535   5.175  16.590  0.00  0.00    +0.000 C 
ATOM      6  C   UNL     1       4.065   6.380  17.431  0.00  0.00    +0.000 C 
ENDROOT
BRANCH   4   7
ATOM      7  S   UNL     1       7.227   5.123  16.764  0.00  0.00    +0.000 S 
ATOM      8  O   UNL     1       7.510   4.793  15.393  0.00  0.00    +0.000 OA
ATOM      9  O   UNL     1       7.353   6.454  17.301  0.00  0.00    +0.000 OA
BRANCH   7  10
ATOM     10  N   UNL     1       8.169   4.123  17.692  0.00  0.00    +0.000 NA
ATOM     11  H   UNL     1       7.999   3.141  17.497  0.00  0.00    +0.000 HD
ATOM     12  H   UNL     1       8.260   4.404  18.660  0.00  0.00    +0.000 HD
ENDBRANCH   7  10
ENDBRANCH   4   7
BRANCH   1  13
ATOM     13  C   UNL     1       2.582   5.443  19.166  0.00  0.00    +0.000 C 
BRANCH  13  14
ATOM     14  C   UNL     1       2.538   4.946  20.624  0.00  0.00    +0.000 C 
BRANCH  14  15
ATOM     15  S   UNL     1       2.336   3.143  20.789  0.00  0.00    +0.000 S 
BRANCH  15  17
ATOM     16  C   UNL     1       3.104   1.615  18.634  0.00  0.00    +0.000 C 
ATOM     17  C   UNL     1       2.102   2.705  19.011  0.00  0.00    +0.000 C 
ATOM     18  C   UNL     1       0.681   2.231  18.713  0.00  0.00    +0.000 C 
ENDBRANCH  15  17
ENDBRANCH  14  15
ENDBRANCH  13  14
ENDBRANCH   1  13
TORSDOF 6
ENDMDL
MODEL 9
REMARK VINA RESULT:      -5.8      2.047      2.466
REMARK  Name = 
REMARK  8 active torsions:
REMARK  status: ('A' for Active; 'I' for Inactive)
REMARK    1  A    between atoms: C_1  and  C_2
REMARK    2  A    between atoms: C_2  and  C_3
REMARK    3  A    between atoms: C_2  and  S_4
REMARK    4  A    between atoms: S_4  and  C_5
REMARK    5  A    between atoms: C_5  and  C_6
REMARK    6  A    between atoms: C_6  and  N_7
REMARK    7  A    between atoms: N_10  and  S_11
REMARK    8  A    between atoms: S_11  and  N_12
REMARK                            x       y       z     vdW  Elec       q    Type
REMARK                         _______ _______ _______ _____ _____    ______ ____
ROOT
ATOM      1  N   UNL     1       3.719   4.785  18.828  0.00  0.00    +0.000 NA
ATOM      2  C   UNL     1       3.691   5.233  17.420  0.00  0.00    +0.000 C 
ATOM      3  C   UNL     1       4.747   6.292  17.051  0.00  0.00    +0.000 C 
ATOM      4  N   UNL     1       6.130   5.843  17.381  0.00  0.00    +0.000 NA
ATOM      5  C   UNL     1       6.210   5.388  18.807  0.00  0.00    +0.000 C 
ATOM      6  C   UNL     1       5.100   4.382  19.176  0.00  0.00    +0.000 C 
ENDROOT
BRANCH   4   7
ATOM      7  S   UNL     1       6.905   4.859  16.255  0.00  0.00    +0.000 S 
ATOM      8  O   UNL     1       6.020   3.788  15.883  0.00  0.00    +0.000 OA
ATOM      9  O   UNL     1       7.605   5.677  15.299  0.00  0.00    +0.000 OA
BRANCH   7  10
ATOM     10  N   UNL     1       8.039   4.200  17.269  0.00  0.00    +0.000 NA
ATOM     11  H   UNL     1       8.379   3.302  16.937  0.00  0.00    +0.000 HD
ATOM     12  H   UNL     1       7.831   4.293  18.255  0.00  0.00    +0.000 HD
ENDBRANCH   7  10
ENDBRANCH   4   7
BRANCH   1  13
ATOM     13  C   UNL     1       3.138   5.748  19.786  0.00  0.00    +0.000 C 
BRANCH  13  14
ATOM     14  C   UNL     1       1.871   5.175  20.450  0.00  0.00    +0.000 C 
BRANCH  14  15
ATOM     15  S   UNL     1       2.151   3.630  21.374  0.00  0.00    +0.000 S 
BRANCH  15  17
ATOM     16  C   UNL     1       0.477   3.164  19.241  0.00  0.00    +0.000 C 
ATOM     17  C   UNL     1       1.445   2.428  20.165  0.00  0.00    +0.000 C 
ATOM     18  C   UNL     1       2.527   1.735  19.338  0.00  0.00    +0.000 C 
ENDBRANCH  15  17
ENDBRANCH  14  15
ENDBRANCH  13  14
ENDBRANCH   1  13
TORSDOF 6
ENDMDL
