MODEL 1
REMARK VINA RESULT:      -7.8      0.000      0.000
REMARK  Name = 
REMARK  8 active torsions:
REMARK  status: ('A' for Active; 'I' for Inactive)
REMARK    1  A    between atoms: N_1  and  C_2
REMARK    2  A    between atoms: C_2  and  C_3
REMARK    3  A    between atoms: C_2  and  C_18
REMARK    4  A    between atoms: C_3  and  C_4
REMARK    5  A    between atoms: C_4  and  N_5
REMARK    6  A    between atoms: C_8  and  C_9
REMARK    7  A    between atoms: C_13  and  O_14
REMARK    8  A    between atoms: C_18  and  C_19
REMARK                            x       y       z     vdW  Elec       q    Type
REMARK                         _______ _______ _______ _____ _____    ______ ____
ROOT
ATOM      1  C   UNL     1       2.340   7.482  19.341  0.00  0.00    +0.000 C 
ENDROOT
BRANCH   1   2
ATOM      2  N   UNL     1       2.292   5.998  19.259  0.00  0.00    +0.000 NA
ATOM      3  C   UNL     1       2.092   5.569  17.853  0.00  0.00    +0.000 C 
ATOM      4  C   UNL     1       2.242   4.045  17.666  0.00  0.00    +0.000 C 
ATOM      5  C   UNL     1       3.591   3.528  18.200  0.00  0.00    +0.000 C 
ATOM      6  C   UNL     1       3.646   3.943  19.686  0.00  0.00    +0.000 C 
ATOM      7  C   UNL     1       3.552   5.466  19.830  0.00  0.00    +0.000 C 
BRANCH   5   8
ATOM      8  C   UNL     1       4.838   3.967  17.410  0.00  0.00    +0.000 A 
ATOM      9  C   UNL     1       6.037   4.415  18.017  0.00  0.00    +0.000 A 
ATOM     10  C   UNL     1       7.138   4.788  17.245  0.00  0.00    +0.000 A 
ATOM     11  C   UNL     1       7.068   4.745  15.855  0.00  0.00    +0.000 A 
ATOM     12  C   UNL     1       5.886   4.335  15.227  0.00  0.00    +0.000 A 
ATOM     13  C   UNL     1       4.784   3.954  16.001  0.00  0.00    +0.000 A 
BRANCH  12  14
ATOM     14  O   UNL     1       5.798   4.304  13.883  0.00  0.00    +0.000 OA
ATOM     15  H   UNL     1       5.731   3.472  13.392  0.00  0.00    +0.000 HD
ENDBRANCH  12  14
ENDBRANCH   5   8
ENDBRANCH   1   2
BRANCH   1  16
ATOM     16  C   UNL     1       2.487   8.168  17.969  0.00  0.00    +0.000 C 
BRANCH  16  17
ATOM     17  C   UNL     1       1.590   9.414  17.806  0.00  0.00    +0.000 C 
BRANCH  17  18
ATOM     18  N   UNL     1       2.413  10.590  17.508  0.00  0.00    +0.000 NA
ATOM     19  H   UNL     1       3.425  10.323  17.523  0.00  0.00    +0.000 HD
ATOM     20  H   UNL     1       2.253  11.334  18.226  0.00  0.00    +0.000 HD
ENDBRANCH  17  18
BRANCH  17  21
ATOM     21  C   UNL     1       0.747   9.676  19.073  0.00  0.00    +0.000 C 
BRANCH  21  22
ATOM     22  C   UNL     1      -0.592  10.280  18.747  0.00  0.00    +0.000 A 
ATOM     23  C   UNL     1      -1.261   9.926  17.567  0.00  0.00    +0.000 A 
ATOM     24  C   UNL     1      -2.497  10.502  17.262  0.00  0.00    +0.000 A 
ATOM     25  C   UNL     1      -3.071  11.436  18.129  0.00  0.00    +0.000 A 
ATOM     26  F   UNL     1      -4.268  11.995  17.825  0.00  0.00    +0.000 F 
ATOM     27  C   UNL     1      -2.407  11.795  19.308  0.00  0.00    +0.000 A 
ATOM     28  F   UNL     1      -2.957  12.704  20.151  0.00  0.00    +0.000 F 
ATOM     29  C   UNL     1      -1.172  11.223  19.616  0.00  0.00    +0.000 A 
ENDBRANCH  21  22
ENDBRANCH  17  21
ENDBRANCH  16  17
ENDBRANCH   1  16
TORSDOF 8
ENDMDL
MODEL 2
REMARK VINA RESULT:      -7.7      1.139      1.921
REMARK  Name = 
REMARK  8 active torsions:
REMARK  status: ('A' for Active; 'I' for Inactive)
REMARK    1  A    between atoms: N_1  and  C_2
REMARK    2  A    between atoms: C_2  and  C_3
REMARK    3  A    between atoms: C_2  and  C_18
REMARK    4  A    between atoms: C_3  and  C_4
REMARK    5  A    between atoms: C_4  and  N_5
REMARK    6  A    between atoms: C_8  and  C_9
REMARK    7  A    between atoms: C_13  and  O_14
REMARK    8  A    between atoms: C_18  and  C_19
REMARK                            x       y       z     vdW  Elec       q    Type
REMARK                         _______ _______ _______ _____ _____    ______ ____
ROOT
ATOM      1  C   UNL     1       2.204   7.350  19.440  0.00  0.00    +0.000 C 
ENDROOT
BRANCH   1   2
ATOM      2  N   UNL     1       2.310   5.872  19.316  0.00  0.00    +0.000 NA
ATOM      3  C   UNL     1       2.019   5.453  17.924  0.00  0.00    +0.000 C 
ATOM      4  C   UNL     1       2.315   3.958  17.675  0.00  0.00    +0.000 C 
ATOM      5  C   UNL     1       3.759   3.584  18.061  0.00  0.00    +0.000 C 
ATOM      6  C   UNL     1       3.915   3.973  19.548  0.00  0.00    +0.000 C 
ATOM      7  C   UNL     1       3.671   5.472  19.747  0.00  0.00    +0.000 C 
BRANCH   5   8
ATOM      8  C   UNL     1       4.866   4.175  17.169  0.00  0.00    +0.000 A 
ATOM      9  C   UNL     1       4.916   4.009  15.764  0.00  0.00    +0.000 A 
ATOM     10  C   UNL     1       5.942   4.580  15.008  0.00  0.00    +0.000 A 
ATOM     11  C   UNL     1       6.950   5.311  15.631  0.00  0.00    +0.000 A 
ATOM     12  C   UNL     1       6.942   5.466  17.022  0.00  0.00    +0.000 A 
ATOM     13  C   UNL     1       5.910   4.900  17.780  0.00  0.00    +0.000 A 
BRANCH  12  14
ATOM     14  O   UNL     1       7.920   6.157  17.642  0.00  0.00    +0.000 OA
ATOM     15  H   UNL     1       7.744   6.981  18.119  0.00  0.00    +0.000 HD
ENDBRANCH  12  14
ENDBRANCH   5   8
ENDBRANCH   1   2
BRANCH   1  16
ATOM     16  C   UNL     1       2.535   8.101  18.135  0.00  0.00    +0.000 C 
BRANCH  16  17
ATOM     17  C   UNL     1       1.568   9.267  17.835  0.00  0.00    +0.000 C 
BRANCH  17  18
ATOM     18  N   UNL     1       2.329  10.470  17.481  0.00  0.00    +0.000 NA
ATOM     19  H   UNL     1       2.204  10.677  16.464  0.00  0.00    +0.000 HD
ATOM     20  H   UNL     1       3.348  10.321  17.669  0.00  0.00    +0.000 HD
ENDBRANCH  17  18
BRANCH  17  21
ATOM     21  C   UNL     1       0.651   9.567  19.040  0.00  0.00    +0.000 C 
BRANCH  21  22
ATOM     22  C   UNL     1      -0.642  10.212  18.621  0.00  0.00    +0.000 A 
ATOM     23  C   UNL     1      -1.198  11.247  19.386  0.00  0.00    +0.000 A 
ATOM     24  C   UNL     1      -2.408  11.832  19.001  0.00  0.00    +0.000 A 
ATOM     25  C   UNL     1      -3.070  11.387  17.853  0.00  0.00    +0.000 A 
ATOM     26  F   UNL     1      -4.245  11.955  17.487  0.00  0.00    +0.000 F 
ATOM     27  C   UNL     1      -2.521  10.353  17.086  0.00  0.00    +0.000 A 
ATOM     28  F   UNL     1      -3.161   9.914  15.974  0.00  0.00    +0.000 F 
ATOM     29  C   UNL     1      -1.313   9.766  17.468  0.00  0.00    +0.000 A 
ENDBRANCH  21  22
ENDBRANCH  17  21
ENDBRANCH  16  17
ENDBRANCH   1  16
TORSDOF 8
ENDMDL
MODEL 3
REMARK VINA RESULT:      -7.5      1.136      1.777
REMARK  Name = 
REMARK  8 active torsions:
REMARK  status: ('A' for Active; 'I' for Inactive)
REMARK    1  A    between atoms: N_1  and  C_2
REMARK    2  A    between atoms: C_2  and  C_3
REMARK    3  A    between atoms: C_2  and  C_18
REMARK    4  A    between atoms: C_3  and  C_4
REMARK    5  A    between atoms: C_4  and  N_5
REMARK    6  A    between atoms: C_8  and  C_9
REMARK    7  A    between atoms: C_13  and  O_14
REMARK    8  A    between atoms: C_18  and  C_19
REMARK                            x       y       z     vdW  Elec       q    Type
REMARK                         _______ _______ _______ _____ _____    ______ ____
ROOT
ATOM      1  C   UNL     1       1.701   7.337  19.602  0.00  0.00    +0.000 C 
ENDROOT
BRANCH   1   2
ATOM      2  N   UNL     1       1.941   5.899  19.307  0.00  0.00    +0.000 NA
ATOM      3  C   UNL     1       2.304   5.723  17.880  0.00  0.00    +0.000 C 
ATOM      4  C   UNL     1       2.769   4.288  17.554  0.00  0.00    +0.000 C 
ATOM      5  C   UNL     1       3.927   3.837  18.465  0.00  0.00    +0.000 C 
ATOM      6  C   UNL     1       3.405   3.968  19.912  0.00  0.00    +0.000 C 
ATOM      7  C   UNL     1       3.006   5.416  20.217  0.00  0.00    +0.000 C 
BRANCH   5   8
ATOM      8  C   UNL     1       5.272   4.555  18.247  0.00  0.00    +0.000 A 
ATOM      9  C   UNL     1       6.062   5.081  19.298  0.00  0.00    +0.000 A 
ATOM     10  C   UNL     1       7.279   5.712  19.036  0.00  0.00    +0.000 A 
ATOM     11  C   UNL     1       7.730   5.854  17.726  0.00  0.00    +0.000 A 
ATOM     12  C   UNL     1       6.955   5.369  16.665  0.00  0.00    +0.000 A 
ATOM     13  C   UNL     1       5.738   4.730  16.927  0.00  0.00    +0.000 A 
BRANCH  12  14
ATOM     14  O   UNL     1       7.369   5.513  15.391  0.00  0.00    +0.000 OA
ATOM     15  H   UNL     1       8.307   5.499  15.150  0.00  0.00    +0.000 HD
ENDBRANCH  12  14
ENDBRANCH   5   8
ENDBRANCH   1   2
BRANCH   1  16
ATOM     16  C   UNL     1       2.323   8.289  18.561  0.00  0.00    +0.000 C 
BRANCH  16  17
ATOM     17  C   UNL     1       1.331   9.345  18.026  0.00  0.00    +0.000 C 
BRANCH  17  18
ATOM     18  N   UNL     1       2.066  10.481  17.462  0.00  0.00    +0.000 NA
ATOM     19  H   UNL     1       1.952  11.317  18.081  0.00  0.00    +0.000 HD
ATOM     20  H   UNL     1       1.694  10.716  16.512  0.00  0.00    +0.000 HD
ENDBRANCH  17  18
BRANCH  17  21
ATOM     21  C   UNL     1       0.377   9.841  19.134  0.00  0.00    +0.000 C 
BRANCH  21  22
ATOM     22  C   UNL     1      -0.921  10.355  18.575  0.00  0.00    +0.000 A 
ATOM     23  C   UNL     1      -1.631  11.362  19.245  0.00  0.00    +0.000 A 
ATOM     24  C   UNL     1      -2.846  11.825  18.729  0.00  0.00    +0.000 A 
ATOM     25  C   UNL     1      -3.359  11.285  17.546  0.00  0.00    +0.000 A 
ATOM     26  F   UNL     1      -4.539  11.735  17.054  0.00  0.00    +0.000 F 
ATOM     27  C   UNL     1      -2.656  10.279  16.874  0.00  0.00    +0.000 A 
ATOM     28  F   UNL     1      -3.152   9.748  15.728  0.00  0.00    +0.000 F 
ATOM     29  C   UNL     1      -1.443   9.813  17.387  0.00  0.00    +0.000 A 
ENDBRANCH  21  22
ENDBRANCH  17  21
ENDBRANCH  16  17
ENDBRANCH   1  16
TORSDOF 8
ENDMDL
MODEL 4
REMARK VINA RESULT:      -7.5      2.172      2.910
REMARK  Name = 
REMARK  8 active torsions:
REMARK  status: ('A' for Active; 'I' for Inactive)
REMARK    1  A    between atoms: N_1  and  C_2
REMARK    2  A    between atoms: C_2  and  C_3
REMARK    3  A    between atoms: C_2  and  C_18
REMARK    4  A    between atoms: C_3  and  C_4
REMARK    5  A    between atoms: C_4  and  N_5
REMARK    6  A    between atoms: C_8  and  C_9
REMARK    7  A    between atoms: C_13  and  O_14
REMARK    8  A    between atoms: C_18  and  C_19
REMARK                            x       y       z     vdW  Elec       q    Type
REMARK                         _______ _______ _______ _____ _____    ______ ____
ROOT
ATOM      1  C   UNL     1       0.935   4.344  20.379  0.00  0.00    +0.000 C 
ENDROOT
BRANCH   1   2
ATOM      2  N   UNL     1       1.610   3.357  19.496  0.00  0.00    +0.000 NA
ATOM      3  C   UNL     1       1.603   3.836  18.093  0.00  0.00    +0.000 C 
ATOM      4  C   UNL     1       2.467   2.964  17.158  0.00  0.00    +0.000 C 
ATOM      5  C   UNL     1       3.913   2.825  17.673  0.00  0.00    +0.000 C 
ATOM      6  C   UNL     1       3.802   2.230  19.093  0.00  0.00    +0.000 C 
ATOM      7  C   UNL     1       2.987   3.150  20.007  0.00  0.00    +0.000 C 
BRANCH   5   8
ATOM      8  C   UNL     1       4.768   4.105  17.626  0.00  0.00    +0.000 A 
ATOM      9  C   UNL     1       5.624   4.518  18.676  0.00  0.00    +0.000 A 
ATOM     10  C   UNL     1       6.383   5.684  18.568  0.00  0.00    +0.000 A 
ATOM     11  C   UNL     1       6.294   6.477  17.426  0.00  0.00    +0.000 A 
ATOM     12  C   UNL     1       5.433   6.110  16.386  0.00  0.00    +0.000 A 
ATOM     13  C   UNL     1       4.677   4.936  16.490  0.00  0.00    +0.000 A 
BRANCH  12  14
ATOM     14  O   UNL     1       5.324   6.875  15.282  0.00  0.00    +0.000 OA
ATOM     15  H   UNL     1       5.002   7.788  15.320  0.00  0.00    +0.000 HD
ENDBRANCH  12  14
ENDBRANCH   5   8
ENDBRANCH   1   2
BRANCH   1  16
ATOM     16  C   UNL     1       1.891   5.411  20.950  0.00  0.00    +0.000 C 
BRANCH  16  17
ATOM     17  C   UNL     1       1.711   6.804  20.307  0.00  0.00    +0.000 C 
BRANCH  17  18
ATOM     18  N   UNL     1       2.619   6.949  19.165  0.00  0.00    +0.000 NA
ATOM     19  H   UNL     1       2.187   6.517  18.315  0.00  0.00    +0.000 HD
ATOM     20  H   UNL     1       3.526   6.465  19.361  0.00  0.00    +0.000 HD
ENDBRANCH  17  18
BRANCH  17  21
ATOM     21  C   UNL     1       1.968   7.936  21.324  0.00  0.00    +0.000 C 
BRANCH  21  22
ATOM     22  C   UNL     1       0.921   9.014  21.248  0.00  0.00    +0.000 A 
ATOM     23  C   UNL     1       0.610   9.613  20.019  0.00  0.00    +0.000 A 
ATOM     24  C   UNL     1      -0.352  10.625  19.956  0.00  0.00    +0.000 A 
ATOM     25  C   UNL     1      -1.007  11.046  21.118  0.00  0.00    +0.000 A 
ATOM     26  F   UNL     1      -1.936  12.031  21.051  0.00  0.00    +0.000 F 
ATOM     27  C   UNL     1      -0.700  10.452  22.347  0.00  0.00    +0.000 A 
ATOM     28  F   UNL     1      -1.329  10.860  23.478  0.00  0.00    +0.000 F 
ATOM     29  C   UNL     1       0.262   9.442  22.414  0.00  0.00    +0.000 A 
ENDBRANCH  21  22
ENDBRANCH  17  21
ENDBRANCH  16  17
ENDBRANCH   1  16
TORSDOF 8
ENDMDL
MODEL 5
REMARK VINA RESULT:      -7.5      2.521      3.388
REMARK  Name = 
REMARK  8 active torsions:
REMARK  status: ('A' for Active; 'I' for Inactive)
REMARK    1  A    between atoms: N_1  and  C_2
REMARK    2  A    between atoms: C_2  and  C_3
REMARK    3  A    between atoms: C_2  and  C_18
REMARK    4  A    between atoms: C_3  and  C_4
REMARK    5  A    between atoms: C_4  and  N_5
REMARK    6  A    between atoms: C_8  and  C_9
REMARK    7  A    between atoms: C_13  and  O_14
REMARK    8  A    between atoms: C_18  and  C_19
REMARK                            x       y       z     vdW  Elec       q    Type
REMARK                         _______ _______ _______ _____ _____    ______ ____
ROOT
ATOM      1  C   UNL     1       0.827   4.453  20.302  0.00  0.00    +0.000 C 
ENDROOT
BRANCH   1   2
ATOM      2  N   UNL     1       1.499   3.476  19.405  0.00  0.00    +0.000 NA
ATOM      3  C   UNL     1       1.577   4.017  18.026  0.00  0.00    +0.000 C 
ATOM      4  C   UNL     1       2.446   3.149  17.092  0.00  0.00    +0.000 C 
ATOM      5  C   UNL     1       3.859   2.922  17.663  0.00  0.00    +0.000 C 
ATOM      6  C   UNL     1       3.657   2.270  19.048  0.00  0.00    +0.000 C 
ATOM      7  C   UNL     1       2.840   3.184  19.967  0.00  0.00    +0.000 C 
BRANCH   5   8
ATOM      8  C   UNL     1       4.769   4.164  17.714  0.00  0.00    +0.000 A 
ATOM      9  C   UNL     1       4.775   5.175  16.722  0.00  0.00    +0.000 A 
ATOM     10  C   UNL     1       5.616   6.284  16.832  0.00  0.00    +0.000 A 
ATOM     11  C   UNL     1       6.484   6.403  17.914  0.00  0.00    +0.000 A 
ATOM     12  C   UNL     1       6.521   5.404  18.893  0.00  0.00    +0.000 A 
ATOM     13  C   UNL     1       5.673   4.295  18.788  0.00  0.00    +0.000 A 
BRANCH  12  14
ATOM     14  O   UNL     1       7.367   5.496  19.938  0.00  0.00    +0.000 OA
ATOM     15  H   UNL     1       7.898   4.744  20.238  0.00  0.00    +0.000 HD
ENDBRANCH  12  14
ENDBRANCH   5   8
ENDBRANCH   1   2
BRANCH   1  16
ATOM     16  C   UNL     1       1.795   5.473  20.935  0.00  0.00    +0.000 C 
BRANCH  16  17
ATOM     17  C   UNL     1       1.587   6.915  20.424  0.00  0.00    +0.000 C 
BRANCH  17  18
ATOM     18  N   UNL     1       2.448   7.165  19.265  0.00  0.00    +0.000 NA
ATOM     19  H   UNL     1       2.993   6.301  19.038  0.00  0.00    +0.000 HD
ATOM     20  H   UNL     1       3.121   7.939  19.475  0.00  0.00    +0.000 HD
ENDBRANCH  17  18
BRANCH  17  21
ATOM     21  C   UNL     1       1.881   7.955  21.526  0.00  0.00    +0.000 C 
BRANCH  21  22
ATOM     22  C   UNL     1       0.835   9.036  21.578  0.00  0.00    +0.000 A 
ATOM     23  C   UNL     1       0.279   9.423  22.806  0.00  0.00    +0.000 A 
ATOM     24  C   UNL     1      -0.704  10.417  22.848  0.00  0.00    +0.000 A 
ATOM     25  C   UNL     1      -1.139  11.026  21.667  0.00  0.00    +0.000 A 
ATOM     26  F   UNL     1      -2.095  11.986  21.714  0.00  0.00    +0.000 F 
ATOM     27  C   UNL     1      -0.588  10.642  20.439  0.00  0.00    +0.000 A 
ATOM     28  F   UNL     1      -1.010  11.227  19.290  0.00  0.00    +0.000 F 
ATOM     29  C   UNL     1       0.392   9.649  20.393  0.00  0.00    +0.000 A 
ENDBRANCH  21  22
ENDBRANCH  17  21
ENDBRANCH  16  17
ENDBRANCH   1  16
TORSDOF 8
ENDMDL
MODEL 6
REMARK VINA RESULT:      -7.4      0.885      1.567
REMARK  Name = 
REMARK  8 active torsions:
REMARK  status: ('A' for Active; 'I' for Inactive)
REMARK    1  A    between atoms: N_1  and  C_2
REMARK    2  A    between atoms: C_2  and  C_3
REMARK    3  A    between atoms: C_2  and  C_18
REMARK    4  A    between atoms: C_3  and  C_4
REMARK    5  A    between atoms: C_4  and  N_5
REMARK    6  A    between atoms: C_8  and  C_9
REMARK    7  A    between atoms: C_13  and  O_14
REMARK    8  A    between atoms: C_18  and  C_19
REMARK                            x       y       z     vdW  Elec       q    Type
REMARK                         _______ _______ _______ _____ _____    ______ ____
ROOT
ATOM      1  C   UNL     1       2.497   7.087  19.372  0.00  0.00    +0.000 C 
ENDROOT
BRANCH   1   2
ATOM      2  N   UNL     1       2.617   5.614  19.216  0.00  0.00    +0.000 NA
ATOM      3  C   UNL     1       2.284   5.216  17.827  0.00  0.00    +0.000 C 
ATOM      4  C   UNL     1       2.589   3.731  17.540  0.00  0.00    +0.000 C 
ATOM      5  C   UNL     1       4.050   3.368  17.868  0.00  0.00    +0.000 C 
ATOM      6  C   UNL     1       4.253   3.731  19.355  0.00  0.00    +0.000 C 
ATOM      7  C   UNL     1       3.998   5.223  19.592  0.00  0.00    +0.000 C 
BRANCH   5   8
ATOM      8  C   UNL     1       5.118   3.990  16.950  0.00  0.00    +0.000 A 
ATOM      9  C   UNL     1       5.952   5.069  17.332  0.00  0.00    +0.000 A 
ATOM     10  C   UNL     1       6.911   5.582  16.456  0.00  0.00    +0.000 A 
ATOM     11  C   UNL     1       7.051   5.049  15.177  0.00  0.00    +0.000 A 
ATOM     12  C   UNL     1       6.220   4.002  14.762  0.00  0.00    +0.000 A 
ATOM     13  C   UNL     1       5.263   3.483  15.642  0.00  0.00    +0.000 A 
BRANCH  12  14
ATOM     14  O   UNL     1       6.331   3.487  13.522  0.00  0.00    +0.000 OA
ATOM     15  H   UNL     1       7.150   3.554  13.009  0.00  0.00    +0.000 HD
ENDBRANCH  12  14
ENDBRANCH   5   8
ENDBRANCH   1   2
BRANCH   1  16
ATOM     16  C   UNL     1       2.313   7.833  18.034  0.00  0.00    +0.000 C 
BRANCH  16  17
ATOM     17  C   UNL     1       1.381   9.059  18.139  0.00  0.00    +0.000 C 
BRANCH  17  18
ATOM     18  N   UNL     1       2.037  10.238  17.565  0.00  0.00    +0.000 NA
ATOM     19  H   UNL     1       1.989  11.032  18.244  0.00  0.00    +0.000 HD
ATOM     20  H   UNL     1       1.557  10.525  16.681  0.00  0.00    +0.000 HD
ENDBRANCH  17  18
BRANCH  17  21
ATOM     21  C   UNL     1       0.982   9.346  19.602  0.00  0.00    +0.000 C 
BRANCH  21  22
ATOM     22  C   UNL     1      -0.026  10.458  19.707  0.00  0.00    +0.000 A 
ATOM     23  C   UNL     1       0.190  11.527  20.588  0.00  0.00    +0.000 A 
ATOM     24  C   UNL     1      -0.758  12.551  20.694  0.00  0.00    +0.000 A 
ATOM     25  C   UNL     1      -1.924  12.511  19.925  0.00  0.00    +0.000 A 
ATOM     26  F   UNL     1      -2.840  13.503  20.035  0.00  0.00    +0.000 F 
ATOM     27  C   UNL     1      -2.145  11.445  19.045  0.00  0.00    +0.000 A 
ATOM     28  F   UNL     1      -3.277  11.399  18.299  0.00  0.00    +0.000 F 
ATOM     29  C   UNL     1      -1.202  10.421  18.938  0.00  0.00    +0.000 A 
ENDBRANCH  21  22
ENDBRANCH  17  21
ENDBRANCH  16  17
ENDBRANCH   1  16
TORSDOF 8
ENDMDL
MODEL 7
REMARK VINA RESULT:      -7.4      2.292      3.070
REMARK  Name = 
REMARK  8 active torsions:
REMARK  status: ('A' for Active; 'I' for Inactive)
REMARK    1  A    between atoms: N_1  and  C_2
REMARK    2  A    between atoms: C_2  and  C_3
REMARK    3  A    between atoms: C_2  and  C_18
REMARK    4  A    between atoms: C_3  and  C_4
REMARK    5  A    between atoms: C_4  and  N_5
REMARK    6  A    between atoms: C_8  and  C_9
REMARK    7  A    between atoms: C_13  and  O_14
REMARK    8  A    between atoms: C_18  and  C_19
REMARK                            x       y       z     vdW  Elec       q    Type
REMARK                         _______ _______ _______ _____ _____    ______ ____
ROOT
ATOM      1  C   UNL     1       0.882   4.494  20.292  0.00  0.00    +0.000 C 
ENDROOT
BRANCH   1   2
ATOM      2  N   UNL     1       1.595   3.458  19.498  0.00  0.00    +0.000 NA
ATOM      3  C   UNL     1       1.628   3.843  18.067  0.00  0.00    +0.000 C 
ATOM      4  C   UNL     1       2.531   2.922  17.220  0.00  0.00    +0.000 C 
ATOM      5  C   UNL     1       3.960   2.834  17.789  0.00  0.00    +0.000 C 
ATOM      6  C   UNL     1       3.809   2.333  19.241  0.00  0.00    +0.000 C 
ATOM      7  C   UNL     1       2.956   3.301  20.066  0.00  0.00    +0.000 C 
BRANCH   5   8
ATOM      8  C   UNL     1       4.804   4.118  17.684  0.00  0.00    +0.000 A 
ATOM      9  C   UNL     1       5.718   4.542  18.679  0.00  0.00    +0.000 A 
ATOM     10  C   UNL     1       6.463   5.712  18.520  0.00  0.00    +0.000 A 
ATOM     11  C   UNL     1       6.303   6.497  17.381  0.00  0.00    +0.000 A 
ATOM     12  C   UNL     1       5.385   6.118  16.395  0.00  0.00    +0.000 A 
ATOM     13  C   UNL     1       4.643   4.941  16.550  0.00  0.00    +0.000 A 
BRANCH  12  14
ATOM     14  O   UNL     1       5.207   6.875  15.295  0.00  0.00    +0.000 OA
ATOM     15  H   UNL     1       4.337   7.215  15.040  0.00  0.00    +0.000 HD
ENDBRANCH  12  14
ENDBRANCH   5   8
ENDBRANCH   1   2
BRANCH   1  16
ATOM     16  C   UNL     1       1.823   5.542  20.920  0.00  0.00    +0.000 C 
BRANCH  16  17
ATOM     17  C   UNL     1       1.576   6.976  20.404  0.00  0.00    +0.000 C 
BRANCH  17  18
ATOM     18  N   UNL     1       2.361   7.214  19.189  0.00  0.00    +0.000 NA
ATOM     19  H   UNL     1       2.168   6.458  18.492  0.00  0.00    +0.000 HD
ATOM     20  H   UNL     1       3.383   7.208  19.413  0.00  0.00    +0.000 HD
ENDBRANCH  17  18
BRANCH  17  21
ATOM     21  C   UNL     1       1.935   8.032  21.471  0.00  0.00    +0.000 C 
BRANCH  21  22
ATOM     22  C   UNL     1       0.868   9.085  21.607  0.00  0.00    +0.000 A 
ATOM     23  C   UNL     1       0.293   9.352  22.857  0.00  0.00    +0.000 A 
ATOM     24  C   UNL     1      -0.709  10.320  22.975  0.00  0.00    +0.000 A 
ATOM     25  C   UNL     1      -1.144  11.023  21.848  0.00  0.00    +0.000 A 
ATOM     26  F   UNL     1      -2.119  11.957  21.969  0.00  0.00    +0.000 F 
ATOM     27  C   UNL     1      -0.574  10.760  20.597  0.00  0.00    +0.000 A 
ATOM     28  F   UNL     1      -0.996  11.436  19.500  0.00  0.00    +0.000 F 
ATOM     29  C   UNL     1       0.425   9.793  20.475  0.00  0.00    +0.000 A 
ENDBRANCH  21  22
ENDBRANCH  17  21
ENDBRANCH  16  17
ENDBRANCH   1  16
TORSDOF 8
ENDMDL
MODEL 8
REMARK VINA RESULT:      -7.3      1.082      1.667
REMARK  Name = 
REMARK  8 active torsions:
REMARK  status: ('A' for Active; 'I' for Inactive)
REMARK    1  A    between atoms: N_1  and  C_2
REMARK    2  A    between atoms: C_2  and  C_3
REMARK    3  A    between atoms: C_2  and  C_18
REMARK    4  A    between atoms: C_3  and  C_4
REMARK    5  A    between atoms: C_4  and  N_5
REMARK    6  A    between atoms: C_8  and  C_9
REMARK    7  A    between atoms: C_13  and  O_14
REMARK    8  A    between atoms: C_18  and  C_19
REMARK                            x       y       z     vdW  Elec       q    Type
REMARK                         _______ _______ _______ _____ _____    ______ ____
ROOT
ATOM      1  C   UNL     1       2.609   7.724  19.167  0.00  0.00    +0.000 C 
ENDROOT
BRANCH   1   2
ATOM      2  N   UNL     1       2.466   6.244  19.154  0.00  0.00    +0.000 NA
ATOM      3  C   UNL     1       2.242   5.763  17.769  0.00  0.00    +0.000 C 
ATOM      4  C   UNL     1       2.293   4.225  17.654  0.00  0.00    +0.000 C 
ATOM      5  C   UNL     1       3.605   3.648  18.219  0.00  0.00    +0.000 C 
ATOM      6  C   UNL     1       3.683   4.129  19.685  0.00  0.00    +0.000 C 
ATOM      7  C   UNL     1       3.688   5.659  19.756  0.00  0.00    +0.000 C 
BRANCH   5   8
ATOM      8  C   UNL     1       4.880   3.968  17.416  0.00  0.00    +0.000 A 
ATOM      9  C   UNL     1       6.099   4.379  18.007  0.00  0.00    +0.000 A 
ATOM     10  C   UNL     1       7.224   4.643  17.224  0.00  0.00    +0.000 A 
ATOM     11  C   UNL     1       7.160   4.525  15.838  0.00  0.00    +0.000 A 
ATOM     12  C   UNL     1       5.959   4.150  15.225  0.00  0.00    +0.000 A 
ATOM     13  C   UNL     1       4.832   3.878  16.009  0.00  0.00    +0.000 A 
BRANCH  12  14
ATOM     14  O   UNL     1       5.875   4.047  13.884  0.00  0.00    +0.000 OA
ATOM     15  H   UNL     1       6.300   3.327  13.396  0.00  0.00    +0.000 HD
ENDBRANCH  12  14
ENDBRANCH   5   8
ENDBRANCH   1   2
BRANCH   1  16
ATOM     16  C   UNL     1       1.293   8.465  19.478  0.00  0.00    +0.000 C 
BRANCH  16  17
ATOM     17  C   UNL     1       0.832   9.400  18.339  0.00  0.00    +0.000 C 
BRANCH  17  18
ATOM     18  N   UNL     1       1.988   9.835  17.548  0.00  0.00    +0.000 NA
ATOM     19  H   UNL     1       2.423  10.675  17.996  0.00  0.00    +0.000 HD
ATOM     20  H   UNL     1       1.687  10.091  16.579  0.00  0.00    +0.000 HD
ENDBRANCH  17  18
BRANCH  17  21
ATOM     21  C   UNL     1       0.082  10.633  18.886  0.00  0.00    +0.000 C 
BRANCH  21  22
ATOM     22  C   UNL     1      -1.309  10.746  18.323  0.00  0.00    +0.000 A 
ATOM     23  C   UNL     1      -2.258  11.572  18.941  0.00  0.00    +0.000 A 
ATOM     24  C   UNL     1      -3.554  11.661  18.423  0.00  0.00    +0.000 A 
ATOM     25  C   UNL     1      -3.910  10.926  17.288  0.00  0.00    +0.000 A 
ATOM     26  F   UNL     1      -5.168  11.013  16.793  0.00  0.00    +0.000 F 
ATOM     27  C   UNL     1      -2.966  10.099  16.668  0.00  0.00    +0.000 A 
ATOM     28  F   UNL     1      -3.308   9.380  15.569  0.00  0.00    +0.000 F 
ATOM     29  C   UNL     1      -1.672  10.006  17.183  0.00  0.00    +0.000 A 
ENDBRANCH  21  22
ENDBRANCH  17  21
ENDBRANCH  16  17
ENDBRANCH   1  16
TORSDOF 8
ENDMDL
MODEL 9
REMARK VINA RESULT:      -7.3      5.031      6.633
REMARK  Name = 
REMARK  8 active torsions:
REMARK  status: ('A' for Active; 'I' for Inactive)
REMARK    1  A    between atoms: N_1  and  C_2
REMARK    2  A    between atoms: C_2  and  C_3
REMARK    3  A    between atoms: C_2  and  C_18
REMARK    4  A    between atoms: C_3  and  C_4
REMARK    5  A    between atoms: C_4  and  N_5
REMARK    6  A    between atoms: C_8  and  C_9
REMARK    7  A    between atoms: C_13  and  O_14
REMARK    8  A    between atoms: C_18  and  C_19
REMARK                            x       y       z     vdW  Elec       q    Type
REMARK                         _______ _______ _______ _____ _____    ______ ____
ROOT
ATOM      1  C   UNL     1       3.525   7.060  17.758  0.00  0.00    +0.000 C 
ENDROOT
BRANCH   1   2
ATOM      2  N   UNL     1       4.851   6.469  18.080  0.00  0.00    +0.000 NA
ATOM      3  C   UNL     1       4.810   4.996  17.913  0.00  0.00    +0.000 C 
ATOM      4  C   UNL     1       6.202   4.342  18.027  0.00  0.00    +0.000 C 
ATOM      5  C   UNL     1       7.215   4.968  17.048  0.00  0.00    +0.000 C 
ATOM      6  C   UNL     1       7.248   6.476  17.378  0.00  0.00    +0.000 C 
ATOM      7  C   UNL     1       5.861   7.103  17.199  0.00  0.00    +0.000 C 
BRANCH   5   8
ATOM      8  C   UNL     1       6.966   4.687  15.554  0.00  0.00    +0.000 A 
ATOM      9  C   UNL     1       6.035   3.732  15.078  0.00  0.00    +0.000 A 
ATOM     10  C   UNL     1       5.846   3.533  13.710  0.00  0.00    +0.000 A 
ATOM     11  C   UNL     1       6.590   4.260  12.784  0.00  0.00    +0.000 A 
ATOM     12  C   UNL     1       7.538   5.190  13.227  0.00  0.00    +0.000 A 
ATOM     13  C   UNL     1       7.724   5.395  14.599  0.00  0.00    +0.000 A 
BRANCH  12  14
ATOM     14  O   UNL     1       8.278   5.890  12.344  0.00  0.00    +0.000 OA
ATOM     15  H   UNL     1       9.120   6.299  12.590  0.00  0.00    +0.000 HD
ENDBRANCH  12  14
ENDBRANCH   5   8
ENDBRANCH   1   2
BRANCH   1  16
ATOM     16  C   UNL     1       2.341   6.129  18.090  0.00  0.00    +0.000 C 
BRANCH  16  17
ATOM     17  C   UNL     1       1.697   6.423  19.463  0.00  0.00    +0.000 C 
BRANCH  17  18
ATOM     18  N   UNL     1       2.655   7.115  20.329  0.00  0.00    +0.000 NA
ATOM     19  H   UNL     1       2.204   7.961  20.747  0.00  0.00    +0.000 HD
ATOM     20  H   UNL     1       3.489   7.420  19.774  0.00  0.00    +0.000 HD
ENDBRANCH  17  18
BRANCH  17  21
ATOM     21  C   UNL     1       1.213   5.128  20.151  0.00  0.00    +0.000 C 
BRANCH  21  22
ATOM     22  C   UNL     1       1.964   3.917  19.669  0.00  0.00    +0.000 A 
ATOM     23  C   UNL     1       1.571   3.262  18.492  0.00  0.00    +0.000 A 
ATOM     24  C   UNL     1       2.262   2.128  18.057  0.00  0.00    +0.000 A 
ATOM     25  C   UNL     1       3.345   1.638  18.792  0.00  0.00    +0.000 A 
ATOM     26  F   UNL     1       4.008   0.535  18.367  0.00  0.00    +0.000 F 
ATOM     27  C   UNL     1       3.741   2.286  19.968  0.00  0.00    +0.000 A 
ATOM     28  F   UNL     1       4.789   1.813  20.688  0.00  0.00    +0.000 F 
ATOM     29  C   UNL     1       3.053   3.419  20.407  0.00  0.00    +0.000 A 
ENDBRANCH  21  22
ENDBRANCH  17  21
ENDBRANCH  16  17
ENDBRANCH   1  16
TORSDOF 8
ENDMDL
