MODEL 1
REMARK VINA RESULT:      -7.4      0.000      0.000
REMARK  Name = 
REMARK  10 active torsions:
REMARK  status: ('A' for Active; 'I' for Inactive)
REMARK    1  A    between atoms: C_1  and  O_2
REMARK    2  A    between atoms: O_2  and  C_3
REMARK    3  A    between atoms: C_3  and  C_5
REMARK    4  A    between atoms: C_8  and  O_9
REMARK    5  A    between atoms: O_9  and  C_10
REMARK    6  A    between atoms: C_13  and  O_14
REMARK    7  A    between atoms: O_14  and  C_15
REMARK    8  A    between atoms: C_16  and  O_17
REMARK    9  A    between atoms: O_17  and  C_18
REMARK   10  A    between atoms: C_20  and  N_21
REMARK                            x       y       z     vdW  Elec       q    Type
REMARK                         _______ _______ _______ _____ _____    ______ ____
ROOT
ATOM      1  C   UNL     1       5.441   5.201  15.811  0.00  0.00    +0.000 A 
ATOM      2  C   UNL     1       5.597   6.443  16.440  0.00  0.00    +0.000 A 
ATOM      3  C   UNL     1       4.797   6.795  17.531  0.00  0.00    +0.000 A 
ATOM      4  C   UNL     1       3.867   5.889  18.058  0.00  0.00    +0.000 A 
ATOM      5  C   UNL     1       3.686   4.673  17.391  0.00  0.00    +0.000 A 
ATOM      6  C   UNL     1       4.463   4.312  16.279  0.00  0.00    +0.000 A 
ENDROOT
BRANCH   5   7
ATOM      7  N   UNL     1       2.680   3.729  17.837  0.00  0.00    +0.000 N 
ATOM      8  O   UNL     1       1.546   3.829  17.352  0.00  0.00    +0.000 OA
ATOM      9  O   UNL     1       3.052   2.849  18.629  0.00  0.00    +0.000 OA
ENDBRANCH   5   7
BRANCH   1  10
ATOM     10  C   UNL     1       6.329   4.889  14.661  0.00  0.00    +0.000 C 
ATOM     11  O   UNL     1       7.489   5.262  14.587  0.00  0.00    +0.000 OA
BRANCH  10  13
ATOM     12  C   UNL     1       6.492   3.641  12.698  0.00  0.00    +0.000 C 
ATOM     13  O   UNL     1       5.659   4.169  13.732  0.00  0.00    +0.000 OA
ENDBRANCH  10  13
ENDBRANCH   1  10
BRANCH   4  14
ATOM     14  O   UNL     1       3.138   6.175  19.194  0.00  0.00    +0.000 OA
BRANCH  14  15
ATOM     15  C   UNL     1       2.381   7.330  19.215  0.00  0.00    +0.000 A 
ATOM     16  C   UNL     1       2.173   7.976  18.000  0.00  0.00    +0.000 A 
ATOM     17  C   UNL     1       1.445   9.168  17.967  0.00  0.00    +0.000 A 
ATOM     18  C   UNL     1       0.904   9.712  19.140  0.00  0.00    +0.000 A 
ATOM     19  C   UNL     1       1.109   9.062  20.368  0.00  0.00    +0.000 A 
ATOM     20  C   UNL     1       1.822   7.855  20.386  0.00  0.00    +0.000 A 
BRANCH  18  21
ATOM     21  O   UNL     1       0.226  10.893  18.950  0.00  0.00    +0.000 OA
ATOM     22  C   UNL     1      -1.150  10.770  18.606  0.00  0.00    +0.000 C 
ENDBRANCH  18  21
BRANCH  19  23
ATOM     23  O   UNL     1       0.675   9.679  21.511  0.00  0.00    +0.000 OA
ATOM     24  C   UNL     1      -0.356   9.028  22.242  0.00  0.00    +0.000 C 
ENDBRANCH  19  23
ENDBRANCH  14  15
ENDBRANCH   4  14
TORSDOF 7
ENDMDL
MODEL 2
REMARK VINA RESULT:      -7.3      1.001      1.229
REMARK  Name = 
REMARK  10 active torsions:
REMARK  status: ('A' for Active; 'I' for Inactive)
REMARK    1  A    between atoms: C_1  and  O_2
REMARK    2  A    between atoms: O_2  and  C_3
REMARK    3  A    between atoms: C_3  and  C_5
REMARK    4  A    between atoms: C_8  and  O_9
REMARK    5  A    between atoms: O_9  and  C_10
REMARK    6  A    between atoms: C_13  and  O_14
REMARK    7  A    between atoms: O_14  and  C_15
REMARK    8  A    between atoms: C_16  and  O_17
REMARK    9  A    between atoms: O_17  and  C_18
REMARK   10  A    between atoms: C_20  and  N_21
REMARK                            x       y       z     vdW  Elec       q    Type
REMARK                         _______ _______ _______ _____ _____    ______ ____
ROOT
ATOM      1  C   UNL     1       5.551   4.704  16.826  0.00  0.00    +0.000 A 
ATOM      2  C   UNL     1       5.779   5.848  17.601  0.00  0.00    +0.000 A 
ATOM      3  C   UNL     1       4.797   6.325  18.474  0.00  0.00    +0.000 A 
ATOM      4  C   UNL     1       3.590   5.633  18.638  0.00  0.00    +0.000 A 
ATOM      5  C   UNL     1       3.354   4.521  17.822  0.00  0.00    +0.000 A 
ATOM      6  C   UNL     1       4.320   4.042  16.922  0.00  0.00    +0.000 A 
ENDROOT
BRANCH   5   7
ATOM      7  N   UNL     1       2.091   3.814  17.885  0.00  0.00    +0.000 N 
ATOM      8  O   UNL     1       2.030   2.812  18.609  0.00  0.00    +0.000 OA
ATOM      9  O   UNL     1       1.143   4.307  17.254  0.00  0.00    +0.000 OA
ENDBRANCH   5   7
BRANCH   1  10
ATOM     10  C   UNL     1       6.641   4.249  15.924  0.00  0.00    +0.000 C 
ATOM     11  O   UNL     1       7.810   4.572  16.065  0.00  0.00    +0.000 OA
BRANCH  10  13
ATOM     12  C   UNL     1       6.317   3.999  13.628  0.00  0.00    +0.000 C 
ATOM     13  O   UNL     1       6.141   3.464  14.941  0.00  0.00    +0.000 OA
ENDBRANCH  10  13
ENDBRANCH   1  10
BRANCH   4  14
ATOM     14  O   UNL     1       2.647   6.027  19.565  0.00  0.00    +0.000 OA
BRANCH  14  15
ATOM     15  C   UNL     1       2.109   7.294  19.459  0.00  0.00    +0.000 A 
ATOM     16  C   UNL     1       2.117   7.882  18.197  0.00  0.00    +0.000 A 
ATOM     17  C   UNL     1       1.618   9.178  18.036  0.00  0.00    +0.000 A 
ATOM     18  C   UNL     1       1.093   9.886  19.125  0.00  0.00    +0.000 A 
ATOM     19  C   UNL     1       1.082   9.295  20.399  0.00  0.00    +0.000 A 
ATOM     20  C   UNL     1       1.564   7.987  20.545  0.00  0.00    +0.000 A 
BRANCH  18  21
ATOM     21  O   UNL     1       0.654  11.151  18.813  0.00  0.00    +0.000 OA
ATOM     22  C   UNL     1       1.662  12.154  18.731  0.00  0.00    +0.000 C 
ENDBRANCH  18  21
BRANCH  19  23
ATOM     23  O   UNL     1       0.676  10.055  21.465  0.00  0.00    +0.000 OA
ATOM     24  C   UNL     1       0.331   9.360  22.656  0.00  0.00    +0.000 C 
ENDBRANCH  19  23
ENDBRANCH  14  15
ENDBRANCH   4  14
TORSDOF 7
ENDMDL
MODEL 3
REMARK VINA RESULT:      -7.2      2.046      7.397
REMARK  Name = 
REMARK  10 active torsions:
REMARK  status: ('A' for Active; 'I' for Inactive)
REMARK    1  A    between atoms: C_1  and  O_2
REMARK    2  A    between atoms: O_2  and  C_3
REMARK    3  A    between atoms: C_3  and  C_5
REMARK    4  A    between atoms: C_8  and  O_9
REMARK    5  A    between atoms: O_9  and  C_10
REMARK    6  A    between atoms: C_13  and  O_14
REMARK    7  A    between atoms: O_14  and  C_15
REMARK    8  A    between atoms: C_16  and  O_17
REMARK    9  A    between atoms: O_17  and  C_18
REMARK   10  A    between atoms: C_20  and  N_21
REMARK                            x       y       z     vdW  Elec       q    Type
REMARK                         _______ _______ _______ _____ _____    ______ ____
ROOT
ATOM      1  C   UNL     1       1.445   7.635  20.721  0.00  0.00    +0.000 A 
ATOM      2  C   UNL     1       2.157   7.814  19.528  0.00  0.00    +0.000 A 
ATOM      3  C   UNL     1       2.710   6.720  18.857  0.00  0.00    +0.000 A 
ATOM      4  C   UNL     1       2.510   5.416  19.329  0.00  0.00    +0.000 A 
ATOM      5  C   UNL     1       1.841   5.255  20.547  0.00  0.00    +0.000 A 
ATOM      6  C   UNL     1       1.300   6.344  21.248  0.00  0.00    +0.000 A 
ENDROOT
BRANCH   5   7
ATOM      7  N   UNL     1       1.677   3.938  21.129  0.00  0.00    +0.000 N 
ATOM      8  O   UNL     1       2.318   3.682  22.157  0.00  0.00    +0.000 OA
ATOM      9  O   UNL     1       0.852   3.186  20.587  0.00  0.00    +0.000 OA
ENDBRANCH   5   7
BRANCH   1  10
ATOM     10  C   UNL     1       0.878   8.841  21.379  0.00  0.00    +0.000 C 
ATOM     11  O   UNL     1       1.453   9.917  21.419  0.00  0.00    +0.000 OA
BRANCH  10  13
ATOM     12  C   UNL     1      -0.741   9.487  22.927  0.00  0.00    +0.000 C 
ATOM     13  O   UNL     1      -0.326   8.556  21.927  0.00  0.00    +0.000 OA
ENDBRANCH  10  13
ENDBRANCH   1  10
BRANCH   4  14
ATOM     14  O   UNL     1       2.960   4.314  18.631  0.00  0.00    +0.000 OA
BRANCH  14  15
ATOM     15  C   UNL     1       4.139   4.423  17.920  0.00  0.00    +0.000 A 
ATOM     16  C   UNL     1       4.054   4.330  16.534  0.00  0.00    +0.000 A 
ATOM     17  C   UNL     1       5.218   4.397  15.764  0.00  0.00    +0.000 A 
ATOM     18  C   UNL     1       6.470   4.576  16.370  0.00  0.00    +0.000 A 
ATOM     19  C   UNL     1       6.559   4.672  17.768  0.00  0.00    +0.000 A 
ATOM     20  C   UNL     1       5.382   4.626  18.528  0.00  0.00    +0.000 A 
BRANCH  18  21
ATOM     21  O   UNL     1       7.522   4.609  15.485  0.00  0.00    +0.000 OA
ATOM     22  C   UNL     1       7.185   4.897  14.131  0.00  0.00    +0.000 C 
ENDBRANCH  18  21
BRANCH  19  23
ATOM     23  O   UNL     1       7.804   4.723  18.339  0.00  0.00    +0.000 OA
ATOM     24  C   UNL     1       8.012   5.706  19.345  0.00  0.00    +0.000 C 
ENDBRANCH  19  23
ENDBRANCH  14  15
ENDBRANCH   4  14
TORSDOF 7
ENDMDL
MODEL 4
REMARK VINA RESULT:      -7.0      0.990      1.384
REMARK  Name = 
REMARK  10 active torsions:
REMARK  status: ('A' for Active; 'I' for Inactive)
REMARK    1  A    between atoms: C_1  and  O_2
REMARK    2  A    between atoms: O_2  and  C_3
REMARK    3  A    between atoms: C_3  and  C_5
REMARK    4  A    between atoms: C_8  and  O_9
REMARK    5  A    between atoms: O_9  and  C_10
REMARK    6  A    between atoms: C_13  and  O_14
REMARK    7  A    between atoms: O_14  and  C_15
REMARK    8  A    between atoms: C_16  and  O_17
REMARK    9  A    between atoms: O_17  and  C_18
REMARK   10  A    between atoms: C_20  and  N_21
REMARK                            x       y       z     vdW  Elec       q    Type
REMARK                         _______ _______ _______ _____ _____    ______ ____
ROOT
ATOM      1  C   UNL     1       5.782   4.836  15.535  0.00  0.00    +0.000 A 
ATOM      2  C   UNL     1       6.120   5.946  16.321  0.00  0.00    +0.000 A 
ATOM      3  C   UNL     1       5.397   6.248  17.478  0.00  0.00    +0.000 A 
ATOM      4  C   UNL     1       4.360   5.411  17.911  0.00  0.00    +0.000 A 
ATOM      5  C   UNL     1       3.999   4.335  17.092  0.00  0.00    +0.000 A 
ATOM      6  C   UNL     1       4.699   4.032  15.913  0.00  0.00    +0.000 A 
ENDROOT
BRANCH   5   7
ATOM      7  N   UNL     1       2.880   3.484  17.443  0.00  0.00    +0.000 N 
ATOM      8  O   UNL     1       3.125   2.444  18.067  0.00  0.00    +0.000 OA
ATOM      9  O   UNL     1       1.748   3.898  17.144  0.00  0.00    +0.000 OA
ENDBRANCH   5   7
BRANCH   1  10
ATOM     10  C   UNL     1       6.597   4.571  14.322  0.00  0.00    +0.000 C 
ATOM     11  O   UNL     1       6.377   3.649  13.552  0.00  0.00    +0.000 OA
BRANCH  10  13
ATOM     12  C   UNL     1       8.237   5.495  12.945  0.00  0.00    +0.000 C 
ATOM     13  O   UNL     1       7.603   5.471  14.225  0.00  0.00    +0.000 OA
ENDBRANCH  10  13
ENDBRANCH   1  10
BRANCH   4  14
ATOM     14  O   UNL     1       3.697   5.631  19.101  0.00  0.00    +0.000 OA
BRANCH  14  15
ATOM     15  C   UNL     1       2.864   6.728  19.196  0.00  0.00    +0.000 A 
ATOM     16  C   UNL     1       2.838   7.602  18.113  0.00  0.00    +0.000 A 
ATOM     17  C   UNL     1       2.041   8.748  18.168  0.00  0.00    +0.000 A 
ATOM     18  C   UNL     1       1.250   9.019  19.293  0.00  0.00    +0.000 A 
ATOM     19  C   UNL     1       1.272   8.139  20.388  0.00  0.00    +0.000 A 
ATOM     20  C   UNL     1       2.058   6.981  20.312  0.00  0.00    +0.000 A 
BRANCH  18  21
ATOM     21  O   UNL     1       0.532  10.188  19.206  0.00  0.00    +0.000 OA
ATOM     22  C   UNL     1       1.269  11.340  18.806  0.00  0.00    +0.000 C 
ENDBRANCH  18  21
BRANCH  19  23
ATOM     23  O   UNL     1       0.586   8.492  21.520  0.00  0.00    +0.000 OA
ATOM     24  C   UNL     1       1.259   9.339  22.442  0.00  0.00    +0.000 C 
ENDBRANCH  19  23
ENDBRANCH  14  15
ENDBRANCH   4  14
TORSDOF 7
ENDMDL
MODEL 5
REMARK VINA RESULT:      -6.9      1.110      2.005
REMARK  Name = 
REMARK  10 active torsions:
REMARK  status: ('A' for Active; 'I' for Inactive)
REMARK    1  A    between atoms: C_1  and  O_2
REMARK    2  A    between atoms: O_2  and  C_3
REMARK    3  A    between atoms: C_3  and  C_5
REMARK    4  A    between atoms: C_8  and  O_9
REMARK    5  A    between atoms: O_9  and  C_10
REMARK    6  A    between atoms: C_13  and  O_14
REMARK    7  A    between atoms: O_14  and  C_15
REMARK    8  A    between atoms: C_16  and  O_17
REMARK    9  A    between atoms: O_17  and  C_18
REMARK   10  A    between atoms: C_20  and  N_21
REMARK                            x       y       z     vdW  Elec       q    Type
REMARK                         _______ _______ _______ _____ _____    ______ ____
ROOT
ATOM      1  C   UNL     1       5.807   4.895  15.669  0.00  0.00    +0.000 A 
ATOM      2  C   UNL     1       6.110   5.922  16.574  0.00  0.00    +0.000 A 
ATOM      3  C   UNL     1       5.350   6.097  17.733  0.00  0.00    +0.000 A 
ATOM      4  C   UNL     1       4.309   5.212  18.046  0.00  0.00    +0.000 A 
ATOM      5  C   UNL     1       3.985   4.223  17.111  0.00  0.00    +0.000 A 
ATOM      6  C   UNL     1       4.722   4.048  15.929  0.00  0.00    +0.000 A 
ENDROOT
BRANCH   5   7
ATOM      7  N   UNL     1       2.865   3.332  17.339  0.00  0.00    +0.000 N 
ATOM      8  O   UNL     1       1.736   3.744  17.048  0.00  0.00    +0.000 OA
ATOM      9  O   UNL     1       3.134   2.192  17.751  0.00  0.00    +0.000 OA
ENDBRANCH   5   7
BRANCH   1  10
ATOM     10  C   UNL     1       6.661   4.762  14.460  0.00  0.00    +0.000 C 
ATOM     11  O   UNL     1       7.671   5.421  14.275  0.00  0.00    +0.000 OA
BRANCH  10  13
ATOM     12  C   UNL     1       6.783   3.797  12.340  0.00  0.00    +0.000 C 
ATOM     13  O   UNL     1       6.141   3.841  13.616  0.00  0.00    +0.000 OA
ENDBRANCH  10  13
ENDBRANCH   1  10
BRANCH   4  14
ATOM     14  O   UNL     1       3.610   5.304  19.232  0.00  0.00    +0.000 OA
BRANCH  14  15
ATOM     15  C   UNL     1       2.824   6.419  19.447  0.00  0.00    +0.000 A 
ATOM     16  C   UNL     1       2.154   6.498  20.664  0.00  0.00    +0.000 A 
ATOM     17  C   UNL     1       1.316   7.586  20.922  0.00  0.00    +0.000 A 
ATOM     18  C   UNL     1       1.157   8.610  19.978  0.00  0.00    +0.000 A 
ATOM     19  C   UNL     1       1.834   8.535  18.750  0.00  0.00    +0.000 A 
ATOM     20  C   UNL     1       2.689   7.450  18.511  0.00  0.00    +0.000 A 
BRANCH  18  21
ATOM     21  O   UNL     1       0.292   9.604  20.369  0.00  0.00    +0.000 OA
ATOM     22  C   UNL     1      -0.158   9.540  21.719  0.00  0.00    +0.000 C 
ENDBRANCH  18  21
BRANCH  19  23
ATOM     23  O   UNL     1       1.565   9.486  17.800  0.00  0.00    +0.000 OA
ATOM     24  C   UNL     1       2.211  10.743  17.947  0.00  0.00    +0.000 C 
ENDBRANCH  19  23
ENDBRANCH  14  15
ENDBRANCH   4  14
TORSDOF 7
ENDMDL
MODEL 6
REMARK VINA RESULT:      -6.9      3.064      5.467
REMARK  Name = 
REMARK  10 active torsions:
REMARK  status: ('A' for Active; 'I' for Inactive)
REMARK    1  A    between atoms: C_1  and  O_2
REMARK    2  A    between atoms: O_2  and  C_3
REMARK    3  A    between atoms: C_3  and  C_5
REMARK    4  A    between atoms: C_8  and  O_9
REMARK    5  A    between atoms: O_9  and  C_10
REMARK    6  A    between atoms: C_13  and  O_14
REMARK    7  A    between atoms: O_14  and  C_15
REMARK    8  A    between atoms: C_16  and  O_17
REMARK    9  A    between atoms: O_17  and  C_18
REMARK   10  A    between atoms: C_20  and  N_21
REMARK                            x       y       z     vdW  Elec       q    Type
REMARK                         _______ _______ _______ _____ _____    ______ ____
ROOT
ATOM      1  C   UNL     1       2.583   6.996  18.858  0.00  0.00    +0.000 A 
ATOM      2  C   UNL     1       2.519   7.924  17.811  0.00  0.00    +0.000 A 
ATOM      3  C   UNL     1       1.868   9.149  17.983  0.00  0.00    +0.000 A 
ATOM      4  C   UNL     1       1.322   9.500  19.225  0.00  0.00    +0.000 A 
ATOM      5  C   UNL     1       1.348   8.545  20.247  0.00  0.00    +0.000 A 
ATOM      6  C   UNL     1       1.976   7.299  20.084  0.00  0.00    +0.000 A 
ENDROOT
BRANCH   5   7
ATOM      7  N   UNL     1       0.725   8.816  21.527  0.00  0.00    +0.000 N 
ATOM      8  O   UNL     1      -0.443   8.439  21.687  0.00  0.00    +0.000 OA
ATOM      9  O   UNL     1       1.436   9.352  22.392  0.00  0.00    +0.000 OA
ENDBRANCH   5   7
BRANCH   1  10
ATOM     10  C   UNL     1       3.296   5.716  18.608  0.00  0.00    +0.000 C 
ATOM     11  O   UNL     1       2.878   4.849  17.858  0.00  0.00    +0.000 OA
BRANCH  10  13
ATOM     12  C   UNL     1       5.204   4.477  19.123  0.00  0.00    +0.000 C 
ATOM     13  O   UNL     1       4.433   5.661  19.340  0.00  0.00    +0.000 OA
ENDBRANCH  10  13
ENDBRANCH   1  10
BRANCH   4  14
ATOM     14  O   UNL     1       0.763  10.742  19.448  0.00  0.00    +0.000 OA
BRANCH  14  15
ATOM     15  C   UNL     1      -0.533  10.964  19.027  0.00  0.00    +0.000 A 
ATOM     16  C   UNL     1      -1.271  11.917  19.722  0.00  0.00    +0.000 A 
ATOM     17  C   UNL     1      -2.600  12.159  19.364  0.00  0.00    +0.000 A 
ATOM     18  C   UNL     1      -3.193  11.468  18.298  0.00  0.00    +0.000 A 
ATOM     19  C   UNL     1      -2.451  10.508  17.592  0.00  0.00    +0.000 A 
ATOM     20  C   UNL     1      -1.112  10.290  17.947  0.00  0.00    +0.000 A 
BRANCH  18  21
ATOM     21  O   UNL     1      -4.507  11.804  18.074  0.00  0.00    +0.000 OA
ATOM     22  C   UNL     1      -5.314  11.962  19.237  0.00  0.00    +0.000 C 
ENDBRANCH  18  21
BRANCH  19  23
ATOM     23  O   UNL     1      -3.092   9.762  16.638  0.00  0.00    +0.000 OA
ATOM     24  C   UNL     1      -2.926  10.167  15.285  0.00  0.00    +0.000 C 
ENDBRANCH  19  23
ENDBRANCH  14  15
ENDBRANCH   4  14
TORSDOF 7
ENDMDL
MODEL 7
REMARK VINA RESULT:      -6.8      1.075      1.394
REMARK  Name = 
REMARK  10 active torsions:
REMARK  status: ('A' for Active; 'I' for Inactive)
REMARK    1  A    between atoms: C_1  and  O_2
REMARK    2  A    between atoms: O_2  and  C_3
REMARK    3  A    between atoms: C_3  and  C_5
REMARK    4  A    between atoms: C_8  and  O_9
REMARK    5  A    between atoms: O_9  and  C_10
REMARK    6  A    between atoms: C_13  and  O_14
REMARK    7  A    between atoms: O_14  and  C_15
REMARK    8  A    between atoms: C_16  and  O_17
REMARK    9  A    between atoms: O_17  and  C_18
REMARK   10  A    between atoms: C_20  and  N_21
REMARK                            x       y       z     vdW  Elec       q    Type
REMARK                         _______ _______ _______ _____ _____    ______ ____
ROOT
ATOM      1  C   UNL     1       5.881   5.198  17.033  0.00  0.00    +0.000 A 
ATOM      2  C   UNL     1       5.506   6.536  17.215  0.00  0.00    +0.000 A 
ATOM      3  C   UNL     1       4.233   6.861  17.693  0.00  0.00    +0.000 A 
ATOM      4  C   UNL     1       3.330   5.855  18.060  0.00  0.00    +0.000 A 
ATOM      5  C   UNL     1       3.697   4.525  17.826  0.00  0.00    +0.000 A 
ATOM      6  C   UNL     1       4.962   4.181  17.323  0.00  0.00    +0.000 A 
ENDROOT
BRANCH   5   7
ATOM      7  N   UNL     1       2.773   3.444  18.105  0.00  0.00    +0.000 N 
ATOM      8  O   UNL     1       2.815   2.932  19.231  0.00  0.00    +0.000 OA
ATOM      9  O   UNL     1       1.963   3.156  17.210  0.00  0.00    +0.000 OA
ENDBRANCH   5   7
BRANCH   1  10
ATOM     10  C   UNL     1       7.252   4.925  16.527  0.00  0.00    +0.000 C 
ATOM     11  O   UNL     1       8.075   4.264  17.141  0.00  0.00    +0.000 OA
BRANCH  10  13
ATOM     12  C   UNL     1       6.915   4.791  14.224  0.00  0.00    +0.000 C 
ATOM     13  O   UNL     1       7.440   5.527  15.330  0.00  0.00    +0.000 OA
ENDBRANCH  10  13
ENDBRANCH   1  10
BRANCH   4  14
ATOM     14  O   UNL     1       2.107   6.148  18.627  0.00  0.00    +0.000 OA
BRANCH  14  15
ATOM     15  C   UNL     1       1.834   7.461  18.959  0.00  0.00    +0.000 A 
ATOM     16  C   UNL     1       1.731   8.372  17.912  0.00  0.00    +0.000 A 
ATOM     17  C   UNL     1       1.492   9.720  18.191  0.00  0.00    +0.000 A 
ATOM     18  C   UNL     1       1.335  10.164  19.511  0.00  0.00    +0.000 A 
ATOM     19  C   UNL     1       1.436   9.247  20.570  0.00  0.00    +0.000 A 
ATOM     20  C   UNL     1       1.654   7.894  20.277  0.00  0.00    +0.000 A 
BRANCH  18  21
ATOM     21  O   UNL     1       1.120  11.517  19.626  0.00  0.00    +0.000 OA
ATOM     22  C   UNL     1      -0.080  12.006  19.035  0.00  0.00    +0.000 C 
ENDBRANCH  18  21
BRANCH  19  23
ATOM     23  O   UNL     1       1.402   9.728  21.853  0.00  0.00    +0.000 OA
ATOM     24  C   UNL     1       0.165   9.627  22.545  0.00  0.00    +0.000 C 
ENDBRANCH  19  23
ENDBRANCH  14  15
ENDBRANCH   4  14
TORSDOF 7
ENDMDL
MODEL 8
REMARK VINA RESULT:      -6.8      1.435      2.507
REMARK  Name = 
REMARK  10 active torsions:
REMARK  status: ('A' for Active; 'I' for Inactive)
REMARK    1  A    between atoms: C_1  and  O_2
REMARK    2  A    between atoms: O_2  and  C_3
REMARK    3  A    between atoms: C_3  and  C_5
REMARK    4  A    between atoms: C_8  and  O_9
REMARK    5  A    between atoms: O_9  and  C_10
REMARK    6  A    between atoms: C_13  and  O_14
REMARK    7  A    between atoms: O_14  and  C_15
REMARK    8  A    between atoms: C_16  and  O_17
REMARK    9  A    between atoms: O_17  and  C_18
REMARK   10  A    between atoms: C_20  and  N_21
REMARK                            x       y       z     vdW  Elec       q    Type
REMARK                         _______ _______ _______ _____ _____    ______ ____
ROOT
ATOM      1  C   UNL     1       5.680   5.456  17.549  0.00  0.00    +0.000 A 
ATOM      2  C   UNL     1       5.478   6.816  17.280  0.00  0.00    +0.000 A 
ATOM      3  C   UNL     1       4.195   7.369  17.327  0.00  0.00    +0.000 A 
ATOM      4  C   UNL     1       3.094   6.590  17.706  0.00  0.00    +0.000 A 
ATOM      5  C   UNL     1       3.301   5.224  17.924  0.00  0.00    +0.000 A 
ATOM      6  C   UNL     1       4.579   4.646  17.857  0.00  0.00    +0.000 A 
ENDROOT
BRANCH   5   7
ATOM      7  N   UNL     1       2.188   4.350  18.236  0.00  0.00    +0.000 N 
ATOM      8  O   UNL     1       1.543   3.883  17.289  0.00  0.00    +0.000 OA
ATOM      9  O   UNL     1       2.005   4.084  19.434  0.00  0.00    +0.000 OA
ENDBRANCH   5   7
BRANCH   1  10
ATOM     10  C   UNL     1       7.070   4.935  17.488  0.00  0.00    +0.000 C 
ATOM     11  O   UNL     1       7.638   4.420  18.438  0.00  0.00    +0.000 OA
BRANCH  10  13
ATOM     12  C   UNL     1       6.975   4.364  15.229  0.00  0.00    +0.000 C 
ATOM     13  O   UNL     1       7.595   5.139  16.257  0.00  0.00    +0.000 OA
ENDBRANCH  10  13
ENDBRANCH   1  10
BRANCH   4  14
ATOM     14  O   UNL     1       1.836   7.136  17.856  0.00  0.00    +0.000 OA
BRANCH  14  15
ATOM     15  C   UNL     1       1.612   7.988  18.919  0.00  0.00    +0.000 A 
ATOM     16  C   UNL     1       1.714   7.449  20.198  0.00  0.00    +0.000 A 
ATOM     17  C   UNL     1       1.463   8.255  21.311  0.00  0.00    +0.000 A 
ATOM     18  C   UNL     1       1.128   9.608  21.156  0.00  0.00    +0.000 A 
ATOM     19  C   UNL     1       1.026  10.157  19.868  0.00  0.00    +0.000 A 
ATOM     20  C   UNL     1       1.302   9.343  18.760  0.00  0.00    +0.000 A 
BRANCH  18  21
ATOM     21  O   UNL     1       0.897  10.267  22.340  0.00  0.00    +0.000 OA
ATOM     22  C   UNL     1       0.136   9.554  23.310  0.00  0.00    +0.000 C 
ENDBRANCH  18  21
BRANCH  19  23
ATOM     23  O   UNL     1       0.578  11.445  19.743  0.00  0.00    +0.000 OA
ATOM     24  C   UNL     1      -0.591  11.648  18.959  0.00  0.00    +0.000 C 
ENDBRANCH  19  23
ENDBRANCH  14  15
ENDBRANCH   4  14
TORSDOF 7
ENDMDL
MODEL 9
REMARK VINA RESULT:      -6.7      1.816      7.205
REMARK  Name = 
REMARK  10 active torsions:
REMARK  status: ('A' for Active; 'I' for Inactive)
REMARK    1  A    between atoms: C_1  and  O_2
REMARK    2  A    between atoms: O_2  and  C_3
REMARK    3  A    between atoms: C_3  and  C_5
REMARK    4  A    between atoms: C_8  and  O_9
REMARK    5  A    between atoms: O_9  and  C_10
REMARK    6  A    between atoms: C_13  and  O_14
REMARK    7  A    between atoms: O_14  and  C_15
REMARK    8  A    between atoms: C_16  and  O_17
REMARK    9  A    between atoms: O_17  and  C_18
REMARK   10  A    between atoms: C_20  and  N_21
REMARK                            x       y       z     vdW  Elec       q    Type
REMARK                         _______ _______ _______ _____ _____    ______ ____
ROOT
ATOM      1  C   UNL     1       1.438   8.082  20.340  0.00  0.00    +0.000 A 
ATOM      2  C   UNL     1       2.130   8.231  19.131  0.00  0.00    +0.000 A 
ATOM      3  C   UNL     1       2.703   7.125  18.496  0.00  0.00    +0.000 A 
ATOM      4  C   UNL     1       2.542   5.837  19.023  0.00  0.00    +0.000 A 
ATOM      5  C   UNL     1       1.893   5.707  20.255  0.00  0.00    +0.000 A 
ATOM      6  C   UNL     1       1.333   6.810  20.919  0.00  0.00    +0.000 A 
ENDROOT
BRANCH   5   7
ATOM      7  N   UNL     1       1.770   4.411  20.892  0.00  0.00    +0.000 N 
ATOM      8  O   UNL     1       2.578   4.133  21.787  0.00  0.00    +0.000 OA
ATOM      9  O   UNL     1       0.818   3.701  20.533  0.00  0.00    +0.000 OA
ENDBRANCH   5   7
BRANCH   1  10
ATOM     10  C   UNL     1       0.849   9.298  20.957  0.00  0.00    +0.000 C 
ATOM     11  O   UNL     1       0.674   9.426  22.159  0.00  0.00    +0.000 OA
BRANCH  10  13
ATOM     12  C   UNL     1       0.781  11.556  20.376  0.00  0.00    +0.000 C 
ATOM     13  O   UNL     1       0.526  10.201  20.001  0.00  0.00    +0.000 OA
ENDBRANCH  10  13
ENDBRANCH   1  10
BRANCH   4  14
ATOM     14  O   UNL     1       3.012   4.719  18.363  0.00  0.00    +0.000 OA
BRANCH  14  15
ATOM     15  C   UNL     1       4.188   4.824  17.648  0.00  0.00    +0.000 A 
ATOM     16  C   UNL     1       4.266   4.122  16.449  0.00  0.00    +0.000 A 
ATOM     17  C   UNL     1       5.446   4.162  15.701  0.00  0.00    +0.000 A 
ATOM     18  C   UNL     1       6.545   4.916  16.133  0.00  0.00    +0.000 A 
ATOM     19  C   UNL     1       6.470   5.627  17.341  0.00  0.00    +0.000 A 
ATOM     20  C   UNL     1       5.274   5.598  18.072  0.00  0.00    +0.000 A 
BRANCH  18  21
ATOM     21  O   UNL     1       7.636   4.846  15.299  0.00  0.00    +0.000 OA
ATOM     22  C   UNL     1       7.358   4.930  13.905  0.00  0.00    +0.000 C 
ENDBRANCH  18  21
BRANCH  19  23
ATOM     23  O   UNL     1       7.599   6.254  17.800  0.00  0.00    +0.000 OA
ATOM     24  C   UNL     1       7.672   7.662  17.618  0.00  0.00    +0.000 C 
ENDBRANCH  19  23
ENDBRANCH  14  15
ENDBRANCH   4  14
TORSDOF 7
ENDMDL
