MODEL 1
REMARK VINA RESULT:      -8.6      0.000      0.000
REMARK  Name = 
REMARK  5 active torsions:
REMARK  status: ('A' for Active; 'I' for Inactive)
REMARK    1  A    between atoms: C_2  and  C_4
REMARK    2  A    between atoms: C_9  and  O_10
REMARK    3  A    between atoms: O_10  and  C_11
REMARK    4  A    between atoms: C_11  and  C_12
REMARK    5  A    between atoms: C_14  and  C_15
REMARK                            x       y       z     vdW  Elec       q    Type
REMARK                         _______ _______ _______ _____ _____    ______ ____
ROOT
ATOM      1  O   UNL     1       5.604   4.239  18.251  0.00  0.00    +0.000 OA
ENDROOT
BRANCH   1   7
ATOM      2  C   UNL     1       2.640   4.290  20.366  0.00  0.00    +0.000 A 
ATOM      3  C   UNL     1       2.148   5.575  20.141  0.00  0.00    +0.000 A 
ATOM      4  F   UNL     1       1.034   6.015  20.740  0.00  0.00    +0.000 F 
ATOM      5  C   UNL     1       2.830   6.460  19.306  0.00  0.00    +0.000 A 
ATOM      6  C   UNL     1       4.006   6.060  18.662  0.00  0.00    +0.000 A 
ATOM      7  C   UNL     1       4.496   4.767  18.850  0.00  0.00    +0.000 A 
ATOM      8  C   UNL     1       3.809   3.900  19.714  0.00  0.00    +0.000 A 
ATOM      9  F   UNL     1       4.304   2.663  19.901  0.00  0.00    +0.000 F 
BRANCH   2  11
ATOM     10  N   UNL     1       0.712   2.898  20.845  0.00  0.00    +0.000 N 
ATOM     11  C   UNL     1       1.923   3.369  21.270  0.00  0.00    +0.000 C 
ATOM     12  O   UNL     1       2.382   3.030  22.352  0.00  0.00    +0.000 OA
ATOM     13  H   UNL     1       0.184   2.313  21.478  0.00  0.00    +0.000 HD
ATOM     14  H   UNL     1       0.260   3.221  19.998  0.00  0.00    +0.000 HD
ENDBRANCH   2  11
ENDBRANCH   1   7
BRANCH   1  15
ATOM     15  C   UNL     1       6.636   5.141  17.845  0.00  0.00    +0.000 C 
BRANCH  15  16
ATOM     16  C   UNL     1       7.258   4.635  16.545  0.00  0.00    +0.000 C 
ATOM     17  C   UNL     1       6.298   3.787  15.747  0.00  0.00    +0.000 C 
ATOM     18  C   UNL     1       6.545   4.347  14.393  0.00  0.00    +0.000 C 
ATOM     19  N   UNL     1       7.282   5.409  14.363  0.00  0.00    +0.000 NA
ATOM     20  O   UNL     1       7.592   5.745  15.698  0.00  0.00    +0.000 OA
BRANCH  18  21
ATOM     21  C   UNL     1       5.925   3.746  13.194  0.00  0.00    +0.000 A 
ATOM     22  C   UNL     1       4.752   4.307  12.679  0.00  0.00    +0.000 A 
ATOM     23  C   UNL     1       4.120   3.715  11.585  0.00  0.00    +0.000 A 
ATOM     24  C   UNL     1       4.656   2.562  11.008  0.00  0.00    +0.000 A 
ATOM     25  C   UNL     1       5.824   2.011  11.524  0.00  0.00    +0.000 A 
ATOM     26 CL   UNL     1       6.481   0.579  10.831  0.00  0.00    +0.000 Cl
ATOM     27  C   UNL     1       6.469   2.599  12.611  0.00  0.00    +0.000 A 
ENDBRANCH  18  21
ENDBRANCH  15  16
ENDBRANCH   1  15
TORSDOF 5
ENDMDL
MODEL 2
REMARK VINA RESULT:      -8.3      4.056      7.644
REMARK  Name = 
REMARK  5 active torsions:
REMARK  status: ('A' for Active; 'I' for Inactive)
REMARK    1  A    between atoms: C_2  and  C_4
REMARK    2  A    between atoms: C_9  and  O_10
REMARK    3  A    between atoms: O_10  and  C_11
REMARK    4  A    between atoms: C_11  and  C_12
REMARK    5  A    between atoms: C_14  and  C_15
REMARK                            x       y       z     vdW  Elec       q    Type
REMARK                         _______ _______ _______ _____ _____    ______ ____
ROOT
ATOM      1  O   UNL     1       7.146   4.823  16.178  0.00  0.00    +0.000 OA
ENDROOT
BRANCH   1   7
ATOM      2  C   UNL     1       6.380   3.925  12.733  0.00  0.00    +0.000 A 
ATOM      3  C   UNL     1       7.281   4.716  12.022  0.00  0.00    +0.000 A 
ATOM      4  F   UNL     1       7.336   4.686  10.684  0.00  0.00    +0.000 F 
ATOM      5  C   UNL     1       8.132   5.596  12.689  0.00  0.00    +0.000 A 
ATOM      6  C   UNL     1       8.110   5.678  14.086  0.00  0.00    +0.000 A 
ATOM      7  C   UNL     1       7.237   4.871  14.816  0.00  0.00    +0.000 A 
ATOM      8  C   UNL     1       6.370   4.010  14.125  0.00  0.00    +0.000 A 
ATOM      9  F   UNL     1       5.520   3.252  14.841  0.00  0.00    +0.000 F 
BRANCH   2  11
ATOM     10  N   UNL     1       5.942   1.769  11.710  0.00  0.00    +0.000 N 
ATOM     11  C   UNL     1       5.466   3.014  12.016  0.00  0.00    +0.000 C 
ATOM     12  O   UNL     1       4.329   3.342  11.706  0.00  0.00    +0.000 OA
ATOM     13  H   UNL     1       5.349   1.156  11.169  0.00  0.00    +0.000 HD
ATOM     14  H   UNL     1       6.903   1.490  11.872  0.00  0.00    +0.000 HD
ENDBRANCH   2  11
ENDBRANCH   1   7
BRANCH   1  15
ATOM     15  C   UNL     1       7.278   6.050  16.899  0.00  0.00    +0.000 C 
BRANCH  15  16
ATOM     16  C   UNL     1       6.341   6.023  18.105  0.00  0.00    +0.000 C 
ATOM     17  C   UNL     1       4.950   5.573  17.735  0.00  0.00    +0.000 C 
ATOM     18  C   UNL     1       4.686   4.641  18.862  0.00  0.00    +0.000 C 
ATOM     19  N   UNL     1       5.706   4.386  19.615  0.00  0.00    +0.000 NA
ATOM     20  O   UNL     1       6.814   5.071  19.070  0.00  0.00    +0.000 OA
BRANCH  18  21
ATOM     21  C   UNL     1       3.359   4.016  19.042  0.00  0.00    +0.000 A 
ATOM     22  C   UNL     1       2.458   4.008  17.973  0.00  0.00    +0.000 A 
ATOM     23  C   UNL     1       1.179   3.477  18.146  0.00  0.00    +0.000 A 
ATOM     24  C   UNL     1       0.799   2.958  19.385  0.00  0.00    +0.000 A 
ATOM     25  C   UNL     1       1.702   2.966  20.443  0.00  0.00    +0.000 A 
ATOM     26 CL   UNL     1       1.236   2.346  21.978  0.00  0.00    +0.000 Cl
ATOM     27  C   UNL     1       2.985   3.487  20.280  0.00  0.00    +0.000 A 
ENDBRANCH  18  21
ENDBRANCH  15  16
ENDBRANCH   1  15
TORSDOF 5
ENDMDL
MODEL 3
REMARK VINA RESULT:      -8.2      2.685      3.568
REMARK  Name = 
REMARK  5 active torsions:
REMARK  status: ('A' for Active; 'I' for Inactive)
REMARK    1  A    between atoms: C_2  and  C_4
REMARK    2  A    between atoms: C_9  and  O_10
REMARK    3  A    between atoms: O_10  and  C_11
REMARK    4  A    between atoms: C_11  and  C_12
REMARK    5  A    between atoms: C_14  and  C_15
REMARK                            x       y       z     vdW  Elec       q    Type
REMARK                         _______ _______ _______ _____ _____    ______ ____
ROOT
ATOM      1  O   UNL     1       3.158   5.457  18.683  0.00  0.00    +0.000 OA
ENDROOT
BRANCH   1   7
ATOM      2  C   UNL     1       1.513   8.335  20.192  0.00  0.00    +0.000 A 
ATOM      3  C   UNL     1       1.526   9.256  19.146  0.00  0.00    +0.000 A 
ATOM      4  F   UNL     1       1.000  10.480  19.282  0.00  0.00    +0.000 F 
ATOM      5  C   UNL     1       2.127   8.937  17.928  0.00  0.00    +0.000 A 
ATOM      6  C   UNL     1       2.703   7.677  17.732  0.00  0.00    +0.000 A 
ATOM      7  C   UNL     1       2.671   6.731  18.758  0.00  0.00    +0.000 A 
ATOM      8  C   UNL     1       2.085   7.080  19.985  0.00  0.00    +0.000 A 
ATOM      9  F   UNL     1       2.079   6.164  20.971  0.00  0.00    +0.000 F 
BRANCH   2  11
ATOM     10  N   UNL     1      -0.439   8.431  21.630  0.00  0.00    +0.000 N 
ATOM     11  C   UNL     1       0.896   8.690  21.485  0.00  0.00    +0.000 C 
ATOM     12  O   UNL     1       1.538   9.191  22.398  0.00  0.00    +0.000 OA
ATOM     13  H   UNL     1      -0.887   8.721  22.488  0.00  0.00    +0.000 HD
ATOM     14  H   UNL     1      -1.021   8.098  20.871  0.00  0.00    +0.000 HD
ENDBRANCH   2  11
ENDBRANCH   1   7
BRANCH   1  15
ATOM     15  C   UNL     1       4.423   5.189  19.292  0.00  0.00    +0.000 C 
BRANCH  15  16
ATOM     16  C   UNL     1       5.205   4.218  18.409  0.00  0.00    +0.000 C 
ATOM     17  C   UNL     1       4.894   4.405  16.944  0.00  0.00    +0.000 C 
ATOM     18  C   UNL     1       6.271   4.338  16.391  0.00  0.00    +0.000 C 
ATOM     19  N   UNL     1       7.218   4.343  17.271  0.00  0.00    +0.000 NA
ATOM     20  O   UNL     1       6.614   4.465  18.541  0.00  0.00    +0.000 OA
BRANCH  18  21
ATOM     21  C   UNL     1       6.508   4.335  14.933  0.00  0.00    +0.000 A 
ATOM     22  C   UNL     1       7.577   5.071  14.413  0.00  0.00    +0.000 A 
ATOM     23  C   UNL     1       7.777   5.128  13.033  0.00  0.00    +0.000 A 
ATOM     24  C   UNL     1       6.909   4.454  12.173  0.00  0.00    +0.000 A 
ATOM     25  C   UNL     1       5.849   3.720  12.697  0.00  0.00    +0.000 A 
ATOM     26 CL   UNL     1       4.764   2.902  11.643  0.00  0.00    +0.000 Cl
ATOM     27  C   UNL     1       5.645   3.650  14.074  0.00  0.00    +0.000 A 
ENDBRANCH  18  21
ENDBRANCH  15  16
ENDBRANCH   1  15
TORSDOF 5
ENDMDL
MODEL 4
REMARK VINA RESULT:      -8.2      1.819      1.891
REMARK  Name = 
REMARK  5 active torsions:
REMARK  status: ('A' for Active; 'I' for Inactive)
REMARK    1  A    between atoms: C_2  and  C_4
REMARK    2  A    between atoms: C_9  and  O_10
REMARK    3  A    between atoms: O_10  and  C_11
REMARK    4  A    between atoms: C_11  and  C_12
REMARK    5  A    between atoms: C_14  and  C_15
REMARK                            x       y       z     vdW  Elec       q    Type
REMARK                         _______ _______ _______ _____ _____    ______ ____
ROOT
ATOM      1  O   UNL     1       4.115   6.252  17.291  0.00  0.00    +0.000 OA
ENDROOT
BRANCH   1   7
ATOM      2  C   UNL     1       1.899   3.872  18.930  0.00  0.00    +0.000 A 
ATOM      3  C   UNL     1       1.588   4.537  20.116  0.00  0.00    +0.000 A 
ATOM      4  F   UNL     1       0.772   3.996  21.030  0.00  0.00    +0.000 F 
ATOM      5  C   UNL     1       2.153   5.779  20.401  0.00  0.00    +0.000 A 
ATOM      6  C   UNL     1       3.022   6.387  19.489  0.00  0.00    +0.000 A 
ATOM      7  C   UNL     1       3.320   5.751  18.283  0.00  0.00    +0.000 A 
ATOM      8  C   UNL     1       2.761   4.489  18.025  0.00  0.00    +0.000 A 
ATOM      9  F   UNL     1       3.072   3.879  16.866  0.00  0.00    +0.000 F 
BRANCH   2  11
ATOM     10  N   UNL     1       2.167   1.478  18.642  0.00  0.00    +0.000 N 
ATOM     11  C   UNL     1       1.314   2.546  18.648  0.00  0.00    +0.000 C 
ATOM     12  O   UNL     1       0.120   2.394  18.430  0.00  0.00    +0.000 OA
ATOM     13  H   UNL     1       1.791   0.573  18.394  0.00  0.00    +0.000 HD
ATOM     14  H   UNL     1       3.172   1.574  18.732  0.00  0.00    +0.000 HD
ENDBRANCH   2  11
ENDBRANCH   1   7
BRANCH   1  15
ATOM     15  C   UNL     1       5.505   6.428  17.576  0.00  0.00    +0.000 C 
BRANCH  15  16
ATOM     16  C   UNL     1       6.312   5.416  16.765  0.00  0.00    +0.000 C 
ATOM     17  C   UNL     1       5.456   4.676  15.766  0.00  0.00    +0.000 C 
ATOM     18  C   UNL     1       6.357   4.729  14.585  0.00  0.00    +0.000 C 
ATOM     19  N   UNL     1       7.394   5.489  14.718  0.00  0.00    +0.000 NA
ATOM     20  O   UNL     1       7.311   6.097  15.990  0.00  0.00    +0.000 OA
BRANCH  18  21
ATOM     21  C   UNL     1       6.027   4.006  13.340  0.00  0.00    +0.000 A 
ATOM     22  C   UNL     1       4.699   3.966  12.905  0.00  0.00    +0.000 A 
ATOM     23  C   UNL     1       4.361   3.235  11.765  0.00  0.00    +0.000 A 
ATOM     24  C   UNL     1       5.349   2.542  11.062  0.00  0.00    +0.000 A 
ATOM     25  C   UNL     1       6.668   2.587  11.499  0.00  0.00    +0.000 A 
ATOM     26 CL   UNL     1       7.887   1.720  10.651  0.00  0.00    +0.000 Cl
ATOM     27  C   UNL     1       7.018   3.321  12.632  0.00  0.00    +0.000 A 
ENDBRANCH  18  21
ENDBRANCH  15  16
ENDBRANCH   1  15
TORSDOF 5
ENDMDL
MODEL 5
REMARK VINA RESULT:      -8.1      5.614      8.408
REMARK  Name = 
REMARK  5 active torsions:
REMARK  status: ('A' for Active; 'I' for Inactive)
REMARK    1  A    between atoms: C_2  and  C_4
REMARK    2  A    between atoms: C_9  and  O_10
REMARK    3  A    between atoms: O_10  and  C_11
REMARK    4  A    between atoms: C_11  and  C_12
REMARK    5  A    between atoms: C_14  and  C_15
REMARK                            x       y       z     vdW  Elec       q    Type
REMARK                         _______ _______ _______ _____ _____    ______ ____
ROOT
ATOM      1  O   UNL     1       3.858   5.883  17.205  0.00  0.00    +0.000 OA
ENDROOT
BRANCH   1   7
ATOM      2  C   UNL     1       3.289   3.050  19.422  0.00  0.00    +0.000 A 
ATOM      3  C   UNL     1       1.976   2.700  19.111  0.00  0.00    +0.000 A 
ATOM      4  F   UNL     1       1.362   1.675  19.715  0.00  0.00    +0.000 F 
ATOM      5  C   UNL     1       1.246   3.439  18.180  0.00  0.00    +0.000 A 
ATOM      6  C   UNL     1       1.833   4.528  17.526  0.00  0.00    +0.000 A 
ATOM      7  C   UNL     1       3.157   4.873  17.801  0.00  0.00    +0.000 A 
ATOM      8  C   UNL     1       3.866   4.134  18.760  0.00  0.00    +0.000 A 
ATOM      9  F   UNL     1       5.135   4.490  19.029  0.00  0.00    +0.000 F 
BRANCH   2  11
ATOM     10  N   UNL     1       5.138   1.583  19.984  0.00  0.00    +0.000 N 
ATOM     11  C   UNL     1       4.045   2.276  20.426  0.00  0.00    +0.000 C 
ATOM     12  O   UNL     1       3.723   2.250  21.606  0.00  0.00    +0.000 OA
ATOM     13  H   UNL     1       5.631   1.003  20.649  0.00  0.00    +0.000 HD
ATOM     14  H   UNL     1       5.386   1.510  19.004  0.00  0.00    +0.000 HD
ENDBRANCH   2  11
ENDBRANCH   1   7
BRANCH   1  15
ATOM     15  C   UNL     1       3.838   7.169  17.829  0.00  0.00    +0.000 C 
BRANCH  15  16
ATOM     16  C   UNL     1       2.387   7.590  18.055  0.00  0.00    +0.000 C 
ATOM     17  C   UNL     1       2.069   7.775  19.519  0.00  0.00    +0.000 C 
ATOM     18  C   UNL     1       1.302   9.046  19.444  0.00  0.00    +0.000 C 
ATOM     19  N   UNL     1       1.321   9.632  18.292  0.00  0.00    +0.000 NA
ATOM     20  O   UNL     1       2.147   8.866  17.441  0.00  0.00    +0.000 OA
BRANCH  18  21
ATOM     21  C   UNL     1       0.632   9.604  20.636  0.00  0.00    +0.000 A 
ATOM     22  C   UNL     1       0.733   8.929  21.856  0.00  0.00    +0.000 A 
ATOM     23  C   UNL     1       0.056   9.410  22.977  0.00  0.00    +0.000 A 
ATOM     24  C   UNL     1      -0.725  10.563  22.879  0.00  0.00    +0.000 A 
ATOM     25  C   UNL     1      -0.819  11.233  21.663  0.00  0.00    +0.000 A 
ATOM     26 CL   UNL     1      -1.795  12.643  21.529  0.00  0.00    +0.000 Cl
ATOM     27  C   UNL     1      -0.140  10.765  20.539  0.00  0.00    +0.000 A 
ENDBRANCH  18  21
ENDBRANCH  15  16
ENDBRANCH   1  15
TORSDOF 5
ENDMDL
MODEL 6
REMARK VINA RESULT:      -8.1      5.548      8.578
REMARK  Name = 
REMARK  5 active torsions:
REMARK  status: ('A' for Active; 'I' for Inactive)
REMARK    1  A    between atoms: C_2  and  C_4
REMARK    2  A    between atoms: C_9  and  O_10
REMARK    3  A    between atoms: O_10  and  C_11
REMARK    4  A    between atoms: C_11  and  C_12
REMARK    5  A    between atoms: C_14  and  C_15
REMARK                            x       y       z     vdW  Elec       q    Type
REMARK                         _______ _______ _______ _____ _____    ______ ____
ROOT
ATOM      1  O   UNL     1       3.680   6.404  17.058  0.00  0.00    +0.000 OA
ENDROOT
BRANCH   1   7
ATOM      2  C   UNL     1       2.805   3.521  19.103  0.00  0.00    +0.000 A 
ATOM      3  C   UNL     1       4.040   3.167  19.646  0.00  0.00    +0.000 A 
ATOM      4  F   UNL     1       4.166   2.130  20.483  0.00  0.00    +0.000 F 
ATOM      5  C   UNL     1       5.194   3.868  19.299  0.00  0.00    +0.000 A 
ATOM      6  C   UNL     1       5.124   4.954  18.419  0.00  0.00    +0.000 A 
ATOM      7  C   UNL     1       3.892   5.342  17.890  0.00  0.00    +0.000 A 
ATOM      8  C   UNL     1       2.746   4.607  18.231  0.00  0.00    +0.000 A 
ATOM      9  F   UNL     1       1.568   4.982  17.699  0.00  0.00    +0.000 F 
BRANCH   2  11
ATOM     10  N   UNL     1       1.231   1.739  18.620  0.00  0.00    +0.000 N 
ATOM     11  C   UNL     1       1.592   2.757  19.458  0.00  0.00    +0.000 C 
ATOM     12  O   UNL     1       0.932   3.010  20.456  0.00  0.00    +0.000 OA
ATOM     13  H   UNL     1       0.372   1.245  18.819  0.00  0.00    +0.000 HD
ATOM     14  H   UNL     1       1.700   1.554  17.741  0.00  0.00    +0.000 HD
ENDBRANCH   2  11
ENDBRANCH   1   7
BRANCH   1  15
ATOM     15  C   UNL     1       3.685   7.713  17.632  0.00  0.00    +0.000 C 
BRANCH  15  16
ATOM     16  C   UNL     1       2.244   8.148  17.893  0.00  0.00    +0.000 C 
ATOM     17  C   UNL     1       1.902   8.132  19.363  0.00  0.00    +0.000 C 
ATOM     18  C   UNL     1       1.177   9.426  19.460  0.00  0.00    +0.000 C 
ATOM     19  N   UNL     1       1.240  10.171  18.405  0.00  0.00    +0.000 NA
ATOM     20  O   UNL     1       2.059   9.506  17.466  0.00  0.00    +0.000 OA
BRANCH  18  21
ATOM     21  C   UNL     1       0.501   9.830  20.709  0.00  0.00    +0.000 A 
ATOM     22  C   UNL     1       0.626   9.024  21.845  0.00  0.00    +0.000 A 
ATOM     23  C   UNL     1      -0.057   9.360  23.015  0.00  0.00    +0.000 A 
ATOM     24  C   UNL     1      -0.867  10.497  23.049  0.00  0.00    +0.000 A 
ATOM     25  C   UNL     1      -0.985  11.295  21.917  0.00  0.00    +0.000 A 
ATOM     26 CL   UNL     1      -1.996  12.687  21.945  0.00  0.00    +0.000 Cl
ATOM     27  C   UNL     1      -0.301  10.974  20.745  0.00  0.00    +0.000 A 
ENDBRANCH  18  21
ENDBRANCH  15  16
ENDBRANCH   1  15
TORSDOF 5
ENDMDL
MODEL 7
REMARK VINA RESULT:      -8.1      1.973      2.604
REMARK  Name = 
REMARK  5 active torsions:
REMARK  status: ('A' for Active; 'I' for Inactive)
REMARK    1  A    between atoms: C_2  and  C_4
REMARK    2  A    between atoms: C_9  and  O_10
REMARK    3  A    between atoms: O_10  and  C_11
REMARK    4  A    between atoms: C_11  and  C_12
REMARK    5  A    between atoms: C_14  and  C_15
REMARK                            x       y       z     vdW  Elec       q    Type
REMARK                         _______ _______ _______ _____ _____    ______ ____
ROOT
ATOM      1  O   UNL     1       5.722   3.869  18.967  0.00  0.00    +0.000 OA
ENDROOT
BRANCH   1   7
ATOM      2  C   UNL     1       2.173   3.352  19.601  0.00  0.00    +0.000 A 
ATOM      3  C   UNL     1       1.788   2.601  18.491  0.00  0.00    +0.000 A 
ATOM      4  F   UNL     1       0.526   2.184  18.330  0.00  0.00    +0.000 F 
ATOM      5  C   UNL     1       2.709   2.292  17.490  0.00  0.00    +0.000 A 
ATOM      6  C   UNL     1       4.039   2.712  17.599  0.00  0.00    +0.000 A 
ATOM      7  C   UNL     1       4.449   3.437  18.718  0.00  0.00    +0.000 A 
ATOM      8  C   UNL     1       3.502   3.760  19.703  0.00  0.00    +0.000 A 
ATOM      9  F   UNL     1       3.909   4.477  20.767  0.00  0.00    +0.000 F 
BRANCH   2  11
ATOM     10  N   UNL     1       0.995   2.781  21.643  0.00  0.00    +0.000 N 
ATOM     11  C   UNL     1       1.186   3.695  20.644  0.00  0.00    +0.000 C 
ATOM     12  O   UNL     1       0.561   4.746  20.630  0.00  0.00    +0.000 OA
ATOM     13  H   UNL     1       0.281   2.976  22.332  0.00  0.00    +0.000 HD
ATOM     14  H   UNL     1       1.427   1.865  21.644  0.00  0.00    +0.000 HD
ENDBRANCH   2  11
ENDBRANCH   1   7
BRANCH   1  15
ATOM     15  C   UNL     1       5.914   5.260  19.234  0.00  0.00    +0.000 C 
BRANCH  15  16
ATOM     16  C   UNL     1       6.165   5.990  17.916  0.00  0.00    +0.000 C 
ATOM     17  C   UNL     1       6.899   5.128  16.918  0.00  0.00    +0.000 C 
ATOM     18  C   UNL     1       6.106   5.435  15.699  0.00  0.00    +0.000 C 
ATOM     19  N   UNL     1       5.027   6.116  15.903  0.00  0.00    +0.000 NA
ATOM     20  O   UNL     1       4.913   6.322  17.295  0.00  0.00    +0.000 OA
BRANCH  18  21
ATOM     21  C   UNL     1       6.515   4.925  14.374  0.00  0.00    +0.000 A 
ATOM     22  C   UNL     1       7.605   5.511  13.724  0.00  0.00    +0.000 A 
ATOM     23  C   UNL     1       7.965   5.083  12.446  0.00  0.00    +0.000 A 
ATOM     24  C   UNL     1       7.235   4.073  11.816  0.00  0.00    +0.000 A 
ATOM     25  C   UNL     1       6.154   3.492  12.470  0.00  0.00    +0.000 A 
ATOM     26 CL   UNL     1       5.237   2.261  11.693  0.00  0.00    +0.000 Cl
ATOM     27  C   UNL     1       5.790   3.907  13.750  0.00  0.00    +0.000 A 
ENDBRANCH  18  21
ENDBRANCH  15  16
ENDBRANCH   1  15
TORSDOF 5
ENDMDL
MODEL 8
REMARK VINA RESULT:      -8.0      1.827      1.968
REMARK  Name = 
REMARK  5 active torsions:
REMARK  status: ('A' for Active; 'I' for Inactive)
REMARK    1  A    between atoms: C_2  and  C_4
REMARK    2  A    between atoms: C_9  and  O_10
REMARK    3  A    between atoms: O_10  and  C_11
REMARK    4  A    between atoms: C_11  and  C_12
REMARK    5  A    between atoms: C_14  and  C_15
REMARK                            x       y       z     vdW  Elec       q    Type
REMARK                         _______ _______ _______ _____ _____    ______ ____
ROOT
ATOM      1  O   UNL     1       5.447   6.501  18.152  0.00  0.00    +0.000 OA
ENDROOT
BRANCH   1   7
ATOM      2  C   UNL     1       3.893   3.321  19.010  0.00  0.00    +0.000 A 
ATOM      3  C   UNL     1       2.552   3.569  18.720  0.00  0.00    +0.000 A 
ATOM      4  F   UNL     1       1.612   2.631  18.895  0.00  0.00    +0.000 F 
ATOM      5  C   UNL     1       2.143   4.824  18.271  0.00  0.00    +0.000 A 
ATOM      6  C   UNL     1       3.079   5.846  18.081  0.00  0.00    +0.000 A 
ATOM      7  C   UNL     1       4.431   5.607  18.336  0.00  0.00    +0.000 A 
ATOM      8  C   UNL     1       4.818   4.344  18.812  0.00  0.00    +0.000 A 
ATOM      9  F   UNL     1       6.122   4.134  19.071  0.00  0.00    +0.000 F 
BRANCH   2  11
ATOM     10  N   UNL     1       4.165   0.937  18.655  0.00  0.00    +0.000 N 
ATOM     11  C   UNL     1       4.312   1.996  19.507  0.00  0.00    +0.000 C 
ATOM     12  O   UNL     1       4.775   1.837  20.628  0.00  0.00    +0.000 OA
ATOM     13  H   UNL     1       4.393   0.015  19.001  0.00  0.00    +0.000 HD
ATOM     14  H   UNL     1       3.707   1.012  17.754  0.00  0.00    +0.000 HD
ENDBRANCH   2  11
ENDBRANCH   1   7
BRANCH   1  15
ATOM     15  C   UNL     1       5.839   6.799  16.810  0.00  0.00    +0.000 C 
BRANCH  15  16
ATOM     16  C   UNL     1       6.377   5.529  16.154  0.00  0.00    +0.000 C 
ATOM     17  C   UNL     1       5.358   4.880  15.250  0.00  0.00    +0.000 C 
ATOM     18  C   UNL     1       6.228   4.565  14.087  0.00  0.00    +0.000 C 
ATOM     19  N   UNL     1       7.415   5.076  14.134  0.00  0.00    +0.000 NA
ATOM     20  O   UNL     1       7.495   5.851  15.311  0.00  0.00    +0.000 OA
BRANCH  18  21
ATOM     21  C   UNL     1       5.721   3.777  12.945  0.00  0.00    +0.000 A 
ATOM     22  C   UNL     1       4.559   4.196  12.289  0.00  0.00    +0.000 A 
ATOM     23  C   UNL     1       4.032   3.429  11.249  0.00  0.00    +0.000 A 
ATOM     24  C   UNL     1       4.663   2.244  10.866  0.00  0.00    +0.000 A 
ATOM     25  C   UNL     1       5.820   1.835  11.521  0.00  0.00    +0.000 A 
ATOM     26 CL   UNL     1       6.593   0.366  11.068  0.00  0.00    +0.000 Cl
ATOM     27  C   UNL     1       6.359   2.597  12.556  0.00  0.00    +0.000 A 
ENDBRANCH  18  21
ENDBRANCH  15  16
ENDBRANCH   1  15
TORSDOF 5
ENDMDL
MODEL 9
REMARK VINA RESULT:      -8.0      6.215      8.876
REMARK  Name = 
REMARK  5 active torsions:
REMARK  status: ('A' for Active; 'I' for Inactive)
REMARK    1  A    between atoms: C_2  and  C_4
REMARK    2  A    between atoms: C_9  and  O_10
REMARK    3  A    between atoms: O_10  and  C_11
REMARK    4  A    between atoms: C_11  and  C_12
REMARK    5  A    between atoms: C_14  and  C_15
REMARK                            x       y       z     vdW  Elec       q    Type
REMARK                         _______ _______ _______ _____ _____    ______ ____
ROOT
ATOM      1  O   UNL     1       2.041   7.794  19.439  0.00  0.00    +0.000 OA
ENDROOT
BRANCH   1   7
ATOM      2  C   UNL     1       3.839   4.631  19.290  0.00  0.00    +0.000 A 
ATOM      3  C   UNL     1       3.115   3.845  20.187  0.00  0.00    +0.000 A 
ATOM      4  F   UNL     1       3.449   2.572  20.432  0.00  0.00    +0.000 F 
ATOM      5  C   UNL     1       2.035   4.381  20.887  0.00  0.00    +0.000 A 
ATOM      6  C   UNL     1       1.647   5.710  20.681  0.00  0.00    +0.000 A 
ATOM      7  C   UNL     1       2.341   6.501  19.764  0.00  0.00    +0.000 A 
ATOM      8  C   UNL     1       3.441   5.951  19.088  0.00  0.00    +0.000 A 
ATOM      9  F   UNL     1       4.111   6.733  18.221  0.00  0.00    +0.000 F 
BRANCH   2  11
ATOM     10  N   UNL     1       4.726   3.230  17.519  0.00  0.00    +0.000 N 
ATOM     11  C   UNL     1       4.996   4.061  18.571  0.00  0.00    +0.000 C 
ATOM     12  O   UNL     1       6.149   4.315  18.888  0.00  0.00    +0.000 OA
ATOM     13  H   UNL     1       5.507   2.788  17.054  0.00  0.00    +0.000 HD
ATOM     14  H   UNL     1       3.789   2.928  17.280  0.00  0.00    +0.000 HD
ENDBRANCH   2  11
ENDBRANCH   1   7
BRANCH   1  15
ATOM     15  C   UNL     1       1.545   8.644  20.476  0.00  0.00    +0.000 C 
BRANCH  15  16
ATOM     16  C   UNL     1       0.913   9.883  19.845  0.00  0.00    +0.000 C 
ATOM     17  C   UNL     1       0.142   9.552  18.590  0.00  0.00    +0.000 C 
ATOM     18  C   UNL     1      -1.076  10.369  18.829  0.00  0.00    +0.000 C 
ATOM     19  N   UNL     1      -1.165  10.891  20.008  0.00  0.00    +0.000 NA
ATOM     20  O   UNL     1      -0.044  10.458  20.748  0.00  0.00    +0.000 OA
BRANCH  18  21
ATOM     21  C   UNL     1      -2.122  10.499  17.794  0.00  0.00    +0.000 A 
ATOM     22  C   UNL     1      -1.938   9.880  16.555  0.00  0.00    +0.000 A 
ATOM     23  C   UNL     1      -2.888  10.045  15.546  0.00  0.00    +0.000 A 
ATOM     24  C   UNL     1      -4.019  10.831  15.774  0.00  0.00    +0.000 A 
ATOM     25  C   UNL     1      -4.198  11.443  17.010  0.00  0.00    +0.000 A 
ATOM     26 CL   UNL     1      -5.579  12.429  17.292  0.00  0.00    +0.000 Cl
ATOM     27  C   UNL     1      -3.259  11.278  18.027  0.00  0.00    +0.000 A 
ENDBRANCH  18  21
ENDBRANCH  15  16
ENDBRANCH   1  15
TORSDOF 5
ENDMDL
