MODEL 1
REMARK VINA RESULT:      -8.7      0.000      0.000
REMARK  Name = 
REMARK  10 active torsions:
REMARK  status: ('A' for Active; 'I' for Inactive)
REMARK    1  A    between atoms: C_2  and  C_3
REMARK    2  A    between atoms: C_2  and  C_5
REMARK    3  A    between atoms: C_5  and  N_6
REMARK    4  A    between atoms: C_7  and  C_9
REMARK    5  A    between atoms: C_9  and  C_10
REMARK    6  A    between atoms: C_9  and  N_18
REMARK    7  A    between atoms: C_10  and  C_11
REMARK    8  A    between atoms: C_19  and  O_21
REMARK    9  A    between atoms: O_21  and  C_22
REMARK   10  A    between atoms: C_22  and  C_23
REMARK                            x       y       z     vdW  Elec       q    Type
REMARK                         _______ _______ _______ _____ _____    ______ ____
ROOT
ATOM      1  C   UNL     1       6.315   5.505  18.309  0.00  0.00    +0.000 C 
ENDROOT
BRANCH   1   3
ATOM      2  N   UNL     1       6.044   4.665  15.952  0.00  0.00    +0.000 N 
ATOM      3  C   UNL     1       6.836   4.696  17.088  0.00  0.00    +0.000 C 
ATOM      4  O   UNL     1       7.960   4.192  17.071  0.00  0.00    +0.000 OA
ATOM      5  H   UNL     1       5.375   5.429  15.794  0.00  0.00    +0.000 HD
BRANCH   2   6
ATOM      6  C   UNL     1       6.473   3.860  14.819  0.00  0.00    +0.000 C 
BRANCH   6   8
ATOM      7  O   UNL     1       7.843   5.540  13.733  0.00  0.00    +0.000 OA
ATOM      8  C   UNL     1       7.094   4.566  13.616  0.00  0.00    +0.000 C 
BRANCH   8   9
ATOM      9  C   UNL     1       6.829   3.941  12.261  0.00  0.00    +0.000 C 
ATOM     10  F   UNL     1       5.656   3.240  12.222  0.00  0.00    +0.000 F 
ENDBRANCH   8   9
ENDBRANCH   6   8
ENDBRANCH   2   6
ENDBRANCH   1   3
BRANCH   1  11
ATOM     11  N   UNL     1       7.235   6.581  18.678  0.00  0.00    +0.000 N 
ATOM     12  C   UNL     1       7.616   7.541  17.817  0.00  0.00    +0.000 C 
ATOM     13  O   UNL     1       7.219   7.632  16.663  0.00  0.00    +0.000 OA
ATOM     14  H   UNL     1       7.492   6.721  19.645  0.00  0.00    +0.000 HD
BRANCH  12  15
ATOM     15  O   UNL     1       8.505   8.363  18.415  0.00  0.00    +0.000 OA
BRANCH  15  16
ATOM     16  C   UNL     1       8.357   9.749  18.082  0.00  0.00    +0.000 C 
BRANCH  16  17
ATOM     17  C   UNL     1       9.435  10.574  18.729  0.00  0.00    +0.000 A 
ATOM     18  C   UNL     1      10.512  11.057  17.973  0.00  0.00    +0.000 A 
ATOM     19  C   UNL     1      11.528  11.793  18.585  0.00  0.00    +0.000 A 
ATOM     20  C   UNL     1      11.476  12.051  19.954  0.00  0.00    +0.000 A 
ATOM     21  C   UNL     1      10.400  11.590  20.710  0.00  0.00    +0.000 A 
ATOM     22  C   UNL     1       9.384  10.853  20.101  0.00  0.00    +0.000 A 
ENDBRANCH  16  17
ENDBRANCH  15  16
ENDBRANCH  12  15
ENDBRANCH   1  11
BRANCH   1  23
ATOM     23  C   UNL     1       4.861   6.037  18.120  0.00  0.00    +0.000 C 
BRANCH  23  24
ATOM     24  C   UNL     1       3.786   5.094  18.626  0.00  0.00    +0.000 A 
ATOM     25  C   UNL     1       2.921   4.462  17.721  0.00  0.00    +0.000 A 
ATOM     26  C   UNL     1       1.790   3.780  18.176  0.00  0.00    +0.000 A 
ATOM     27  C   UNL     1       1.533   3.694  19.541  0.00  0.00    +0.000 A 
ATOM     28  C   UNL     1       2.438   4.240  20.441  0.00  0.00    +0.000 A 
ATOM     29  F   UNL     1       2.193   4.158  21.755  0.00  0.00    +0.000 F 
ATOM     30  C   UNL     1       3.570   4.919  19.999  0.00  0.00    +0.000 A 
ENDBRANCH  23  24
ENDBRANCH   1  23
TORSDOF 10
ENDMDL
MODEL 2
REMARK VINA RESULT:      -8.5      1.419      1.683
REMARK  Name = 
REMARK  10 active torsions:
REMARK  status: ('A' for Active; 'I' for Inactive)
REMARK    1  A    between atoms: C_2  and  C_3
REMARK    2  A    between atoms: C_2  and  C_5
REMARK    3  A    between atoms: C_5  and  N_6
REMARK    4  A    between atoms: C_7  and  C_9
REMARK    5  A    between atoms: C_9  and  C_10
REMARK    6  A    between atoms: C_9  and  N_18
REMARK    7  A    between atoms: C_10  and  C_11
REMARK    8  A    between atoms: C_19  and  O_21
REMARK    9  A    between atoms: O_21  and  C_22
REMARK   10  A    between atoms: C_22  and  C_23
REMARK                            x       y       z     vdW  Elec       q    Type
REMARK                         _______ _______ _______ _____ _____    ______ ____
ROOT
ATOM      1  C   UNL     1       6.171   6.454  17.187  0.00  0.00    +0.000 C 
ENDROOT
BRANCH   1   3
ATOM      2  N   UNL     1       6.618   5.675  14.835  0.00  0.00    +0.000 N 
ATOM      3  C   UNL     1       6.790   5.435  16.190  0.00  0.00    +0.000 C 
ATOM      4  O   UNL     1       7.509   4.509  16.566  0.00  0.00    +0.000 OA
ATOM      5  H   UNL     1       6.447   6.638  14.521  0.00  0.00    +0.000 HD
BRANCH   2   6
ATOM      6  C   UNL     1       7.125   4.702  13.881  0.00  0.00    +0.000 C 
BRANCH   6   8
ATOM      7  O   UNL     1       4.918   3.826  13.391  0.00  0.00    +0.000 OA
ATOM      8  C   UNL     1       6.124   3.828  13.128  0.00  0.00    +0.000 C 
BRANCH   8   9
ATOM      9  C   UNL     1       6.672   3.036  11.958  0.00  0.00    +0.000 C 
ATOM     10  F   UNL     1       5.843   2.019  11.573  0.00  0.00    +0.000 F 
ENDBRANCH   8   9
ENDBRANCH   6   8
ENDBRANCH   2   6
ENDBRANCH   1   3
BRANCH   1  11
ATOM     11  N   UNL     1       6.902   7.722  17.188  0.00  0.00    +0.000 N 
ATOM     12  C   UNL     1       7.943   7.962  18.004  0.00  0.00    +0.000 C 
ATOM     13  O   UNL     1       8.399   7.152  18.799  0.00  0.00    +0.000 OA
ATOM     14  H   UNL     1       6.739   8.403  16.460  0.00  0.00    +0.000 HD
BRANCH  12  15
ATOM     15  O   UNL     1       8.383   9.226  17.823  0.00  0.00    +0.000 OA
BRANCH  15  16
ATOM     16  C   UNL     1       9.031   9.803  18.963  0.00  0.00    +0.000 C 
BRANCH  16  17
ATOM     17  C   UNL     1       9.713  11.092  18.595  0.00  0.00    +0.000 A 
ATOM     18  C   UNL     1      11.031  11.342  19.003  0.00  0.00    +0.000 A 
ATOM     19  C   UNL     1      11.648  12.554  18.690  0.00  0.00    +0.000 A 
ATOM     20  C   UNL     1      10.955  13.524  17.967  0.00  0.00    +0.000 A 
ATOM     21  C   UNL     1       9.651  13.277  17.541  0.00  0.00    +0.000 A 
ATOM     22  C   UNL     1       9.031  12.067  17.856  0.00  0.00    +0.000 A 
ENDBRANCH  16  17
ENDBRANCH  15  16
ENDBRANCH  12  15
ENDBRANCH   1  11
BRANCH   1  23
ATOM     23  C   UNL     1       4.643   6.676  16.971  0.00  0.00    +0.000 C 
BRANCH  23  24
ATOM     24  C   UNL     1       3.762   5.764  17.804  0.00  0.00    +0.000 A 
ATOM     25  C   UNL     1       3.356   4.522  17.295  0.00  0.00    +0.000 A 
ATOM     26  C   UNL     1       2.367   3.776  17.942  0.00  0.00    +0.000 A 
ATOM     27  C   UNL     1       1.800   4.250  19.121  0.00  0.00    +0.000 A 
ATOM     28  C   UNL     1       2.267   5.436  19.674  0.00  0.00    +0.000 A 
ATOM     29  F   UNL     1       1.723   5.893  20.809  0.00  0.00    +0.000 F 
ATOM     30  C   UNL     1       3.254   6.185  19.040  0.00  0.00    +0.000 A 
ENDBRANCH  23  24
ENDBRANCH   1  23
TORSDOF 10
ENDMDL
MODEL 3
REMARK VINA RESULT:      -8.4      1.381      1.790
REMARK  Name = 
REMARK  10 active torsions:
REMARK  status: ('A' for Active; 'I' for Inactive)
REMARK    1  A    between atoms: C_2  and  C_3
REMARK    2  A    between atoms: C_2  and  C_5
REMARK    3  A    between atoms: C_5  and  N_6
REMARK    4  A    between atoms: C_7  and  C_9
REMARK    5  A    between atoms: C_9  and  C_10
REMARK    6  A    between atoms: C_9  and  N_18
REMARK    7  A    between atoms: C_10  and  C_11
REMARK    8  A    between atoms: C_19  and  O_21
REMARK    9  A    between atoms: O_21  and  C_22
REMARK   10  A    between atoms: C_22  and  C_23
REMARK                            x       y       z     vdW  Elec       q    Type
REMARK                         _______ _______ _______ _____ _____    ______ ____
ROOT
ATOM      1  C   UNL     1       5.957   6.421  17.280  0.00  0.00    +0.000 C 
ENDROOT
BRANCH   1   3
ATOM      2  N   UNL     1       5.779   5.095  15.148  0.00  0.00    +0.000 N 
ATOM      3  C   UNL     1       6.481   5.313  16.323  0.00  0.00    +0.000 C 
ATOM      4  O   UNL     1       7.541   4.722  16.528  0.00  0.00    +0.000 OA
ATOM      5  H   UNL     1       5.211   5.859  14.761  0.00  0.00    +0.000 HD
BRANCH   2   6
ATOM      6  C   UNL     1       6.205   4.019  14.267  0.00  0.00    +0.000 C 
BRANCH   6   8
ATOM      7  O   UNL     1       7.781   5.314  12.955  0.00  0.00    +0.000 OA
ATOM      8  C   UNL     1       6.978   4.378  12.999  0.00  0.00    +0.000 C 
BRANCH   8   9
ATOM      9  C   UNL     1       6.789   3.451  11.814  0.00  0.00    +0.000 C 
ATOM     10  F   UNL     1       5.819   2.512  12.027  0.00  0.00    +0.000 F 
ENDBRANCH   8   9
ENDBRANCH   6   8
ENDBRANCH   2   6
ENDBRANCH   1   3
BRANCH   1  11
ATOM     11  N   UNL     1       6.775   7.632  17.205  0.00  0.00    +0.000 N 
ATOM     12  C   UNL     1       7.853   7.832  17.983  0.00  0.00    +0.000 C 
ATOM     13  O   UNL     1       8.274   7.025  18.801  0.00  0.00    +0.000 OA
ATOM     14  H   UNL     1       6.639   8.291  16.452  0.00  0.00    +0.000 HD
BRANCH  12  15
ATOM     15  O   UNL     1       8.376   9.051  17.733  0.00  0.00    +0.000 OA
BRANCH  15  16
ATOM     16  C   UNL     1       8.920   9.716  18.880  0.00  0.00    +0.000 C 
BRANCH  16  17
ATOM     17  C   UNL     1       9.598  10.999  18.485  0.00  0.00    +0.000 A 
ATOM     18  C   UNL     1      10.963  11.189  18.737  0.00  0.00    +0.000 A 
ATOM     19  C   UNL     1      11.581  12.395  18.401  0.00  0.00    +0.000 A 
ATOM     20  C   UNL     1      10.839  13.418  17.811  0.00  0.00    +0.000 A 
ATOM     21  C   UNL     1       9.486  13.231  17.539  0.00  0.00    +0.000 A 
ATOM     22  C   UNL     1       8.866  12.027  17.877  0.00  0.00    +0.000 A 
ENDBRANCH  16  17
ENDBRANCH  15  16
ENDBRANCH  12  15
ENDBRANCH   1  11
BRANCH   1  23
ATOM     23  C   UNL     1       4.443   6.741  17.081  0.00  0.00    +0.000 C 
BRANCH  23  24
ATOM     24  C   UNL     1       3.516   5.901  17.939  0.00  0.00    +0.000 A 
ATOM     25  C   UNL     1       3.037   6.404  19.158  0.00  0.00    +0.000 A 
ATOM     26  C   UNL     1       2.378   5.568  20.062  0.00  0.00    +0.000 A 
ATOM     27  C   UNL     1       2.161   4.231  19.742  0.00  0.00    +0.000 A 
ATOM     28  C   UNL     1       2.553   3.757  18.497  0.00  0.00    +0.000 A 
ATOM     29  F   UNL     1       2.344   2.471  18.186  0.00  0.00    +0.000 F 
ATOM     30  C   UNL     1       3.208   4.581  17.587  0.00  0.00    +0.000 A 
ENDBRANCH  23  24
ENDBRANCH   1  23
TORSDOF 10
ENDMDL
MODEL 4
REMARK VINA RESULT:      -8.3      1.446      1.906
REMARK  Name = 
REMARK  10 active torsions:
REMARK  status: ('A' for Active; 'I' for Inactive)
REMARK    1  A    between atoms: C_2  and  C_3
REMARK    2  A    between atoms: C_2  and  C_5
REMARK    3  A    between atoms: C_5  and  N_6
REMARK    4  A    between atoms: C_7  and  C_9
REMARK    5  A    between atoms: C_9  and  C_10
REMARK    6  A    between atoms: C_9  and  N_18
REMARK    7  A    between atoms: C_10  and  C_11
REMARK    8  A    between atoms: C_19  and  O_21
REMARK    9  A    between atoms: O_21  and  C_22
REMARK   10  A    between atoms: C_22  and  C_23
REMARK                            x       y       z     vdW  Elec       q    Type
REMARK                         _______ _______ _______ _____ _____    ______ ____
ROOT
ATOM      1  C   UNL     1       5.233   5.619  17.729  0.00  0.00    +0.000 C 
ENDROOT
BRANCH   1   3
ATOM      2  N   UNL     1       5.967   5.255  15.348  0.00  0.00    +0.000 N 
ATOM      3  C   UNL     1       5.447   4.688  16.501  0.00  0.00    +0.000 C 
ATOM      4  O   UNL     1       5.279   3.471  16.568  0.00  0.00    +0.000 OA
ATOM      5  H   UNL     1       6.528   6.113  15.427  0.00  0.00    +0.000 HD
BRANCH   2   6
ATOM      6  C   UNL     1       6.114   4.425  14.164  0.00  0.00    +0.000 C 
BRANCH   6   8
ATOM      7  O   UNL     1       8.132   5.548  13.426  0.00  0.00    +0.000 OA
ATOM      8  C   UNL     1       7.205   4.779  13.155  0.00  0.00    +0.000 C 
BRANCH   8   9
ATOM      9  C   UNL     1       7.154   4.051  11.827  0.00  0.00    +0.000 C 
ATOM     10  F   UNL     1       6.687   2.771  11.944  0.00  0.00    +0.000 F 
ENDBRANCH   8   9
ENDBRANCH   6   8
ENDBRANCH   2   6
ENDBRANCH   1   3
BRANCH   1  11
ATOM     11  N   UNL     1       6.335   6.567  17.888  0.00  0.00    +0.000 N 
ATOM     12  C   UNL     1       7.470   6.262  18.542  0.00  0.00    +0.000 C 
ATOM     13  O   UNL     1       7.708   5.170  19.040  0.00  0.00    +0.000 OA
ATOM     14  H   UNL     1       6.336   7.436  17.373  0.00  0.00    +0.000 HD
BRANCH  12  15
ATOM     15  O   UNL     1       8.281   7.341  18.576  0.00  0.00    +0.000 OA
BRANCH  15  16
ATOM     16  C   UNL     1       7.856   8.436  17.755  0.00  0.00    +0.000 C 
BRANCH  16  17
ATOM     17  C   UNL     1       8.463   9.728  18.228  0.00  0.00    +0.000 A 
ATOM     18  C   UNL     1       8.290  10.908  17.492  0.00  0.00    +0.000 A 
ATOM     19  C   UNL     1       8.884  12.097  17.915  0.00  0.00    +0.000 A 
ATOM     20  C   UNL     1       9.655  12.117  19.077  0.00  0.00    +0.000 A 
ATOM     21  C   UNL     1       9.818  10.953  19.826  0.00  0.00    +0.000 A 
ATOM     22  C   UNL     1       9.227   9.762  19.403  0.00  0.00    +0.000 A 
ENDBRANCH  16  17
ENDBRANCH  15  16
ENDBRANCH  12  15
ENDBRANCH   1  11
BRANCH   1  23
ATOM     23  C   UNL     1       3.852   6.344  17.717  0.00  0.00    +0.000 C 
BRANCH  23  24
ATOM     24  C   UNL     1       2.776   5.639  18.521  0.00  0.00    +0.000 A 
ATOM     25  C   UNL     1       2.535   6.010  19.851  0.00  0.00    +0.000 A 
ATOM     26  C   UNL     1       1.719   5.228  20.672  0.00  0.00    +0.000 A 
ATOM     27  C   UNL     1       1.110   4.086  20.160  0.00  0.00    +0.000 A 
ATOM     28  C   UNL     1       1.275   3.769  18.818  0.00  0.00    +0.000 A 
ATOM     29  F   UNL     1       0.689   2.671  18.322  0.00  0.00    +0.000 F 
ATOM     30  C   UNL     1       2.083   4.544  17.990  0.00  0.00    +0.000 A 
ENDBRANCH  23  24
ENDBRANCH   1  23
TORSDOF 10
ENDMDL
MODEL 5
REMARK VINA RESULT:      -8.3      1.796      2.157
REMARK  Name = 
REMARK  10 active torsions:
REMARK  status: ('A' for Active; 'I' for Inactive)
REMARK    1  A    between atoms: C_2  and  C_3
REMARK    2  A    between atoms: C_2  and  C_5
REMARK    3  A    between atoms: C_5  and  N_6
REMARK    4  A    between atoms: C_7  and  C_9
REMARK    5  A    between atoms: C_9  and  C_10
REMARK    6  A    between atoms: C_9  and  N_18
REMARK    7  A    between atoms: C_10  and  C_11
REMARK    8  A    between atoms: C_19  and  O_21
REMARK    9  A    between atoms: O_21  and  C_22
REMARK   10  A    between atoms: C_22  and  C_23
REMARK                            x       y       z     vdW  Elec       q    Type
REMARK                         _______ _______ _______ _____ _____    ______ ____
ROOT
ATOM      1  C   UNL     1       6.127   5.396  16.597  0.00  0.00    +0.000 C 
ENDROOT
BRANCH   1   3
ATOM      2  N   UNL     1       5.912   4.304  14.339  0.00  0.00    +0.000 N 
ATOM      3  C   UNL     1       6.694   5.075  15.185  0.00  0.00    +0.000 C 
ATOM      4  O   UNL     1       7.742   5.573  14.774  0.00  0.00    +0.000 OA
ATOM      5  H   UNL     1       4.895   4.287  14.482  0.00  0.00    +0.000 HD
BRANCH   2   6
ATOM      6  C   UNL     1       6.446   3.930  13.039  0.00  0.00    +0.000 C 
BRANCH   6   8
ATOM      7  O   UNL     1       4.401   3.313  11.891  0.00  0.00    +0.000 OA
ATOM      8  C   UNL     1       5.588   3.062  12.120  0.00  0.00    +0.000 C 
BRANCH   8   9
ATOM      9  C   UNL     1       6.300   1.928  11.411  0.00  0.00    +0.000 C 
ATOM     10  F   UNL     1       5.598   0.755  11.453  0.00  0.00    +0.000 F 
ENDBRANCH   8   9
ENDBRANCH   6   8
ENDBRANCH   2   6
ENDBRANCH   1   3
BRANCH   1  11
ATOM     11  N   UNL     1       6.901   6.441  17.267  0.00  0.00    +0.000 N 
ATOM     12  C   UNL     1       7.747   6.185  18.279  0.00  0.00    +0.000 C 
ATOM     13  O   UNL     1       7.977   5.068  18.723  0.00  0.00    +0.000 OA
ATOM     14  H   UNL     1       6.937   7.373  16.880  0.00  0.00    +0.000 HD
BRANCH  12  15
ATOM     15  O   UNL     1       8.279   7.340  18.733  0.00  0.00    +0.000 OA
BRANCH  15  16
ATOM     16  C   UNL     1       8.040   8.478  17.897  0.00  0.00    +0.000 C 
BRANCH  16  17
ATOM     17  C   UNL     1       8.745   9.694  18.432  0.00  0.00    +0.000 A 
ATOM     18  C   UNL     1       9.063  10.764  17.584  0.00  0.00    +0.000 A 
ATOM     19  C   UNL     1       9.748  11.875  18.077  0.00  0.00    +0.000 A 
ATOM     20  C   UNL     1      10.120  11.926  19.420  0.00  0.00    +0.000 A 
ATOM     21  C   UNL     1       9.792  10.876  20.275  0.00  0.00    +0.000 A 
ATOM     22  C   UNL     1       9.109   9.763  19.783  0.00  0.00    +0.000 A 
ENDBRANCH  16  17
ENDBRANCH  15  16
ENDBRANCH  12  15
ENDBRANCH   1  11
BRANCH   1  23
ATOM     23  C   UNL     1       4.604   5.731  16.587  0.00  0.00    +0.000 C 
BRANCH  23  24
ATOM     24  C   UNL     1       3.748   4.744  17.358  0.00  0.00    +0.000 A 
ATOM     25  C   UNL     1       2.520   5.151  17.899  0.00  0.00    +0.000 A 
ATOM     26  C   UNL     1       1.833   4.333  18.800  0.00  0.00    +0.000 A 
ATOM     27  C   UNL     1       2.351   3.087  19.141  0.00  0.00    +0.000 A 
ATOM     28  C   UNL     1       3.520   2.646  18.534  0.00  0.00    +0.000 A 
ATOM     29  F   UNL     1       4.020   1.447  18.860  0.00  0.00    +0.000 F 
ATOM     30  C   UNL     1       4.210   3.451  17.633  0.00  0.00    +0.000 A 
ENDBRANCH  23  24
ENDBRANCH   1  23
TORSDOF 10
ENDMDL
MODEL 6
REMARK VINA RESULT:      -8.1      1.476      1.959
REMARK  Name = 
REMARK  10 active torsions:
REMARK  status: ('A' for Active; 'I' for Inactive)
REMARK    1  A    between atoms: C_2  and  C_3
REMARK    2  A    between atoms: C_2  and  C_5
REMARK    3  A    between atoms: C_5  and  N_6
REMARK    4  A    between atoms: C_7  and  C_9
REMARK    5  A    between atoms: C_9  and  C_10
REMARK    6  A    between atoms: C_9  and  N_18
REMARK    7  A    between atoms: C_10  and  C_11
REMARK    8  A    between atoms: C_19  and  O_21
REMARK    9  A    between atoms: O_21  and  C_22
REMARK   10  A    between atoms: C_22  and  C_23
REMARK                            x       y       z     vdW  Elec       q    Type
REMARK                         _______ _______ _______ _____ _____    ______ ____
ROOT
ATOM      1  C   UNL     1       5.559   6.463  17.428  0.00  0.00    +0.000 C 
ENDROOT
BRANCH   1   3
ATOM      2  N   UNL     1       6.628   5.551  15.339  0.00  0.00    +0.000 N 
ATOM      3  C   UNL     1       5.956   5.267  16.518  0.00  0.00    +0.000 C 
ATOM      4  O   UNL     1       5.792   4.098  16.868  0.00  0.00    +0.000 OA
ATOM      5  H   UNL     1       7.163   6.426  15.273  0.00  0.00    +0.000 HD
BRANCH   2   6
ATOM      6  C   UNL     1       6.950   4.459  14.435  0.00  0.00    +0.000 C 
BRANCH   6   8
ATOM      7  O   UNL     1       8.111   5.738  12.733  0.00  0.00    +0.000 OA
ATOM      8  C   UNL     1       7.362   4.795  13.003  0.00  0.00    +0.000 C 
BRANCH   8   9
ATOM      9  C   UNL     1       6.886   3.840  11.926  0.00  0.00    +0.000 C 
ATOM     10  F   UNL     1       5.628   3.360  12.164  0.00  0.00    +0.000 F 
ENDBRANCH   8   9
ENDBRANCH   6   8
ENDBRANCH   2   6
ENDBRANCH   1   3
BRANCH   1  11
ATOM     11  N   UNL     1       6.465   7.599  17.255  0.00  0.00    +0.000 N 
ATOM     12  C   UNL     1       7.637   7.701  17.905  0.00  0.00    +0.000 C 
ATOM     13  O   UNL     1       8.076   6.857  18.675  0.00  0.00    +0.000 OA
ATOM     14  H   UNL     1       6.303   8.270  16.518  0.00  0.00    +0.000 HD
BRANCH  12  15
ATOM     15  O   UNL     1       8.232   8.871  17.591  0.00  0.00    +0.000 OA
BRANCH  15  16
ATOM     16  C   UNL     1       8.776   9.584  18.709  0.00  0.00    +0.000 C 
BRANCH  16  17
ATOM     17  C   UNL     1       9.399  10.880  18.266  0.00  0.00    +0.000 A 
ATOM     18  C   UNL     1       8.596  11.941  17.824  0.00  0.00    +0.000 A 
ATOM     19  C   UNL     1       9.179  13.129  17.381  0.00  0.00    +0.000 A 
ATOM     20  C   UNL     1      10.567  13.266  17.378  0.00  0.00    +0.000 A 
ATOM     21  C   UNL     1      11.372  12.224  17.833  0.00  0.00    +0.000 A 
ATOM     22  C   UNL     1      10.791  11.034  18.274  0.00  0.00    +0.000 A 
ENDBRANCH  16  17
ENDBRANCH  15  16
ENDBRANCH  12  15
ENDBRANCH   1  11
BRANCH   1  23
ATOM     23  C   UNL     1       4.068   6.892  17.266  0.00  0.00    +0.000 C 
BRANCH  23  24
ATOM     24  C   UNL     1       3.100   6.101  18.127  0.00  0.00    +0.000 A 
ATOM     25  C   UNL     1       2.910   6.448  19.472  0.00  0.00    +0.000 A 
ATOM     26  C   UNL     1       2.209   5.601  20.333  0.00  0.00    +0.000 A 
ATOM     27  C   UNL     1       1.661   4.416  19.849  0.00  0.00    +0.000 A 
ATOM     28  C   UNL     1       1.771   4.118  18.497  0.00  0.00    +0.000 A 
ATOM     29  F   UNL     1       1.244   2.979  18.028  0.00  0.00    +0.000 F 
ATOM     30  C   UNL     1       2.464   4.957  17.629  0.00  0.00    +0.000 A 
ENDBRANCH  23  24
ENDBRANCH   1  23
TORSDOF 10
ENDMDL
MODEL 7
REMARK VINA RESULT:      -8.1      1.556      1.848
REMARK  Name = 
REMARK  10 active torsions:
REMARK  status: ('A' for Active; 'I' for Inactive)
REMARK    1  A    between atoms: C_2  and  C_3
REMARK    2  A    between atoms: C_2  and  C_5
REMARK    3  A    between atoms: C_5  and  N_6
REMARK    4  A    between atoms: C_7  and  C_9
REMARK    5  A    between atoms: C_9  and  C_10
REMARK    6  A    between atoms: C_9  and  N_18
REMARK    7  A    between atoms: C_10  and  C_11
REMARK    8  A    between atoms: C_19  and  O_21
REMARK    9  A    between atoms: O_21  and  C_22
REMARK   10  A    between atoms: C_22  and  C_23
REMARK                            x       y       z     vdW  Elec       q    Type
REMARK                         _______ _______ _______ _____ _____    ______ ____
ROOT
ATOM      1  C   UNL     1       6.354   6.528  17.218  0.00  0.00    +0.000 C 
ENDROOT
BRANCH   1   3
ATOM      2  N   UNL     1       6.784   5.674  14.889  0.00  0.00    +0.000 N 
ATOM      3  C   UNL     1       6.944   5.464  16.250  0.00  0.00    +0.000 C 
ATOM      4  O   UNL     1       7.632   4.526  16.653  0.00  0.00    +0.000 OA
ATOM      5  H   UNL     1       6.645   6.634  14.550  0.00  0.00    +0.000 HD
BRANCH   2   6
ATOM      6  C   UNL     1       7.265   4.662  13.963  0.00  0.00    +0.000 C 
BRANCH   6   8
ATOM      7  O   UNL     1       5.103   3.654  13.526  0.00  0.00    +0.000 OA
ATOM      8  C   UNL     1       6.242   3.900  13.121  0.00  0.00    +0.000 C 
BRANCH   8   9
ATOM      9  C   UNL     1       6.664   3.551  11.708  0.00  0.00    +0.000 C 
ATOM     10  F   UNL     1       7.419   2.412  11.647  0.00  0.00    +0.000 F 
ENDBRANCH   8   9
ENDBRANCH   6   8
ENDBRANCH   2   6
ENDBRANCH   1   3
BRANCH   1  11
ATOM     11  N   UNL     1       7.059   7.806  17.112  0.00  0.00    +0.000 N 
ATOM     12  C   UNL     1       8.058   8.158  17.940  0.00  0.00    +0.000 C 
ATOM     13  O   UNL     1       8.495   7.449  18.836  0.00  0.00    +0.000 OA
ATOM     14  H   UNL     1       6.914   8.401  16.309  0.00  0.00    +0.000 HD
BRANCH  12  15
ATOM     15  O   UNL     1       8.481   9.405  17.641  0.00  0.00    +0.000 OA
BRANCH  15  16
ATOM     16  C   UNL     1       8.456  10.325  18.739  0.00  0.00    +0.000 C 
BRANCH  16  17
ATOM     17  C   UNL     1       9.773  11.038  18.871  0.00  0.00    +0.000 A 
ATOM     18  C   UNL     1      10.493  11.421  17.731  0.00  0.00    +0.000 A 
ATOM     19  C   UNL     1      11.731  12.052  17.857  0.00  0.00    +0.000 A 
ATOM     20  C   UNL     1      12.260  12.304  19.123  0.00  0.00    +0.000 A 
ATOM     21  C   UNL     1      11.543  11.944  20.262  0.00  0.00    +0.000 A 
ATOM     22  C   UNL     1      10.306  11.311  20.138  0.00  0.00    +0.000 A 
ENDBRANCH  16  17
ENDBRANCH  15  16
ENDBRANCH  12  15
ENDBRANCH   1  11
BRANCH   1  23
ATOM     23  C   UNL     1       4.813   6.711  17.066  0.00  0.00    +0.000 C 
BRANCH  23  24
ATOM     24  C   UNL     1       3.990   5.690  17.830  0.00  0.00    +0.000 A 
ATOM     25  C   UNL     1       3.560   5.968  19.135  0.00  0.00    +0.000 A 
ATOM     26  C   UNL     1       3.008   4.962  19.932  0.00  0.00    +0.000 A 
ATOM     27  C   UNL     1       2.849   3.678  19.418  0.00  0.00    +0.000 A 
ATOM     28  C   UNL     1       3.190   3.426  18.096  0.00  0.00    +0.000 A 
ATOM     29  F   UNL     1       3.037   2.192  17.599  0.00  0.00    +0.000 F 
ATOM     30  C   UNL     1       3.738   4.422  17.293  0.00  0.00    +0.000 A 
ENDBRANCH  23  24
ENDBRANCH   1  23
TORSDOF 10
ENDMDL
MODEL 8
REMARK VINA RESULT:      -8.1      1.282      1.584
REMARK  Name = 
REMARK  10 active torsions:
REMARK  status: ('A' for Active; 'I' for Inactive)
REMARK    1  A    between atoms: C_2  and  C_3
REMARK    2  A    between atoms: C_2  and  C_5
REMARK    3  A    between atoms: C_5  and  N_6
REMARK    4  A    between atoms: C_7  and  C_9
REMARK    5  A    between atoms: C_9  and  C_10
REMARK    6  A    between atoms: C_9  and  N_18
REMARK    7  A    between atoms: C_10  and  C_11
REMARK    8  A    between atoms: C_19  and  O_21
REMARK    9  A    between atoms: O_21  and  C_22
REMARK   10  A    between atoms: C_22  and  C_23
REMARK                            x       y       z     vdW  Elec       q    Type
REMARK                         _______ _______ _______ _____ _____    ______ ____
ROOT
ATOM      1  C   UNL     1       5.591   6.449  17.472  0.00  0.00    +0.000 C 
ENDROOT
BRANCH   1   3
ATOM      2  N   UNL     1       6.478   5.476  15.327  0.00  0.00    +0.000 N 
ATOM      3  C   UNL     1       5.853   5.233  16.540  0.00  0.00    +0.000 C 
ATOM      4  O   UNL     1       5.629   4.076  16.898  0.00  0.00    +0.000 OA
ATOM      5  H   UNL     1       7.067   6.312  15.232  0.00  0.00    +0.000 HD
BRANCH   2   6
ATOM      6  C   UNL     1       6.673   4.368  14.405  0.00  0.00    +0.000 C 
BRANCH   6   8
ATOM      7  O   UNL     1       8.141   5.519  12.855  0.00  0.00    +0.000 OA
ATOM      8  C   UNL     1       7.271   4.661  13.030  0.00  0.00    +0.000 C 
BRANCH   8   9
ATOM      9  C   UNL     1       6.816   3.763  11.896  0.00  0.00    +0.000 C 
ATOM     10  F   UNL     1       6.232   2.609  12.337  0.00  0.00    +0.000 F 
ENDBRANCH   8   9
ENDBRANCH   6   8
ENDBRANCH   2   6
ENDBRANCH   1   3
BRANCH   1  11
ATOM     11  N   UNL     1       6.572   7.514  17.261  0.00  0.00    +0.000 N 
ATOM     12  C   UNL     1       7.722   7.593  17.953  0.00  0.00    +0.000 C 
ATOM     13  O   UNL     1       8.077   6.782  18.798  0.00  0.00    +0.000 OA
ATOM     14  H   UNL     1       6.481   8.139  16.473  0.00  0.00    +0.000 HD
BRANCH  12  15
ATOM     15  O   UNL     1       8.400   8.701  17.586  0.00  0.00    +0.000 OA
BRANCH  15  16
ATOM     16  C   UNL     1       8.012   9.896  18.275  0.00  0.00    +0.000 C 
BRANCH  16  17
ATOM     17  C   UNL     1       9.218  10.642  18.775  0.00  0.00    +0.000 A 
ATOM     18  C   UNL     1      10.180  11.125  17.878  0.00  0.00    +0.000 A 
ATOM     19  C   UNL     1      11.315  11.786  18.349  0.00  0.00    +0.000 A 
ATOM     20  C   UNL     1      11.497  11.970  19.719  0.00  0.00    +0.000 A 
ATOM     21  C   UNL     1      10.537  11.510  20.618  0.00  0.00    +0.000 A 
ATOM     22  C   UNL     1       9.402  10.846  20.149  0.00  0.00    +0.000 A 
ENDBRANCH  16  17
ENDBRANCH  15  16
ENDBRANCH  12  15
ENDBRANCH   1  11
BRANCH   1  23
ATOM     23  C   UNL     1       4.131   6.991  17.381  0.00  0.00    +0.000 C 
BRANCH  23  24
ATOM     24  C   UNL     1       3.137   6.235  18.243  0.00  0.00    +0.000 A 
ATOM     25  C   UNL     1       2.895   6.645  19.562  0.00  0.00    +0.000 A 
ATOM     26  C   UNL     1       2.167   5.835  20.436  0.00  0.00    +0.000 A 
ATOM     27  C   UNL     1       1.644   4.624  19.990  0.00  0.00    +0.000 A 
ATOM     28  C   UNL     1       1.806   4.262  18.659  0.00  0.00    +0.000 A 
ATOM     29  F   UNL     1       1.303   3.098  18.227  0.00  0.00    +0.000 F 
ATOM     30  C   UNL     1       2.526   5.063  17.778  0.00  0.00    +0.000 A 
ENDBRANCH  23  24
ENDBRANCH   1  23
TORSDOF 10
ENDMDL
MODEL 9
REMARK VINA RESULT:      -8.0      1.198      1.471
REMARK  Name = 
REMARK  10 active torsions:
REMARK  status: ('A' for Active; 'I' for Inactive)
REMARK    1  A    between atoms: C_2  and  C_3
REMARK    2  A    between atoms: C_2  and  C_5
REMARK    3  A    between atoms: C_5  and  N_6
REMARK    4  A    between atoms: C_7  and  C_9
REMARK    5  A    between atoms: C_9  and  C_10
REMARK    6  A    between atoms: C_9  and  N_18
REMARK    7  A    between atoms: C_10  and  C_11
REMARK    8  A    between atoms: C_19  and  O_21
REMARK    9  A    between atoms: O_21  and  C_22
REMARK   10  A    between atoms: C_22  and  C_23
REMARK                            x       y       z     vdW  Elec       q    Type
REMARK                         _______ _______ _______ _____ _____    ______ ____
ROOT
ATOM      1  C   UNL     1       6.110   5.609  18.174  0.00  0.00    +0.000 C 
ENDROOT
BRANCH   1   3
ATOM      2  N   UNL     1       6.068   4.540  15.895  0.00  0.00    +0.000 N 
ATOM      3  C   UNL     1       6.752   4.697  17.090  0.00  0.00    +0.000 C 
ATOM      4  O   UNL     1       7.878   4.218  17.224  0.00  0.00    +0.000 OA
ATOM      5  H   UNL     1       5.406   5.271  15.603  0.00  0.00    +0.000 HD
BRANCH   2   6
ATOM      6  C   UNL     1       6.609   3.639  14.891  0.00  0.00    +0.000 C 
BRANCH   6   8
ATOM      7  O   UNL     1       5.444   3.614  12.764  0.00  0.00    +0.000 OA
ATOM      8  C   UNL     1       6.421   3.992  13.416  0.00  0.00    +0.000 C 
BRANCH   8   9
ATOM      9  C   UNL     1       7.448   4.930  12.815  0.00  0.00    +0.000 C 
ATOM     10  F   UNL     1       7.490   4.863  11.450  0.00  0.00    +0.000 F 
ENDBRANCH   8   9
ENDBRANCH   6   8
ENDBRANCH   2   6
ENDBRANCH   1   3
BRANCH   1  11
ATOM     11  N   UNL     1       7.026   6.667  18.602  0.00  0.00    +0.000 N 
ATOM     12  C   UNL     1       7.648   7.486  17.736  0.00  0.00    +0.000 C 
ATOM     13  O   UNL     1       7.497   7.452  16.522  0.00  0.00    +0.000 OA
ATOM     14  H   UNL     1       7.097   6.913  19.579  0.00  0.00    +0.000 HD
BRANCH  12  15
ATOM     15  O   UNL     1       8.467   8.323  18.408  0.00  0.00    +0.000 OA
BRANCH  15  16
ATOM     16  C   UNL     1       8.265   9.713  18.126  0.00  0.00    +0.000 C 
BRANCH  16  17
ATOM     17  C   UNL     1       9.368  10.546  18.717  0.00  0.00    +0.000 A 
ATOM     18  C   UNL     1      10.400  11.039  17.907  0.00  0.00    +0.000 A 
ATOM     19  C   UNL     1      11.441  11.783  18.466  0.00  0.00    +0.000 A 
ATOM     20  C   UNL     1      11.457  12.040  19.836  0.00  0.00    +0.000 A 
ATOM     21  C   UNL     1      10.426  11.570  20.647  0.00  0.00    +0.000 A 
ATOM     22  C   UNL     1       9.386  10.824  20.090  0.00  0.00    +0.000 A 
ENDBRANCH  16  17
ENDBRANCH  15  16
ENDBRANCH  12  15
ENDBRANCH   1  11
BRANCH   1  23
ATOM     23  C   UNL     1       4.726   6.189  17.750  0.00  0.00    +0.000 C 
BRANCH  23  24
ATOM     24  C   UNL     1       3.542   5.506  18.409  0.00  0.00    +0.000 A 
ATOM     25  C   UNL     1       3.116   5.911  19.682  0.00  0.00    +0.000 A 
ATOM     26  C   UNL     1       2.187   5.150  20.396  0.00  0.00    +0.000 A 
ATOM     27  C   UNL     1       1.649   3.998  19.830  0.00  0.00    +0.000 A 
ATOM     28  C   UNL     1       2.002   3.649  18.533  0.00  0.00    +0.000 A 
ATOM     29  F   UNL     1       1.485   2.541  17.985  0.00  0.00    +0.000 F 
ATOM     30  C   UNL     1       2.924   4.400  17.811  0.00  0.00    +0.000 A 
ENDBRANCH  23  24
ENDBRANCH   1  23
TORSDOF 10
ENDMDL
