MODEL 1
REMARK VINA RESULT:      -8.7      0.000      0.000
REMARK  Name = 
REMARK  5 active torsions:
REMARK  status: ('A' for Active; 'I' for Inactive)
REMARK    1  A    between atoms: C_1  and  C_2
REMARK    2  A    between atoms: C_5  and  C_6
REMARK    3  A    between atoms: C_7  and  C_8
REMARK    4  A    between atoms: C_12  and  C_13
REMARK    5  A    between atoms: C_19  and  C_20
REMARK                            x       y       z     vdW  Elec       q    Type
REMARK                         _______ _______ _______ _____ _____    ______ ____
ROOT
ATOM      1  C   UNL     1       8.849   9.843  18.451  0.00  0.00    +0.000 C 
ATOM      2  C   UNL     1       8.350   8.767  18.252  0.00  0.00    +0.000 C 
ENDROOT
BRANCH   1   7
ATOM      3  C   UNL     1       8.642  12.778  23.446  0.00  0.00    +0.000 C 
ATOM      4  C   UNL     1       9.191  12.552  22.085  0.00  0.00    +0.000 A 
ATOM      5  C   UNL     1       8.897  11.463  21.214  0.00  0.00    +0.000 A 
ATOM      6  C   UNL     1       9.512  11.728  20.010  0.00  0.00    +0.000 A 
ATOM      7  C   UNL     1       9.525  11.084  18.728  0.00  0.00    +0.000 A 
ATOM      8  N   UNL     1      10.128  11.580  17.685  0.00  0.00    +0.000 NA
ATOM      9  C   UNL     1      10.793  12.793  17.849  0.00  0.00    +0.000 A 
ATOM     10  C   UNL     1      11.398  13.402  16.620  0.00  0.00    +0.000 C 
ATOM     11  C   UNL     1      10.862  13.437  19.032  0.00  0.00    +0.000 A 
ATOM     12  N   UNL     1      10.210  12.901  20.127  0.00  0.00    +0.000 N 
ATOM     13  C   UNL     1      10.061  13.385  21.401  0.00  0.00    +0.000 A 
ENDBRANCH   1   7
BRANCH   2  14
ATOM     14  C   UNL     1       7.816   7.457  18.037  0.00  0.00    +0.000 A 
ATOM     15  C   UNL     1       8.129   6.417  18.915  0.00  0.00    +0.000 A 
ATOM     16  C   UNL     1       7.636   5.132  18.686  0.00  0.00    +0.000 A 
ATOM     17  C   UNL     1       6.829   4.880  17.575  0.00  0.00    +0.000 A 
ATOM     18  C   UNL     1       6.509   5.912  16.681  0.00  0.00    +0.000 A 
ATOM     19  C   UNL     1       7.005   7.204  16.927  0.00  0.00    +0.000 A 
BRANCH  18  20
ATOM     20  C   UNL     1       5.655   5.653  15.464  0.00  0.00    +0.000 C 
ATOM     21  F   UNL     1       4.929   6.736  15.067  0.00  0.00    +0.000 F 
ATOM     22  F   UNL     1       6.388   5.279  14.381  0.00  0.00    +0.000 F 
ATOM     23  F   UNL     1       4.750   4.655  15.667  0.00  0.00    +0.000 F 
ENDBRANCH  18  20
ENDBRANCH   2  14
TORSDOF 3
ENDMDL
MODEL 2
REMARK VINA RESULT:      -8.5      6.808      9.645
REMARK  Name = 
REMARK  5 active torsions:
REMARK  status: ('A' for Active; 'I' for Inactive)
REMARK    1  A    between atoms: C_1  and  C_2
REMARK    2  A    between atoms: C_5  and  C_6
REMARK    3  A    between atoms: C_7  and  C_8
REMARK    4  A    between atoms: C_12  and  C_13
REMARK    5  A    between atoms: C_19  and  C_20
REMARK                            x       y       z     vdW  Elec       q    Type
REMARK                         _______ _______ _______ _____ _____    ______ ____
ROOT
ATOM      1  C   UNL     1       2.671   7.836  17.896  0.00  0.00    +0.000 C 
ATOM      2  C   UNL     1       1.884   8.736  18.023  0.00  0.00    +0.000 C 
ENDROOT
BRANCH   1   7
ATOM      3  C   UNL     1       1.152   2.295  18.663  0.00  0.00    +0.000 C 
ATOM      4  C   UNL     1       2.117   3.337  18.230  0.00  0.00    +0.000 A 
ATOM      5  C   UNL     1       1.888   4.742  18.171  0.00  0.00    +0.000 A 
ATOM      6  C   UNL     1       3.089   5.337  17.853  0.00  0.00    +0.000 A 
ATOM      7  C   UNL     1       3.535   6.696  17.735  0.00  0.00    +0.000 A 
ATOM      8  N   UNL     1       4.774   7.024  17.501  0.00  0.00    +0.000 NA
ATOM      9  C   UNL     1       5.691   5.986  17.352  0.00  0.00    +0.000 A 
ATOM     10  C   UNL     1       7.129   6.377  17.181  0.00  0.00    +0.000 C 
ATOM     11  C   UNL     1       5.342   4.684  17.406  0.00  0.00    +0.000 A 
ATOM     12  N   UNL     1       4.024   4.354  17.664  0.00  0.00    +0.000 N 
ATOM     13  C   UNL     1       3.431   3.132  17.843  0.00  0.00    +0.000 A 
ENDBRANCH   1   7
BRANCH   2  14
ATOM     14  C   UNL     1       0.895   9.762  18.163  0.00  0.00    +0.000 A 
ATOM     15  C   UNL     1       1.222  10.976  18.771  0.00  0.00    +0.000 A 
ATOM     16  C   UNL     1       0.250  11.963  18.938  0.00  0.00    +0.000 A 
ATOM     17  C   UNL     1      -1.057  11.738  18.501  0.00  0.00    +0.000 A 
ATOM     18  C   UNL     1      -1.403  10.522  17.893  0.00  0.00    +0.000 A 
ATOM     19  C   UNL     1      -0.413   9.539  17.723  0.00  0.00    +0.000 A 
BRANCH  18  20
ATOM     20  C   UNL     1      -2.815  10.254  17.433  0.00  0.00    +0.000 C 
ATOM     21  F   UNL     1      -2.936  10.141  16.080  0.00  0.00    +0.000 F 
ATOM     22  F   UNL     1      -3.324   9.103  17.950  0.00  0.00    +0.000 F 
ATOM     23  F   UNL     1      -3.678  11.243  17.799  0.00  0.00    +0.000 F 
ENDBRANCH  18  20
ENDBRANCH   2  14
TORSDOF 3
ENDMDL
MODEL 3
REMARK VINA RESULT:      -8.2      6.982      9.503
REMARK  Name = 
REMARK  5 active torsions:
REMARK  status: ('A' for Active; 'I' for Inactive)
REMARK    1  A    between atoms: C_1  and  C_2
REMARK    2  A    between atoms: C_5  and  C_6
REMARK    3  A    between atoms: C_7  and  C_8
REMARK    4  A    between atoms: C_12  and  C_13
REMARK    5  A    between atoms: C_19  and  C_20
REMARK                            x       y       z     vdW  Elec       q    Type
REMARK                         _______ _______ _______ _____ _____    ______ ____
ROOT
ATOM      1  C   UNL     1       2.523   7.764  18.119  0.00  0.00    +0.000 C 
ATOM      2  C   UNL     1       1.796   8.721  18.161  0.00  0.00    +0.000 C 
ENDROOT
BRANCH   1   7
ATOM      3  C   UNL     1       1.769   3.183  21.590  0.00  0.00    +0.000 C 
ATOM      4  C   UNL     1       2.444   3.867  20.458  0.00  0.00    +0.000 A 
ATOM      5  C   UNL     1       2.109   5.138  19.905  0.00  0.00    +0.000 A 
ATOM      6  C   UNL     1       3.076   5.443  18.973  0.00  0.00    +0.000 A 
ATOM      7  C   UNL     1       3.355   6.589  18.156  0.00  0.00    +0.000 A 
ATOM      8  N   UNL     1       4.406   6.684  17.392  0.00  0.00    +0.000 NA
ATOM      9  C   UNL     1       5.284   5.603  17.378  0.00  0.00    +0.000 A 
ATOM     10  C   UNL     1       6.539   5.764  16.573  0.00  0.00    +0.000 C 
ATOM     11  C   UNL     1       5.070   4.474  18.085  0.00  0.00    +0.000 A 
ATOM     12  N   UNL     1       3.953   4.394  18.896  0.00  0.00    +0.000 N 
ATOM     13  C   UNL     1       3.549   3.409  19.761  0.00  0.00    +0.000 A 
ENDBRANCH   1   7
BRANCH   2  14
ATOM     14  C   UNL     1       0.903   9.834  18.270  0.00  0.00    +0.000 A 
ATOM     15  C   UNL     1       1.354  11.050  18.790  0.00  0.00    +0.000 A 
ATOM     16  C   UNL     1       0.475  12.124  18.927  0.00  0.00    +0.000 A 
ATOM     17  C   UNL     1      -0.863  11.986  18.551  0.00  0.00    +0.000 A 
ATOM     18  C   UNL     1      -1.333  10.771  18.032  0.00  0.00    +0.000 A 
ATOM     19  C   UNL     1      -0.435   9.698  17.890  0.00  0.00    +0.000 A 
BRANCH  18  20
ATOM     20  C   UNL     1      -2.779  10.598  17.638  0.00  0.00    +0.000 C 
ATOM     21  F   UNL     1      -3.652  11.215  18.482  0.00  0.00    +0.000 F 
ATOM     22  F   UNL     1      -3.047  11.092  16.398  0.00  0.00    +0.000 F 
ATOM     23  F   UNL     1      -3.156   9.289  17.608  0.00  0.00    +0.000 F 
ENDBRANCH  18  20
ENDBRANCH   2  14
TORSDOF 3
ENDMDL
MODEL 4
REMARK VINA RESULT:      -8.1      7.078      8.737
REMARK  Name = 
REMARK  5 active torsions:
REMARK  status: ('A' for Active; 'I' for Inactive)
REMARK    1  A    between atoms: C_1  and  C_2
REMARK    2  A    between atoms: C_5  and  C_6
REMARK    3  A    between atoms: C_7  and  C_8
REMARK    4  A    between atoms: C_12  and  C_13
REMARK    5  A    between atoms: C_19  and  C_20
REMARK                            x       y       z     vdW  Elec       q    Type
REMARK                         _______ _______ _______ _____ _____    ______ ____
ROOT
ATOM      1  C   UNL     1       1.538   9.110  18.567  0.00  0.00    +0.000 C 
ATOM      2  C   UNL     1       2.164   8.117  18.306  0.00  0.00    +0.000 C 
ENDROOT
BRANCH   1   7
ATOM      3  C   UNL     1      -3.505  10.335  15.983  0.00  0.00    +0.000 C 
ATOM      4  C   UNL     1      -2.476  10.584  17.025  0.00  0.00    +0.000 A 
ATOM      5  C   UNL     1      -1.317   9.798  17.286  0.00  0.00    +0.000 A 
ATOM      6  C   UNL     1      -0.576  10.468  18.235  0.00  0.00    +0.000 A 
ATOM      7  C   UNL     1       0.707  10.254  18.841  0.00  0.00    +0.000 A 
ATOM      8  N   UNL     1       1.253  11.093  19.675  0.00  0.00    +0.000 NA
ATOM      9  C   UNL     1       0.532  12.244  19.985  0.00  0.00    +0.000 A 
ATOM     10  C   UNL     1       1.212  13.247  20.867  0.00  0.00    +0.000 C 
ATOM     11  C   UNL     1      -0.697  12.496  19.491  0.00  0.00    +0.000 A 
ATOM     12  N   UNL     1      -1.258  11.598  18.601  0.00  0.00    +0.000 N 
ATOM     13  C   UNL     1      -2.439  11.653  17.905  0.00  0.00    +0.000 A 
ENDBRANCH   1   7
BRANCH   2  14
ATOM     14  C   UNL     1       2.850   6.905  17.976  0.00  0.00    +0.000 A 
ATOM     15  C   UNL     1       4.105   6.951  17.365  0.00  0.00    +0.000 A 
ATOM     16  C   UNL     1       4.758   5.769  17.012  0.00  0.00    +0.000 A 
ATOM     17  C   UNL     1       4.156   4.535  17.264  0.00  0.00    +0.000 A 
ATOM     18  C   UNL     1       2.894   4.472  17.872  0.00  0.00    +0.000 A 
ATOM     19  C   UNL     1       2.249   5.669  18.231  0.00  0.00    +0.000 A 
BRANCH  18  20
ATOM     20  C   UNL     1       2.219   3.148  18.134  0.00  0.00    +0.000 C 
ATOM     21  F   UNL     1       0.859   3.225  18.166  0.00  0.00    +0.000 F 
ATOM     22  F   UNL     1       2.518   2.213  17.191  0.00  0.00    +0.000 F 
ATOM     23  F   UNL     1       2.587   2.604  19.328  0.00  0.00    +0.000 F 
ENDBRANCH  18  20
ENDBRANCH   2  14
TORSDOF 3
ENDMDL
MODEL 5
REMARK VINA RESULT:      -8.0      6.830      8.279
REMARK  Name = 
REMARK  5 active torsions:
REMARK  status: ('A' for Active; 'I' for Inactive)
REMARK    1  A    between atoms: C_1  and  C_2
REMARK    2  A    between atoms: C_5  and  C_6
REMARK    3  A    between atoms: C_7  and  C_8
REMARK    4  A    between atoms: C_12  and  C_13
REMARK    5  A    between atoms: C_19  and  C_20
REMARK                            x       y       z     vdW  Elec       q    Type
REMARK                         _______ _______ _______ _____ _____    ______ ____
ROOT
ATOM      1  C   UNL     1       1.819   8.982  18.029  0.00  0.00    +0.000 C 
ATOM      2  C   UNL     1       2.339   7.904  17.908  0.00  0.00    +0.000 C 
ENDROOT
BRANCH   1   7
ATOM      3  C   UNL     1      -3.816  10.300  17.704  0.00  0.00    +0.000 C 
ATOM      4  C   UNL     1      -2.412  10.643  18.043  0.00  0.00    +0.000 A 
ATOM      5  C   UNL     1      -1.285   9.771  17.999  0.00  0.00    +0.000 A 
ATOM      6  C   UNL     1      -0.168  10.537  18.254  0.00  0.00    +0.000 A 
ATOM      7  C   UNL     1       1.243  10.281  18.263  0.00  0.00    +0.000 A 
ATOM      8  N   UNL     1       2.137  11.209  18.454  0.00  0.00    +0.000 NA
ATOM      9  C   UNL     1       1.676  12.506  18.666  0.00  0.00    +0.000 A 
ATOM     10  C   UNL     1       2.715  13.580  18.786  0.00  0.00    +0.000 C 
ATOM     11  C   UNL     1       0.365  12.819  18.716  0.00  0.00    +0.000 A 
ATOM     12  N   UNL     1      -0.570  11.823  18.503  0.00  0.00    +0.000 N 
ATOM     13  C   UNL     1      -1.938  11.887  18.425  0.00  0.00    +0.000 A 
ENDBRANCH   1   7
BRANCH   2  14
ATOM     14  C   UNL     1       2.992   6.633  17.823  0.00  0.00    +0.000 A 
ATOM     15  C   UNL     1       4.327   6.554  17.419  0.00  0.00    +0.000 A 
ATOM     16  C   UNL     1       4.953   5.312  17.304  0.00  0.00    +0.000 A 
ATOM     17  C   UNL     1       4.245   4.143  17.588  0.00  0.00    +0.000 A 
ATOM     18  C   UNL     1       2.903   4.205  17.990  0.00  0.00    +0.000 A 
ATOM     19  C   UNL     1       2.285   5.462  18.111  0.00  0.00    +0.000 A 
BRANCH  18  20
ATOM     20  C   UNL     1       2.117   2.950  18.282  0.00  0.00    +0.000 C 
ATOM     21  F   UNL     1       2.419   2.384  19.483  0.00  0.00    +0.000 F 
ATOM     22  F   UNL     1       0.773   3.167  18.300  0.00  0.00    +0.000 F 
ATOM     23  F   UNL     1       2.326   1.978  17.351  0.00  0.00    +0.000 F 
ENDBRANCH  18  20
ENDBRANCH   2  14
TORSDOF 3
ENDMDL
MODEL 6
REMARK VINA RESULT:      -8.0      6.992      8.399
REMARK  Name = 
REMARK  5 active torsions:
REMARK  status: ('A' for Active; 'I' for Inactive)
REMARK    1  A    between atoms: C_1  and  C_2
REMARK    2  A    between atoms: C_5  and  C_6
REMARK    3  A    between atoms: C_7  and  C_8
REMARK    4  A    between atoms: C_12  and  C_13
REMARK    5  A    between atoms: C_19  and  C_20
REMARK                            x       y       z     vdW  Elec       q    Type
REMARK                         _______ _______ _______ _____ _____    ______ ____
ROOT
ATOM      1  C   UNL     1       1.812   8.931  18.098  0.00  0.00    +0.000 C 
ATOM      2  C   UNL     1       2.235   7.807  18.043  0.00  0.00    +0.000 C 
ENDROOT
BRANCH   1   7
ATOM      3  C   UNL     1      -3.789  10.384  17.740  0.00  0.00    +0.000 C 
ATOM      4  C   UNL     1      -2.372  10.707  18.046  0.00  0.00    +0.000 A 
ATOM      5  C   UNL     1      -1.270   9.804  18.046  0.00  0.00    +0.000 A 
ATOM      6  C   UNL     1      -0.130  10.552  18.246  0.00  0.00    +0.000 A 
ATOM      7  C   UNL     1       1.274  10.257  18.258  0.00  0.00    +0.000 A 
ATOM      8  N   UNL     1       2.195  11.169  18.385  0.00  0.00    +0.000 NA
ATOM      9  C   UNL     1       1.771  12.489  18.523  0.00  0.00    +0.000 A 
ATOM     10  C   UNL     1       2.840  13.539  18.569  0.00  0.00    +0.000 C 
ATOM     11  C   UNL     1       0.470  12.842  18.564  0.00  0.00    +0.000 A 
ATOM     12  N   UNL     1      -0.495  11.861  18.420  0.00  0.00    +0.000 N 
ATOM     13  C   UNL     1      -1.861  11.958  18.349  0.00  0.00    +0.000 A 
ENDBRANCH   1   7
BRANCH   2  14
ATOM     14  C   UNL     1       2.721   6.460  18.044  0.00  0.00    +0.000 A 
ATOM     15  C   UNL     1       3.954   6.157  17.463  0.00  0.00    +0.000 A 
ATOM     16  C   UNL     1       4.411   4.839  17.434  0.00  0.00    +0.000 A 
ATOM     17  C   UNL     1       3.634   3.816  17.982  0.00  0.00    +0.000 A 
ATOM     18  C   UNL     1       2.391   4.104  18.565  0.00  0.00    +0.000 A 
ATOM     19  C   UNL     1       1.945   5.437  18.596  0.00  0.00    +0.000 A 
BRANCH  18  20
ATOM     20  C   UNL     1       1.529   3.009  19.144  0.00  0.00    +0.000 C 
ATOM     21  F   UNL     1       0.468   2.676  18.357  0.00  0.00    +0.000 F 
ATOM     22  F   UNL     1       2.218   1.854  19.350  0.00  0.00    +0.000 F 
ATOM     23  F   UNL     1       1.000   3.349  20.353  0.00  0.00    +0.000 F 
ENDBRANCH  18  20
ENDBRANCH   2  14
TORSDOF 3
ENDMDL
MODEL 7
REMARK VINA RESULT:      -8.0      7.354     10.045
REMARK  Name = 
REMARK  5 active torsions:
REMARK  status: ('A' for Active; 'I' for Inactive)
REMARK    1  A    between atoms: C_1  and  C_2
REMARK    2  A    between atoms: C_5  and  C_6
REMARK    3  A    between atoms: C_7  and  C_8
REMARK    4  A    between atoms: C_12  and  C_13
REMARK    5  A    between atoms: C_19  and  C_20
REMARK                            x       y       z     vdW  Elec       q    Type
REMARK                         _______ _______ _______ _____ _____    ______ ____
ROOT
ATOM      1  C   UNL     1       2.695   7.276  18.263  0.00  0.00    +0.000 C 
ATOM      2  C   UNL     1       2.120   8.201  18.771  0.00  0.00    +0.000 C 
ENDROOT
BRANCH   1   7
ATOM      3  C   UNL     1       0.846   1.815  18.859  0.00  0.00    +0.000 C 
ATOM      4  C   UNL     1       1.748   2.830  18.259  0.00  0.00    +0.000 A 
ATOM      5  C   UNL     1       1.677   4.243  18.431  0.00  0.00    +0.000 A 
ATOM      6  C   UNL     1       2.784   4.784  17.814  0.00  0.00    +0.000 A 
ATOM      7  C   UNL     1       3.329   6.107  17.711  0.00  0.00    +0.000 A 
ATOM      8  N   UNL     1       4.466   6.369  17.132  0.00  0.00    +0.000 NA
ATOM      9  C   UNL     1       5.167   5.295  16.586  0.00  0.00    +0.000 A 
ATOM     10  C   UNL     1       6.519   5.595  16.011  0.00  0.00    +0.000 C 
ATOM     11  C   UNL     1       4.701   4.030  16.605  0.00  0.00    +0.000 A 
ATOM     12  N   UNL     1       3.496   3.769  17.230  0.00  0.00    +0.000 N 
ATOM     13  C   UNL     1       2.846   2.582  17.454  0.00  0.00    +0.000 A 
ENDBRANCH   1   7
BRANCH   2  14
ATOM     14  C   UNL     1       1.394   9.257  19.410  0.00  0.00    +0.000 A 
ATOM     15  C   UNL     1       1.202  10.475  18.756  0.00  0.00    +0.000 A 
ATOM     16  C   UNL     1       0.524  11.515  19.393  0.00  0.00    +0.000 A 
ATOM     17  C   UNL     1       0.039  11.343  20.691  0.00  0.00    +0.000 A 
ATOM     18  C   UNL     1       0.228  10.127  21.364  0.00  0.00    +0.000 A 
ATOM     19  C   UNL     1       0.905   9.084  20.708  0.00  0.00    +0.000 A 
BRANCH  18  20
ATOM     20  C   UNL     1      -0.272   9.930  22.774  0.00  0.00    +0.000 C 
ATOM     21  F   UNL     1      -0.881  11.031  23.296  0.00  0.00    +0.000 F 
ATOM     22  F   UNL     1      -1.180   8.921  22.871  0.00  0.00    +0.000 F 
ATOM     23  F   UNL     1       0.730   9.616  23.641  0.00  0.00    +0.000 F 
ENDBRANCH  18  20
ENDBRANCH   2  14
TORSDOF 3
ENDMDL
MODEL 8
REMARK VINA RESULT:      -7.9      8.042     10.513
REMARK  Name = 
REMARK  5 active torsions:
REMARK  status: ('A' for Active; 'I' for Inactive)
REMARK    1  A    between atoms: C_1  and  C_2
REMARK    2  A    between atoms: C_5  and  C_6
REMARK    3  A    between atoms: C_7  and  C_8
REMARK    4  A    between atoms: C_12  and  C_13
REMARK    5  A    between atoms: C_19  and  C_20
REMARK                            x       y       z     vdW  Elec       q    Type
REMARK                         _______ _______ _______ _____ _____    ______ ____
ROOT
ATOM      1  C   UNL     1       2.013   7.243  19.951  0.00  0.00    +0.000 C 
ATOM      2  C   UNL     1       1.473   8.313  20.047  0.00  0.00    +0.000 C 
ENDROOT
BRANCH   1   7
ATOM      3  C   UNL     1       5.421   5.588  15.563  0.00  0.00    +0.000 C 
ATOM      4  C   UNL     1       4.779   5.349  16.881  0.00  0.00    +0.000 A 
ATOM      5  C   UNL     1       4.005   6.278  17.636  0.00  0.00    +0.000 A 
ATOM      6  C   UNL     1       3.493   5.597  18.718  0.00  0.00    +0.000 A 
ATOM      7  C   UNL     1       2.584   5.932  19.776  0.00  0.00    +0.000 A 
ATOM      8  N   UNL     1       2.169   5.072  20.662  0.00  0.00    +0.000 NA
ATOM      9  C   UNL     1       2.650   3.769  20.561  0.00  0.00    +0.000 A 
ATOM     10  C   UNL     1       2.090   2.767  21.524  0.00  0.00    +0.000 C 
ATOM     11  C   UNL     1       3.539   3.386  19.621  0.00  0.00    +0.000 A 
ATOM     12  N   UNL     1       3.963   4.310  18.684  0.00  0.00    +0.000 N 
ATOM     13  C   UNL     1       4.786   4.164  17.597  0.00  0.00    +0.000 A 
ENDBRANCH   1   7
BRANCH   2  14
ATOM     14  C   UNL     1       0.782   9.564  20.116  0.00  0.00    +0.000 A 
ATOM     15  C   UNL     1       0.845  10.463  19.049  0.00  0.00    +0.000 A 
ATOM     16  C   UNL     1       0.200  11.697  19.130  0.00  0.00    +0.000 A 
ATOM     17  C   UNL     1      -0.509  12.041  20.283  0.00  0.00    +0.000 A 
ATOM     18  C   UNL     1      -0.579  11.152  21.366  0.00  0.00    +0.000 A 
ATOM     19  C   UNL     1       0.069   9.908  21.269  0.00  0.00    +0.000 A 
BRANCH  18  20
ATOM     20  C   UNL     1      -1.324  11.515  22.627  0.00  0.00    +0.000 C 
ATOM     21  F   UNL     1      -1.323  10.527  23.565  0.00  0.00    +0.000 F 
ATOM     22  F   UNL     1      -0.806  12.614  23.242  0.00  0.00    +0.000 F 
ATOM     23  F   UNL     1      -2.635  11.801  22.392  0.00  0.00    +0.000 F 
ENDBRANCH  18  20
ENDBRANCH   2  14
TORSDOF 3
ENDMDL
MODEL 9
REMARK VINA RESULT:      -7.8      6.559      9.601
REMARK  Name = 
REMARK  5 active torsions:
REMARK  status: ('A' for Active; 'I' for Inactive)
REMARK    1  A    between atoms: C_1  and  C_2
REMARK    2  A    between atoms: C_5  and  C_6
REMARK    3  A    between atoms: C_7  and  C_8
REMARK    4  A    between atoms: C_12  and  C_13
REMARK    5  A    between atoms: C_19  and  C_20
REMARK                            x       y       z     vdW  Elec       q    Type
REMARK                         _______ _______ _______ _____ _____    ______ ____
ROOT
ATOM      1  C   UNL     1       2.616   7.818  17.848  0.00  0.00    +0.000 C 
ATOM      2  C   UNL     1       1.960   8.812  18.016  0.00  0.00    +0.000 C 
ENDROOT
BRANCH   1   7
ATOM      3  C   UNL     1       1.089   2.288  18.675  0.00  0.00    +0.000 C 
ATOM      4  C   UNL     1       2.054   3.324  18.227  0.00  0.00    +0.000 A 
ATOM      5  C   UNL     1       1.827   4.729  18.156  0.00  0.00    +0.000 A 
ATOM      6  C   UNL     1       3.028   5.318  17.825  0.00  0.00    +0.000 A 
ATOM      7  C   UNL     1       3.477   6.674  17.693  0.00  0.00    +0.000 A 
ATOM      8  N   UNL     1       4.715   6.998  17.448  0.00  0.00    +0.000 NA
ATOM      9  C   UNL     1       5.629   5.957  17.305  0.00  0.00    +0.000 A 
ATOM     10  C   UNL     1       7.067   6.343  17.122  0.00  0.00    +0.000 C 
ATOM     11  C   UNL     1       5.278   4.656  17.373  0.00  0.00    +0.000 A 
ATOM     12  N   UNL     1       3.960   4.332  17.640  0.00  0.00    +0.000 N 
ATOM     13  C   UNL     1       3.365   3.112  17.835  0.00  0.00    +0.000 A 
ENDBRANCH   1   7
BRANCH   2  14
ATOM     14  C   UNL     1       1.232  10.022  18.253  0.00  0.00    +0.000 A 
ATOM     15  C   UNL     1      -0.163  10.006  18.302  0.00  0.00    +0.000 A 
ATOM     16  C   UNL     1      -0.873  11.191  18.499  0.00  0.00    +0.000 A 
ATOM     17  C   UNL     1      -0.190  12.400  18.643  0.00  0.00    +0.000 A 
ATOM     18  C   UNL     1       1.211  12.434  18.591  0.00  0.00    +0.000 A 
ATOM     19  C   UNL     1       1.916  11.232  18.401  0.00  0.00    +0.000 A 
BRANCH  18  20
ATOM     20  C   UNL     1       1.965  13.734  18.725  0.00  0.00    +0.000 C 
ATOM     21  F   UNL     1       1.181  14.838  18.575  0.00  0.00    +0.000 F 
ATOM     22  F   UNL     1       2.568  13.867  19.938  0.00  0.00    +0.000 F 
ATOM     23  F   UNL     1       2.957  13.857  17.799  0.00  0.00    +0.000 F 
ENDBRANCH  18  20
ENDBRANCH   2  14
TORSDOF 3
ENDMDL
