MODEL 1
REMARK VINA RESULT:      -5.8      0.000      0.000
REMARK  Name = 
REMARK  8 active torsions:
REMARK  status: ('A' for Active; 'I' for Inactive)
REMARK    1  A    between atoms: C_2  and  C_3
REMARK    2  A    between atoms: C_3  and  S_4
REMARK    3  A    between atoms: S_4  and  S_5
REMARK    4  A    between atoms: S_5  and  C_6
REMARK    5  A    between atoms: C_7  and  C_8
REMARK    6  A    between atoms: C_8  and  S_9
REMARK    7  A    between atoms: S_9  and  C_11
REMARK    8  A    between atoms: C_11  and  C_12
REMARK                            x       y       z     vdW  Elec       q    Type
REMARK                         _______ _______ _______ _____ _____    ______ ____
ROOT
ATOM      1  S   UNL     1       7.209   5.523  17.269  0.00  0.00    +0.000 S 
ATOM      2  O   UNL     1       7.963   4.172  16.951  0.00  0.00    +0.000 OA
ENDROOT
BRANCH   1   3
ATOM      3  C   UNL     1       6.104   5.199  18.688  0.00  0.00    +0.000 C 
BRANCH   3   5
ATOM      4  C   UNL     1       4.220   3.599  18.033  0.00  0.00    +0.000 C 
ATOM      5  C   UNL     1       4.735   4.839  18.165  0.00  0.00    +0.000 C 
BRANCH   4   6
ATOM      6  S   UNL     1       2.608   3.414  17.408  0.00  0.00    +0.000 S 
BRANCH   6   7
ATOM      7  S   UNL     1       1.864   2.032  18.740  0.00  0.00    +0.000 S 
BRANCH   7   8
ATOM      8  C   UNL     1       0.819   3.072  19.805  0.00  0.00    +0.000 C 
BRANCH   8  10
ATOM      9  C   UNL     1       2.620   2.809  21.530  0.00  0.00    +0.000 C 
ATOM     10  C   UNL     1       1.339   3.054  21.209  0.00  0.00    +0.000 C 
ENDBRANCH   8  10
ENDBRANCH   7   8
ENDBRANCH   6   7
ENDBRANCH   4   6
ENDBRANCH   3   5
ENDBRANCH   1   3
BRANCH   1  11
ATOM     11  C   UNL     1       5.946   5.777  15.959  0.00  0.00    +0.000 C 
BRANCH  11  12
ATOM     12  C   UNL     1       6.383   5.049  14.703  0.00  0.00    +0.000 A 
ATOM     13  C   UNL     1       7.492   5.506  13.979  0.00  0.00    +0.000 A 
ATOM     14  C   UNL     1       7.785   5.000  12.710  0.00  0.00    +0.000 A 
ATOM     15  C   UNL     1       6.985   4.000  12.159  0.00  0.00    +0.000 A 
ATOM     16  C   UNL     1       5.913   3.491  12.891  0.00  0.00    +0.000 A 
ATOM     17  C   UNL     1       5.611   4.005  14.160  0.00  0.00    +0.000 A 
ENDBRANCH  11  12
ENDBRANCH   1  11
TORSDOF 8
ENDMDL
MODEL 2
REMARK VINA RESULT:      -5.7      1.022      1.233
REMARK  Name = 
REMARK  8 active torsions:
REMARK  status: ('A' for Active; 'I' for Inactive)
REMARK    1  A    between atoms: C_2  and  C_3
REMARK    2  A    between atoms: C_3  and  S_4
REMARK    3  A    between atoms: S_4  and  S_5
REMARK    4  A    between atoms: S_5  and  C_6
REMARK    5  A    between atoms: C_7  and  C_8
REMARK    6  A    between atoms: C_8  and  S_9
REMARK    7  A    between atoms: S_9  and  C_11
REMARK    8  A    between atoms: C_11  and  C_12
REMARK                            x       y       z     vdW  Elec       q    Type
REMARK                         _______ _______ _______ _____ _____    ______ ____
ROOT
ATOM      1  S   UNL     1       7.248   5.473  17.255  0.00  0.00    +0.000 S 
ATOM      2  O   UNL     1       8.125   4.199  16.937  0.00  0.00    +0.000 OA
ENDROOT
BRANCH   1   3
ATOM      3  C   UNL     1       6.339   5.126  18.803  0.00  0.00    +0.000 C 
BRANCH   3   5
ATOM      4  C   UNL     1       3.912   5.458  19.533  0.00  0.00    +0.000 C 
ATOM      5  C   UNL     1       4.884   5.470  18.598  0.00  0.00    +0.000 C 
BRANCH   4   6
ATOM      6  S   UNL     1       2.292   5.898  19.076  0.00  0.00    +0.000 S 
BRANCH   6   7
ATOM      7  S   UNL     1       1.741   4.207  18.040  0.00  0.00    +0.000 S 
BRANCH   7   8
ATOM      8  C   UNL     1       2.228   2.891  19.199  0.00  0.00    +0.000 C 
BRANCH   8  10
ATOM      9  C   UNL     1       1.446   2.864  21.581  0.00  0.00    +0.000 C 
ATOM     10  C   UNL     1       1.190   2.741  20.269  0.00  0.00    +0.000 C 
ENDBRANCH   8  10
ENDBRANCH   7   8
ENDBRANCH   6   7
ENDBRANCH   4   6
ENDBRANCH   3   5
ENDBRANCH   1   3
BRANCH   1  11
ATOM     11  C   UNL     1       5.838   5.486  16.078  0.00  0.00    +0.000 C 
BRANCH  11  12
ATOM     12  C   UNL     1       6.282   4.866  14.767  0.00  0.00    +0.000 A 
ATOM     13  C   UNL     1       7.387   5.390  14.084  0.00  0.00    +0.000 A 
ATOM     14  C   UNL     1       7.684   4.990  12.778  0.00  0.00    +0.000 A 
ATOM     15  C   UNL     1       6.893   4.031  12.147  0.00  0.00    +0.000 A 
ATOM     16  C   UNL     1       5.826   3.455  12.835  0.00  0.00    +0.000 A 
ATOM     17  C   UNL     1       5.519   3.862  14.141  0.00  0.00    +0.000 A 
ENDBRANCH  11  12
ENDBRANCH   1  11
TORSDOF 8
ENDMDL
MODEL 3
REMARK VINA RESULT:      -5.6      1.350      1.817
REMARK  Name = 
REMARK  8 active torsions:
REMARK  status: ('A' for Active; 'I' for Inactive)
REMARK    1  A    between atoms: C_2  and  C_3
REMARK    2  A    between atoms: C_3  and  S_4
REMARK    3  A    between atoms: S_4  and  S_5
REMARK    4  A    between atoms: S_5  and  C_6
REMARK    5  A    between atoms: C_7  and  C_8
REMARK    6  A    between atoms: C_8  and  S_9
REMARK    7  A    between atoms: S_9  and  C_11
REMARK    8  A    between atoms: C_11  and  C_12
REMARK                            x       y       z     vdW  Elec       q    Type
REMARK                         _______ _______ _______ _____ _____    ______ ____
ROOT
ATOM      1  S   UNL     1       6.148   6.505  16.618  0.00  0.00    +0.000 S 
ATOM      2  O   UNL     1       7.183   7.610  17.070  0.00  0.00    +0.000 OA
ENDROOT
BRANCH   1   3
ATOM      3  C   UNL     1       5.377   5.840  18.136  0.00  0.00    +0.000 C 
BRANCH   3   5
ATOM      4  C   UNL     1       4.333   3.544  18.553  0.00  0.00    +0.000 C 
ATOM      5  C   UNL     1       4.567   4.620  17.773  0.00  0.00    +0.000 C 
BRANCH   4   6
ATOM      6  S   UNL     1       3.360   2.244  17.932  0.00  0.00    +0.000 S 
BRANCH   6   7
ATOM      7  S   UNL     1       2.068   1.977  19.512  0.00  0.00    +0.000 S 
BRANCH   7   8
ATOM      8  C   UNL     1       0.941   3.391  19.307  0.00  0.00    +0.000 C 
BRANCH   8  10
ATOM      9  C   UNL     1       1.821   5.384  20.550  0.00  0.00    +0.000 C 
ATOM     10  C   UNL     1       1.034   4.296  20.497  0.00  0.00    +0.000 C 
ENDBRANCH   8  10
ENDBRANCH   7   8
ENDBRANCH   6   7
ENDBRANCH   4   6
ENDBRANCH   3   5
ENDBRANCH   1   3
BRANCH   1  11
ATOM     11  C   UNL     1       7.106   5.027  16.097  0.00  0.00    +0.000 C 
BRANCH  11  12
ATOM     12  C   UNL     1       6.860   4.772  14.622  0.00  0.00    +0.000 A 
ATOM     13  C   UNL     1       5.844   3.894  14.223  0.00  0.00    +0.000 A 
ATOM     14  C   UNL     1       5.737   3.470  12.896  0.00  0.00    +0.000 A 
ATOM     15  C   UNL     1       6.631   3.946  11.939  0.00  0.00    +0.000 A 
ATOM     16  C   UNL     1       7.611   4.867  12.308  0.00  0.00    +0.000 A 
ATOM     17  C   UNL     1       7.727   5.287  13.640  0.00  0.00    +0.000 A 
ENDBRANCH  11  12
ENDBRANCH   1  11
TORSDOF 8
ENDMDL
MODEL 4
REMARK VINA RESULT:      -5.6      2.730      6.696
REMARK  Name = 
REMARK  8 active torsions:
REMARK  status: ('A' for Active; 'I' for Inactive)
REMARK    1  A    between atoms: C_2  and  C_3
REMARK    2  A    between atoms: C_3  and  S_4
REMARK    3  A    between atoms: S_4  and  S_5
REMARK    4  A    between atoms: S_5  and  C_6
REMARK    5  A    between atoms: C_7  and  C_8
REMARK    6  A    between atoms: C_8  and  S_9
REMARK    7  A    between atoms: S_9  and  C_11
REMARK    8  A    between atoms: C_11  and  C_12
REMARK                            x       y       z     vdW  Elec       q    Type
REMARK                         _______ _______ _______ _____ _____    ______ ____
ROOT
ATOM      1  S   UNL     1       2.577   6.333  19.949  0.00  0.00    +0.000 S 
ATOM      2  O   UNL     1       1.774   7.656  20.266  0.00  0.00    +0.000 OA
ENDROOT
BRANCH   1   3
ATOM      3  C   UNL     1       2.861   6.297  18.144  0.00  0.00    +0.000 C 
BRANCH   3   5
ATOM      4  C   UNL     1       5.184   6.804  17.206  0.00  0.00    +0.000 C 
ATOM      5  C   UNL     1       4.323   6.022  17.889  0.00  0.00    +0.000 C 
BRANCH   4   6
ATOM      6  S   UNL     1       6.838   6.292  17.037  0.00  0.00    +0.000 S 
BRANCH   6   7
ATOM      7  S   UNL     1       6.555   4.439  16.188  0.00  0.00    +0.000 S 
BRANCH   7   8
ATOM      8  C   UNL     1       6.746   4.812  14.418  0.00  0.00    +0.000 C 
BRANCH   8  10
ATOM      9  C   UNL     1       6.205   3.422  12.402  0.00  0.00    +0.000 C 
ATOM     10  C   UNL     1       5.867   3.911  13.606  0.00  0.00    +0.000 C 
ENDBRANCH   8  10
ENDBRANCH   7   8
ENDBRANCH   6   7
ENDBRANCH   4   6
ENDBRANCH   3   5
ENDBRANCH   1   3
BRANCH   1  11
ATOM     11  C   UNL     1       1.407   4.924  20.095  0.00  0.00    +0.000 C 
BRANCH  11  12
ATOM     12  C   UNL     1       2.071   3.671  19.559  0.00  0.00    +0.000 A 
ATOM     13  C   UNL     1       3.231   3.177  20.170  0.00  0.00    +0.000 A 
ATOM     14  C   UNL     1       3.987   2.164  19.573  0.00  0.00    +0.000 A 
ATOM     15  C   UNL     1       3.572   1.608  18.365  0.00  0.00    +0.000 A 
ATOM     16  C   UNL     1       2.388   2.045  17.774  0.00  0.00    +0.000 A 
ATOM     17  C   UNL     1       1.633   3.068  18.365  0.00  0.00    +0.000 A 
ENDBRANCH  11  12
ENDBRANCH   1  11
TORSDOF 8
ENDMDL
MODEL 5
REMARK VINA RESULT:      -5.5      2.538      7.336
REMARK  Name = 
REMARK  8 active torsions:
REMARK  status: ('A' for Active; 'I' for Inactive)
REMARK    1  A    between atoms: C_2  and  C_3
REMARK    2  A    between atoms: C_3  and  S_4
REMARK    3  A    between atoms: S_4  and  S_5
REMARK    4  A    between atoms: S_5  and  C_6
REMARK    5  A    between atoms: C_7  and  C_8
REMARK    6  A    between atoms: C_8  and  S_9
REMARK    7  A    between atoms: S_9  and  C_11
REMARK    8  A    between atoms: C_11  and  C_12
REMARK                            x       y       z     vdW  Elec       q    Type
REMARK                         _______ _______ _______ _____ _____    ______ ____
ROOT
ATOM      1  S   UNL     1       5.134   5.130  18.170  0.00  0.00    +0.000 S 
ATOM      2  O   UNL     1       5.992   6.297  17.540  0.00  0.00    +0.000 OA
ENDROOT
BRANCH   1   3
ATOM      3  C   UNL     1       4.768   3.948  16.826  0.00  0.00    +0.000 C 
BRANCH   3   5
ATOM      4  C   UNL     1       5.701   4.586  14.534  0.00  0.00    +0.000 C 
ATOM      5  C   UNL     1       5.840   4.066  15.770  0.00  0.00    +0.000 C 
BRANCH   4   6
ATOM      6  S   UNL     1       7.080   4.628  13.474  0.00  0.00    +0.000 S 
BRANCH   6   7
ATOM      7  S   UNL     1       6.436   3.345  11.998  0.00  0.00    +0.000 S 
BRANCH   7   8
ATOM      8  C   UNL     1       4.631   3.546  12.099  0.00  0.00    +0.000 C 
BRANCH   8  10
ATOM      9  C   UNL     1       3.201   3.858  10.062  0.00  0.00    +0.000 C 
ATOM     10  C   UNL     1       3.992   3.086  10.824  0.00  0.00    +0.000 C 
ENDBRANCH   8  10
ENDBRANCH   7   8
ENDBRANCH   6   7
ENDBRANCH   4   6
ENDBRANCH   3   5
ENDBRANCH   1   3
BRANCH   1  11
ATOM     11  C   UNL     1       3.442   5.781  18.465  0.00  0.00    +0.000 C 
BRANCH  11  12
ATOM     12  C   UNL     1       2.621   4.722  19.175  0.00  0.00    +0.000 A 
ATOM     13  C   UNL     1       1.597   4.055  18.492  0.00  0.00    +0.000 A 
ATOM     14  C   UNL     1       0.685   3.242  19.171  0.00  0.00    +0.000 A 
ATOM     15  C   UNL     1       0.807   3.060  20.547  0.00  0.00    +0.000 A 
ATOM     16  C   UNL     1       1.857   3.668  21.233  0.00  0.00    +0.000 A 
ATOM     17  C   UNL     1       2.767   4.492  20.556  0.00  0.00    +0.000 A 
ENDBRANCH  11  12
ENDBRANCH   1  11
TORSDOF 8
ENDMDL
MODEL 6
REMARK VINA RESULT:      -5.5      1.521      1.670
REMARK  Name = 
REMARK  8 active torsions:
REMARK  status: ('A' for Active; 'I' for Inactive)
REMARK    1  A    between atoms: C_2  and  C_3
REMARK    2  A    between atoms: C_3  and  S_4
REMARK    3  A    between atoms: S_4  and  S_5
REMARK    4  A    between atoms: S_5  and  C_6
REMARK    5  A    between atoms: C_7  and  C_8
REMARK    6  A    between atoms: C_8  and  S_9
REMARK    7  A    between atoms: S_9  and  C_11
REMARK    8  A    between atoms: C_11  and  C_12
REMARK                            x       y       z     vdW  Elec       q    Type
REMARK                         _______ _______ _______ _____ _____    ______ ____
ROOT
ATOM      1  S   UNL     1       7.270   5.282  17.436  0.00  0.00    +0.000 S 
ATOM      2  O   UNL     1       8.271   4.073  17.610  0.00  0.00    +0.000 OA
ENDROOT
BRANCH   1   3
ATOM      3  C   UNL     1       6.475   5.558  19.058  0.00  0.00    +0.000 C 
BRANCH   3   5
ATOM      4  C   UNL     1       4.043   4.932  19.534  0.00  0.00    +0.000 C 
ATOM      5  C   UNL     1       4.980   5.628  18.859  0.00  0.00    +0.000 C 
BRANCH   4   6
ATOM      6  S   UNL     1       2.365   5.174  19.143  0.00  0.00    +0.000 S 
BRANCH   6   7
ATOM      7  S   UNL     1       1.549   3.498  20.018  0.00  0.00    +0.000 S 
BRANCH   7   8
ATOM      8  C   UNL     1       1.141   2.486  18.562  0.00  0.00    +0.000 C 
BRANCH   8  10
ATOM      9  C   UNL     1       3.506   1.687  18.318  0.00  0.00    +0.000 C 
ATOM     10  C   UNL     1       2.383   2.191  17.779  0.00  0.00    +0.000 C 
ENDBRANCH   8  10
ENDBRANCH   7   8
ENDBRANCH   6   7
ENDBRANCH   4   6
ENDBRANCH   3   5
ENDBRANCH   1   3
BRANCH   1  11
ATOM     11  C   UNL     1       5.818   4.671  16.491  0.00  0.00    +0.000 C 
BRANCH  11  12
ATOM     12  C   UNL     1       6.237   4.399  15.060  0.00  0.00    +0.000 A 
ATOM     13  C   UNL     1       7.333   5.076  14.510  0.00  0.00    +0.000 A 
ATOM     14  C   UNL     1       7.607   5.015  13.141  0.00  0.00    +0.000 A 
ATOM     15  C   UNL     1       6.801   4.245  12.304  0.00  0.00    +0.000 A 
ATOM     16  C   UNL     1       5.742   3.516  12.844  0.00  0.00    +0.000 A 
ATOM     17  C   UNL     1       5.459   3.584  14.215  0.00  0.00    +0.000 A 
ENDBRANCH  11  12
ENDBRANCH   1  11
TORSDOF 8
ENDMDL
MODEL 7
REMARK VINA RESULT:      -5.4      3.794      6.974
REMARK  Name = 
REMARK  8 active torsions:
REMARK  status: ('A' for Active; 'I' for Inactive)
REMARK    1  A    between atoms: C_2  and  C_3
REMARK    2  A    between atoms: C_3  and  S_4
REMARK    3  A    between atoms: S_4  and  S_5
REMARK    4  A    between atoms: S_5  and  C_6
REMARK    5  A    between atoms: C_7  and  C_8
REMARK    6  A    between atoms: C_8  and  S_9
REMARK    7  A    between atoms: S_9  and  C_11
REMARK    8  A    between atoms: C_11  and  C_12
REMARK                            x       y       z     vdW  Elec       q    Type
REMARK                         _______ _______ _______ _____ _____    ______ ____
ROOT
ATOM      1  S   UNL     1       1.854   4.637  19.667  0.00  0.00    +0.000 S 
ATOM      2  O   UNL     1       2.501   3.385  20.381  0.00  0.00    +0.000 OA
ENDROOT
BRANCH   1   3
ATOM      3  C   UNL     1       1.724   4.233  17.890  0.00  0.00    +0.000 C 
BRANCH   3   5
ATOM      4  C   UNL     1       4.042   3.509  17.094  0.00  0.00    +0.000 C 
ATOM      5  C   UNL     1       3.074   4.435  17.246  0.00  0.00    +0.000 C 
BRANCH   4   6
ATOM      6  S   UNL     1       5.529   3.960  16.312  0.00  0.00    +0.000 S 
BRANCH   6   7
ATOM      7  S   UNL     1       5.626   5.946  16.847  0.00  0.00    +0.000 S 
BRANCH   7   8
ATOM      8  C   UNL     1       6.658   5.873  18.344  0.00  0.00    +0.000 C 
BRANCH   8  10
ATOM      9  C   UNL     1       7.733   8.022  17.625  0.00  0.00    +0.000 C 
ATOM     10  C   UNL     1       7.813   6.819  18.216  0.00  0.00    +0.000 C 
ENDBRANCH   8  10
ENDBRANCH   7   8
ENDBRANCH   6   7
ENDBRANCH   4   6
ENDBRANCH   3   5
ENDBRANCH   1   3
BRANCH   1  11
ATOM     11  C   UNL     1       3.134   5.952  19.581  0.00  0.00    +0.000 C 
BRANCH  11  12
ATOM     12  C   UNL     1       2.451   7.299  19.442  0.00  0.00    +0.000 A 
ATOM     13  C   UNL     1       1.754   7.846  20.527  0.00  0.00    +0.000 A 
ATOM     14  C   UNL     1       0.936   8.967  20.368  0.00  0.00    +0.000 A 
ATOM     15  C   UNL     1       0.829   9.578  19.120  0.00  0.00    +0.000 A 
ATOM     16  C   UNL     1       1.563   9.083  18.044  0.00  0.00    +0.000 A 
ATOM     17  C   UNL     1       2.377   7.952  18.198  0.00  0.00    +0.000 A 
ENDBRANCH  11  12
ENDBRANCH   1  11
TORSDOF 8
ENDMDL
MODEL 8
REMARK VINA RESULT:      -5.4      1.103      1.285
REMARK  Name = 
REMARK  8 active torsions:
REMARK  status: ('A' for Active; 'I' for Inactive)
REMARK    1  A    between atoms: C_2  and  C_3
REMARK    2  A    between atoms: C_3  and  S_4
REMARK    3  A    between atoms: S_4  and  S_5
REMARK    4  A    between atoms: S_5  and  C_6
REMARK    5  A    between atoms: C_7  and  C_8
REMARK    6  A    between atoms: C_8  and  S_9
REMARK    7  A    between atoms: S_9  and  C_11
REMARK    8  A    between atoms: C_11  and  C_12
REMARK                            x       y       z     vdW  Elec       q    Type
REMARK                         _______ _______ _______ _____ _____    ______ ____
ROOT
ATOM      1  S   UNL     1       6.886   5.196  16.876  0.00  0.00    +0.000 S 
ATOM      2  O   UNL     1       7.426   4.403  18.130  0.00  0.00    +0.000 OA
ENDROOT
BRANCH   1   3
ATOM      3  C   UNL     1       5.475   6.207  17.448  0.00  0.00    +0.000 C 
BRANCH   3   5
ATOM      4  C   UNL     1       3.712   4.453  18.039  0.00  0.00    +0.000 C 
ATOM      5  C   UNL     1       4.201   5.424  17.241  0.00  0.00    +0.000 C 
BRANCH   4   6
ATOM      6  S   UNL     1       2.213   3.681  17.611  0.00  0.00    +0.000 S 
BRANCH   6   7
ATOM      7  S   UNL     1       2.185   2.160  18.997  0.00  0.00    +0.000 S 
BRANCH   7   8
ATOM      8  C   UNL     1       2.491   3.067  20.544  0.00  0.00    +0.000 C 
BRANCH   8  10
ATOM      9  C   UNL     1       1.567   5.383  20.809  0.00  0.00    +0.000 C 
ATOM     10  C   UNL     1       1.389   4.052  20.787  0.00  0.00    +0.000 C 
ENDBRANCH   8  10
ENDBRANCH   7   8
ENDBRANCH   6   7
ENDBRANCH   4   6
ENDBRANCH   3   5
ENDBRANCH   1   3
BRANCH   1  11
ATOM     11  C   UNL     1       5.984   4.003  15.808  0.00  0.00    +0.000 C 
BRANCH  11  12
ATOM     12  C   UNL     1       6.530   4.092  14.396  0.00  0.00    +0.000 A 
ATOM     13  C   UNL     1       7.502   5.050  14.080  0.00  0.00    +0.000 A 
ATOM     14  C   UNL     1       7.860   5.305  12.753  0.00  0.00    +0.000 A 
ATOM     15  C   UNL     1       7.270   4.576  11.722  0.00  0.00    +0.000 A 
ATOM     16  C   UNL     1       6.346   3.577  12.023  0.00  0.00    +0.000 A 
ATOM     17  C   UNL     1       5.977   3.327  13.352  0.00  0.00    +0.000 A 
ENDBRANCH  11  12
ENDBRANCH   1  11
TORSDOF 8
ENDMDL
MODEL 9
REMARK VINA RESULT:      -5.4      3.927      7.001
REMARK  Name = 
REMARK  8 active torsions:
REMARK  status: ('A' for Active; 'I' for Inactive)
REMARK    1  A    between atoms: C_2  and  C_3
REMARK    2  A    between atoms: C_3  and  S_4
REMARK    3  A    between atoms: S_4  and  S_5
REMARK    4  A    between atoms: S_5  and  C_6
REMARK    5  A    between atoms: C_7  and  C_8
REMARK    6  A    between atoms: C_8  and  S_9
REMARK    7  A    between atoms: S_9  and  C_11
REMARK    8  A    between atoms: C_11  and  C_12
REMARK                            x       y       z     vdW  Elec       q    Type
REMARK                         _______ _______ _______ _____ _____    ______ ____
ROOT
ATOM      1  S   UNL     1       1.866   4.562  19.509  0.00  0.00    +0.000 S 
ATOM      2  O   UNL     1       0.656   3.694  20.033  0.00  0.00    +0.000 OA
ENDROOT
BRANCH   1   3
ATOM      3  C   UNL     1       3.396   3.641  19.899  0.00  0.00    +0.000 C 
BRANCH   3   5
ATOM      4  C   UNL     1       4.216   4.341  17.581  0.00  0.00    +0.000 C 
ATOM      5  C   UNL     1       4.214   3.504  18.638  0.00  0.00    +0.000 C 
BRANCH   4   6
ATOM      6  S   UNL     1       5.249   3.991  16.226  0.00  0.00    +0.000 S 
BRANCH   6   7
ATOM      7  S   UNL     1       5.708   5.904  15.622  0.00  0.00    +0.000 S 
BRANCH   7   8
ATOM      8  C   UNL     1       5.990   6.735  17.216  0.00  0.00    +0.000 C 
BRANCH   8  10
ATOM      9  C   UNL     1       7.894   8.291  17.707  0.00  0.00    +0.000 C 
ATOM     10  C   UNL     1       7.441   7.073  17.368  0.00  0.00    +0.000 C 
ENDBRANCH   8  10
ENDBRANCH   7   8
ENDBRANCH   6   7
ENDBRANCH   4   6
ENDBRANCH   3   5
ENDBRANCH   1   3
BRANCH   1  11
ATOM     11  C   UNL     1       2.071   5.981  20.658  0.00  0.00    +0.000 C 
BRANCH  11  12
ATOM     12  C   UNL     1       2.024   7.272  19.864  0.00  0.00    +0.000 A 
ATOM     13  C   UNL     1       1.303   8.369  20.353  0.00  0.00    +0.000 A 
ATOM     14  C   UNL     1       1.057   9.487  19.552  0.00  0.00    +0.000 A 
ATOM     15  C   UNL     1       1.559   9.535  18.252  0.00  0.00    +0.000 A 
ATOM     16  C   UNL     1       2.329   8.478  17.771  0.00  0.00    +0.000 A 
ATOM     17  C   UNL     1       2.569   7.351  18.569  0.00  0.00    +0.000 A 
ENDBRANCH  11  12
ENDBRANCH   1  11
TORSDOF 8
ENDMDL
