MODEL 1
REMARK VINA RESULT:      -8.4      0.000      0.000
REMARK  Name = 
REMARK  5 active torsions:
REMARK  status: ('A' for Active; 'I' for Inactive)
REMARK    1  A    between atoms: C_2  and  C_3
REMARK    2  A    between atoms: C_3  and  N_4
REMARK    3  A    between atoms: C_6  and  C_7
REMARK    4  A    between atoms: N_15  and  N_16
REMARK    5  A    between atoms: C_17  and  C_18
REMARK                            x       y       z     vdW  Elec       q    Type
REMARK                         _______ _______ _______ _____ _____    ______ ____
ROOT
ATOM      1  O   UNL     1       7.744   5.832  18.674  0.00  0.00    +0.000 OA
ATOM      2  C   UNL     1       7.172   6.462  17.786  0.00  0.00    +0.000 C 
ATOM      3  N   UNL     1       7.431   7.787  17.438  0.00  0.00    +0.000 N 
ATOM      4  H   UNL     1       6.787   8.289  16.836  0.00  0.00    +0.000 HD
ENDROOT
BRANCH   3   5
ATOM      5  N   UNL     1       8.422   8.487  18.070  0.00  0.00    +0.000 NA
ATOM      6  C   UNL     1       8.366   9.776  17.942  0.00  0.00    +0.000 C 
BRANCH   6   7
ATOM      7  C   UNL     1       9.329  10.679  18.611  0.00  0.00    +0.000 A 
ATOM      8  C   UNL     1      10.277  11.391  17.871  0.00  0.00    +0.000 A 
ATOM      9  C   UNL     1      11.223  12.180  18.529  0.00  0.00    +0.000 A 
ATOM     10  C   UNL     1      11.219  12.261  19.922  0.00  0.00    +0.000 A 
ATOM     11  C   UNL     1      10.260  11.567  20.660  0.00  0.00    +0.000 A 
ATOM     12  C   UNL     1       9.310  10.777  20.007  0.00  0.00    +0.000 A 
ENDBRANCH   6   7
ENDBRANCH   3   5
BRANCH   2  13
ATOM     13  C   UNL     1       6.120   5.810  16.884  0.00  0.00    +0.000 C 
BRANCH  13  14
ATOM     14  N   UNL     1       4.915   5.349  17.570  0.00  0.00    +0.000 N 
ATOM     15  C   UNL     1       4.825   4.035  18.010  0.00  0.00    +0.000 A 
ATOM     16  C   UNL     1       3.679   3.523  18.491  0.00  0.00    +0.000 A 
ATOM     17  C   UNL     1       2.518   4.389  18.586  0.00  0.00    +0.000 A 
ATOM     18  C   UNL     1       2.579   5.670  18.205  0.00  0.00    +0.000 A 
ATOM     19  C   UNL     1       3.842   6.234  17.653  0.00  0.00    +0.000 A 
ATOM     20  O   UNL     1       3.879   7.399  17.269  0.00  0.00    +0.000 OA
BRANCH  16  21
ATOM     21  C   UNL     1       3.554   2.070  18.871  0.00  0.00    +0.000 C 
ATOM     22  F   UNL     1       4.509   1.668  19.749  0.00  0.00    +0.000 F 
ATOM     23  F   UNL     1       2.357   1.818  19.464  0.00  0.00    +0.000 F 
ATOM     24  F   UNL     1       3.640   1.253  17.793  0.00  0.00    +0.000 F 
ENDBRANCH  16  21
ENDBRANCH  13  14
ENDBRANCH   2  13
TORSDOF 5
ENDMDL
MODEL 2
REMARK VINA RESULT:      -8.2      2.014      2.800
REMARK  Name = 
REMARK  5 active torsions:
REMARK  status: ('A' for Active; 'I' for Inactive)
REMARK    1  A    between atoms: C_2  and  C_3
REMARK    2  A    between atoms: C_3  and  N_4
REMARK    3  A    between atoms: C_6  and  C_7
REMARK    4  A    between atoms: N_15  and  N_16
REMARK    5  A    between atoms: C_17  and  C_18
REMARK                            x       y       z     vdW  Elec       q    Type
REMARK                         _______ _______ _______ _____ _____    ______ ____
ROOT
ATOM      1  O   UNL     1       7.359   8.040  16.841  0.00  0.00    +0.000 OA
ATOM      2  C   UNL     1       7.788   7.613  17.912  0.00  0.00    +0.000 C 
ATOM      3  N   UNL     1       8.569   8.333  18.815  0.00  0.00    +0.000 N 
ATOM      4  H   UNL     1       9.043   7.851  19.573  0.00  0.00    +0.000 HD
ENDROOT
BRANCH   3   5
ATOM      5  N   UNL     1       8.883   9.641  18.568  0.00  0.00    +0.000 NA
ATOM      6  C   UNL     1       9.511  10.255  19.522  0.00  0.00    +0.000 C 
BRANCH   6   7
ATOM      7  C   UNL     1       9.972  11.655  19.391  0.00  0.00    +0.000 A 
ATOM      8  C   UNL     1      10.106  12.250  18.133  0.00  0.00    +0.000 A 
ATOM      9  C   UNL     1      10.612  13.548  18.028  0.00  0.00    +0.000 A 
ATOM     10  C   UNL     1      10.979  14.250  19.177  0.00  0.00    +0.000 A 
ATOM     11  C   UNL     1      10.825  13.665  20.434  0.00  0.00    +0.000 A 
ATOM     12  C   UNL     1      10.318  12.367  20.545  0.00  0.00    +0.000 A 
ENDBRANCH   6   7
ENDBRANCH   3   5
BRANCH   2  13
ATOM     13  C   UNL     1       7.436   6.212  18.421  0.00  0.00    +0.000 C 
BRANCH  13  14
ATOM     14  N   UNL     1       6.345   5.549  17.708  0.00  0.00    +0.000 N 
ATOM     15  C   UNL     1       5.031   5.745  18.110  0.00  0.00    +0.000 A 
ATOM     16  C   UNL     1       4.016   5.029  17.597  0.00  0.00    +0.000 A 
ATOM     17  C   UNL     1       4.309   4.052  16.563  0.00  0.00    +0.000 A 
ATOM     18  C   UNL     1       5.559   3.863  16.126  0.00  0.00    +0.000 A 
ATOM     19  C   UNL     1       6.688   4.641  16.708  0.00  0.00    +0.000 A 
ATOM     20  O   UNL     1       7.836   4.433  16.330  0.00  0.00    +0.000 OA
BRANCH  16  21
ATOM     21  C   UNL     1       2.605   5.169  18.107  0.00  0.00    +0.000 C 
ATOM     22  F   UNL     1       1.748   4.276  17.549  0.00  0.00    +0.000 F 
ATOM     23  F   UNL     1       2.547   4.968  19.450  0.00  0.00    +0.000 F 
ATOM     24  F   UNL     1       2.098   6.403  17.871  0.00  0.00    +0.000 F 
ENDBRANCH  16  21
ENDBRANCH  13  14
ENDBRANCH   2  13
TORSDOF 5
ENDMDL
MODEL 3
REMARK VINA RESULT:      -8.2      0.306      1.023
REMARK  Name = 
REMARK  5 active torsions:
REMARK  status: ('A' for Active; 'I' for Inactive)
REMARK    1  A    between atoms: C_2  and  C_3
REMARK    2  A    between atoms: C_3  and  N_4
REMARK    3  A    between atoms: C_6  and  C_7
REMARK    4  A    between atoms: N_15  and  N_16
REMARK    5  A    between atoms: C_17  and  C_18
REMARK                            x       y       z     vdW  Elec       q    Type
REMARK                         _______ _______ _______ _____ _____    ______ ____
ROOT
ATOM      1  O   UNL     1       7.851   5.906  18.796  0.00  0.00    +0.000 OA
ATOM      2  C   UNL     1       7.261   6.495  17.892  0.00  0.00    +0.000 C 
ATOM      3  N   UNL     1       7.447   7.831  17.540  0.00  0.00    +0.000 N 
ATOM      4  H   UNL     1       6.786   8.290  16.920  0.00  0.00    +0.000 HD
ENDROOT
BRANCH   3   5
ATOM      5  N   UNL     1       8.380   8.594  18.187  0.00  0.00    +0.000 NA
ATOM      6  C   UNL     1       8.362   9.859  17.906  0.00  0.00    +0.000 C 
BRANCH   6   7
ATOM      7  C   UNL     1       9.268  10.827  18.564  0.00  0.00    +0.000 A 
ATOM      8  C   UNL     1       9.547  10.733  19.930  0.00  0.00    +0.000 A 
ATOM      9  C   UNL     1      10.347  11.700  20.544  0.00  0.00    +0.000 A 
ATOM     10  C   UNL     1      10.869  12.755  19.794  0.00  0.00    +0.000 A 
ATOM     11  C   UNL     1      10.608  12.837  18.426  0.00  0.00    +0.000 A 
ATOM     12  C   UNL     1       9.810  11.872  17.806  0.00  0.00    +0.000 A 
ENDBRANCH   6   7
ENDBRANCH   3   5
BRANCH   2  13
ATOM     13  C   UNL     1       6.270   5.775  16.973  0.00  0.00    +0.000 C 
BRANCH  13  14
ATOM     14  N   UNL     1       5.017   5.370  17.608  0.00  0.00    +0.000 N 
ATOM     15  C   UNL     1       4.852   4.066  18.052  0.00  0.00    +0.000 A 
ATOM     16  C   UNL     1       3.666   3.605  18.485  0.00  0.00    +0.000 A 
ATOM     17  C   UNL     1       2.539   4.521  18.523  0.00  0.00    +0.000 A 
ATOM     18  C   UNL     1       2.671   5.795  18.137  0.00  0.00    +0.000 A 
ATOM     19  C   UNL     1       3.979   6.301  17.638  0.00  0.00    +0.000 A 
ATOM     20  O   UNL     1       4.082   7.460  17.249  0.00  0.00    +0.000 OA
BRANCH  16  21
ATOM     21  C   UNL     1       3.463   2.163  18.868  0.00  0.00    +0.000 C 
ATOM     22  F   UNL     1       4.378   1.720  19.770  0.00  0.00    +0.000 F 
ATOM     23  F   UNL     1       2.243   1.971  19.435  0.00  0.00    +0.000 F 
ATOM     24  F   UNL     1       3.535   1.336  17.797  0.00  0.00    +0.000 F 
ENDBRANCH  16  21
ENDBRANCH  13  14
ENDBRANCH   2  13
TORSDOF 5
ENDMDL
MODEL 4
REMARK VINA RESULT:      -8.1      1.927      2.790
REMARK  Name = 
REMARK  5 active torsions:
REMARK  status: ('A' for Active; 'I' for Inactive)
REMARK    1  A    between atoms: C_2  and  C_3
REMARK    2  A    between atoms: C_3  and  N_4
REMARK    3  A    between atoms: C_6  and  C_7
REMARK    4  A    between atoms: N_15  and  N_16
REMARK    5  A    between atoms: C_17  and  C_18
REMARK                            x       y       z     vdW  Elec       q    Type
REMARK                         _______ _______ _______ _____ _____    ______ ____
ROOT
ATOM      1  O   UNL     1       7.371   7.918  16.897  0.00  0.00    +0.000 OA
ATOM      2  C   UNL     1       7.829   7.503  17.960  0.00  0.00    +0.000 C 
ATOM      3  N   UNL     1       8.626   8.236  18.839  0.00  0.00    +0.000 N 
ATOM      4  H   UNL     1       9.121   7.764  19.589  0.00  0.00    +0.000 HD
ENDROOT
BRANCH   3   5
ATOM      5  N   UNL     1       8.924   9.545  18.576  0.00  0.00    +0.000 NA
ATOM      6  C   UNL     1       9.409  10.220  19.571  0.00  0.00    +0.000 C 
BRANCH   6   7
ATOM      7  C   UNL     1       9.836  11.630  19.434  0.00  0.00    +0.000 A 
ATOM      8  C   UNL     1      10.707  12.208  20.362  0.00  0.00    +0.000 A 
ATOM      9  C   UNL     1      11.039  13.561  20.255  0.00  0.00    +0.000 A 
ATOM     10  C   UNL     1      10.505  14.332  19.222  0.00  0.00    +0.000 A 
ATOM     11  C   UNL     1       9.652  13.750  18.283  0.00  0.00    +0.000 A 
ATOM     12  C   UNL     1       9.318  12.397  18.385  0.00  0.00    +0.000 A 
ENDBRANCH   6   7
ENDBRANCH   3   5
BRANCH   2  13
ATOM     13  C   UNL     1       7.500   6.104  18.489  0.00  0.00    +0.000 C 
BRANCH  13  14
ATOM     14  N   UNL     1       6.386   5.435  17.819  0.00  0.00    +0.000 N 
ATOM     15  C   UNL     1       5.099   5.553  18.325  0.00  0.00    +0.000 A 
ATOM     16  C   UNL     1       4.076   4.823  17.846  0.00  0.00    +0.000 A 
ATOM     17  C   UNL     1       4.329   3.917  16.741  0.00  0.00    +0.000 A 
ATOM     18  C   UNL     1       5.550   3.805  16.205  0.00  0.00    +0.000 A 
ATOM     19  C   UNL     1       6.688   4.597  16.747  0.00  0.00    +0.000 A 
ATOM     20  O   UNL     1       7.812   4.459  16.276  0.00  0.00    +0.000 OA
BRANCH  16  21
ATOM     21  C   UNL     1       2.703   4.876  18.464  0.00  0.00    +0.000 C 
ATOM     22  F   UNL     1       2.251   3.657  18.856  0.00  0.00    +0.000 F 
ATOM     23  F   UNL     1       2.693   5.663  19.572  0.00  0.00    +0.000 F 
ATOM     24  F   UNL     1       1.780   5.383  17.612  0.00  0.00    +0.000 F 
ENDBRANCH  16  21
ENDBRANCH  13  14
ENDBRANCH   2  13
TORSDOF 5
ENDMDL
MODEL 5
REMARK VINA RESULT:      -8.1      2.875      3.590
REMARK  Name = 
REMARK  5 active torsions:
REMARK  status: ('A' for Active; 'I' for Inactive)
REMARK    1  A    between atoms: C_2  and  C_3
REMARK    2  A    between atoms: C_3  and  N_4
REMARK    3  A    between atoms: C_6  and  C_7
REMARK    4  A    between atoms: N_15  and  N_16
REMARK    5  A    between atoms: C_17  and  C_18
REMARK                            x       y       z     vdW  Elec       q    Type
REMARK                         _______ _______ _______ _____ _____    ______ ____
ROOT
ATOM      1  O   UNL     1       7.728   5.893  18.218  0.00  0.00    +0.000 OA
ATOM      2  C   UNL     1       7.133   6.668  17.471  0.00  0.00    +0.000 C 
ATOM      3  N   UNL     1       7.369   8.039  17.373  0.00  0.00    +0.000 N 
ATOM      4  H   UNL     1       6.708   8.634  16.884  0.00  0.00    +0.000 HD
ENDROOT
BRANCH   3   5
ATOM      5  N   UNL     1       8.361   8.625  18.111  0.00  0.00    +0.000 NA
ATOM      6  C   UNL     1       8.515   9.900  17.930  0.00  0.00    +0.000 C 
BRANCH   6   7
ATOM      7  C   UNL     1       9.505  10.691  18.693  0.00  0.00    +0.000 A 
ATOM      8  C   UNL     1       9.393  10.836  20.079  0.00  0.00    +0.000 A 
ATOM      9  C   UNL     1      10.297  11.647  20.768  0.00  0.00    +0.000 A 
ATOM     10  C   UNL     1      11.313  12.308  20.076  0.00  0.00    +0.000 A 
ATOM     11  C   UNL     1      11.438  12.147  18.696  0.00  0.00    +0.000 A 
ATOM     12  C   UNL     1      10.537  11.335  18.001  0.00  0.00    +0.000 A 
ENDBRANCH   6   7
ENDBRANCH   3   5
BRANCH   2  13
ATOM     13  C   UNL     1       6.075   6.180  16.478  0.00  0.00    +0.000 C 
BRANCH  13  14
ATOM     14  N   UNL     1       4.718   6.087  17.013  0.00  0.00    +0.000 N 
ATOM     15  C   UNL     1       3.981   7.240  17.245  0.00  0.00    +0.000 A 
ATOM     16  C   UNL     1       2.803   7.214  17.891  0.00  0.00    +0.000 A 
ATOM     17  C   UNL     1       2.275   5.931  18.318  0.00  0.00    +0.000 A 
ATOM     18  C   UNL     1       2.940   4.796  18.079  0.00  0.00    +0.000 A 
ATOM     19  C   UNL     1       4.256   4.825  17.382  0.00  0.00    +0.000 A 
ATOM     20  O   UNL     1       4.879   3.783  17.201  0.00  0.00    +0.000 OA
BRANCH  16  21
ATOM     21  C   UNL     1       2.055   8.476  18.234  0.00  0.00    +0.000 C 
ATOM     22  F   UNL     1       0.857   8.570  17.603  0.00  0.00    +0.000 F 
ATOM     23  F   UNL     1       1.793   8.546  19.566  0.00  0.00    +0.000 F 
ATOM     24  F   UNL     1       2.759   9.589  17.912  0.00  0.00    +0.000 F 
ENDBRANCH  16  21
ENDBRANCH  13  14
ENDBRANCH   2  13
TORSDOF 5
ENDMDL
MODEL 6
REMARK VINA RESULT:      -8.1      1.806      2.380
REMARK  Name = 
REMARK  5 active torsions:
REMARK  status: ('A' for Active; 'I' for Inactive)
REMARK    1  A    between atoms: C_2  and  C_3
REMARK    2  A    between atoms: C_3  and  N_4
REMARK    3  A    between atoms: C_6  and  C_7
REMARK    4  A    between atoms: N_15  and  N_16
REMARK    5  A    between atoms: C_17  and  C_18
REMARK                            x       y       z     vdW  Elec       q    Type
REMARK                         _______ _______ _______ _____ _____    ______ ____
ROOT
ATOM      1  O   UNL     1       7.610   5.920  18.032  0.00  0.00    +0.000 OA
ATOM      2  C   UNL     1       6.974   6.732  17.362  0.00  0.00    +0.000 C 
ATOM      3  N   UNL     1       7.223   8.103  17.301  0.00  0.00    +0.000 N 
ATOM      4  H   UNL     1       6.538   8.725  16.885  0.00  0.00    +0.000 HD
ENDROOT
BRANCH   3   5
ATOM      5  N   UNL     1       8.275   8.646  17.986  0.00  0.00    +0.000 NA
ATOM      6  C   UNL     1       8.366   9.938  17.939  0.00  0.00    +0.000 C 
BRANCH   6   7
ATOM      7  C   UNL     1       9.413  10.683  18.674  0.00  0.00    +0.000 A 
ATOM      8  C   UNL     1      10.566  11.129  18.022  0.00  0.00    +0.000 A 
ATOM      9  C   UNL     1      11.573  11.766  18.751  0.00  0.00    +0.000 A 
ATOM     10  C   UNL     1      11.427  11.959  20.125  0.00  0.00    +0.000 A 
ATOM     11  C   UNL     1      10.267  11.533  20.772  0.00  0.00    +0.000 A 
ATOM     12  C   UNL     1       9.255  10.897  20.048  0.00  0.00    +0.000 A 
ENDBRANCH   6   7
ENDBRANCH   3   5
BRANCH   2  13
ATOM     13  C   UNL     1       5.839   6.297  16.429  0.00  0.00    +0.000 C 
BRANCH  13  14
ATOM     14  N   UNL     1       4.893   5.343  17.008  0.00  0.00    +0.000 N 
ATOM     15  C   UNL     1       3.996   5.759  17.982  0.00  0.00    +0.000 A 
ATOM     16  C   UNL     1       3.228   4.888  18.660  0.00  0.00    +0.000 A 
ATOM     17  C   UNL     1       3.320   3.478  18.326  0.00  0.00    +0.000 A 
ATOM     18  C   UNL     1       4.147   3.047  17.368  0.00  0.00    +0.000 A 
ATOM     19  C   UNL     1       5.014   4.007  16.631  0.00  0.00    +0.000 A 
ATOM     20  O   UNL     1       5.799   3.599  15.780  0.00  0.00    +0.000 OA
BRANCH  16  21
ATOM     21  C   UNL     1       2.331   5.328  19.787  0.00  0.00    +0.000 C 
ATOM     22  F   UNL     1       1.057   4.875  19.659  0.00  0.00    +0.000 F 
ATOM     23  F   UNL     1       2.783   4.866  20.983  0.00  0.00    +0.000 F 
ATOM     24  F   UNL     1       2.262   6.677  19.886  0.00  0.00    +0.000 F 
ENDBRANCH  16  21
ENDBRANCH  13  14
ENDBRANCH   2  13
TORSDOF 5
ENDMDL
MODEL 7
REMARK VINA RESULT:      -8.1      1.805      2.510
REMARK  Name = 
REMARK  5 active torsions:
REMARK  status: ('A' for Active; 'I' for Inactive)
REMARK    1  A    between atoms: C_2  and  C_3
REMARK    2  A    between atoms: C_3  and  N_4
REMARK    3  A    between atoms: C_6  and  C_7
REMARK    4  A    between atoms: N_15  and  N_16
REMARK    5  A    between atoms: C_17  and  C_18
REMARK                            x       y       z     vdW  Elec       q    Type
REMARK                         _______ _______ _______ _____ _____    ______ ____
ROOT
ATOM      1  O   UNL     1       7.739   5.992  18.148  0.00  0.00    +0.000 OA
ATOM      2  C   UNL     1       7.126   6.785  17.435  0.00  0.00    +0.000 C 
ATOM      3  N   UNL     1       7.337   8.162  17.390  0.00  0.00    +0.000 N 
ATOM      4  H   UNL     1       6.663   8.764  16.928  0.00  0.00    +0.000 HD
ENDROOT
BRANCH   3   5
ATOM      5  N   UNL     1       8.322   8.736  18.146  0.00  0.00    +0.000 NA
ATOM      6  C   UNL     1       8.555   9.989  17.905  0.00  0.00    +0.000 C 
BRANCH   6   7
ATOM      7  C   UNL     1       9.549  10.769  18.675  0.00  0.00    +0.000 A 
ATOM      8  C   UNL     1       9.444  10.891  20.063  0.00  0.00    +0.000 A 
ATOM      9  C   UNL     1      10.351  11.693  20.761  0.00  0.00    +0.000 A 
ATOM     10  C   UNL     1      11.362  12.366  20.073  0.00  0.00    +0.000 A 
ATOM     11  C   UNL     1      11.480  12.228  18.690  0.00  0.00    +0.000 A 
ATOM     12  C   UNL     1      10.576  11.426  17.987  0.00  0.00    +0.000 A 
ENDBRANCH   6   7
ENDBRANCH   3   5
BRANCH   2  13
ATOM     13  C   UNL     1       6.072   6.316  16.427  0.00  0.00    +0.000 C 
BRANCH  13  14
ATOM     14  N   UNL     1       5.076   5.388  16.959  0.00  0.00    +0.000 N 
ATOM     15  C   UNL     1       4.201   5.801  17.954  0.00  0.00    +0.000 A 
ATOM     16  C   UNL     1       3.387   4.940  18.589  0.00  0.00    +0.000 A 
ATOM     17  C   UNL     1       3.403   3.546  18.186  0.00  0.00    +0.000 A 
ATOM     18  C   UNL     1       4.207   3.119  17.205  0.00  0.00    +0.000 A 
ATOM     19  C   UNL     1       5.124   4.068  16.515  0.00  0.00    +0.000 A 
ATOM     20  O   UNL     1       5.886   3.661  15.644  0.00  0.00    +0.000 OA
BRANCH  16  21
ATOM     21  C   UNL     1       2.515   5.371  19.740  0.00  0.00    +0.000 C 
ATOM     22  F   UNL     1       2.998   4.979  20.947  0.00  0.00    +0.000 F 
ATOM     23  F   UNL     1       2.403   6.725  19.792  0.00  0.00    +0.000 F 
ATOM     24  F   UNL     1       1.257   4.875  19.639  0.00  0.00    +0.000 F 
ENDBRANCH  16  21
ENDBRANCH  13  14
ENDBRANCH   2  13
TORSDOF 5
ENDMDL
MODEL 8
REMARK VINA RESULT:      -8.0      2.925      3.413
REMARK  Name = 
REMARK  5 active torsions:
REMARK  status: ('A' for Active; 'I' for Inactive)
REMARK    1  A    between atoms: C_2  and  C_3
REMARK    2  A    between atoms: C_3  and  N_4
REMARK    3  A    between atoms: C_6  and  C_7
REMARK    4  A    between atoms: N_15  and  N_16
REMARK    5  A    between atoms: C_17  and  C_18
REMARK                            x       y       z     vdW  Elec       q    Type
REMARK                         _______ _______ _______ _____ _____    ______ ____
ROOT
ATOM      1  O   UNL     1       8.085   5.843  18.940  0.00  0.00    +0.000 OA
ATOM      2  C   UNL     1       7.382   6.484  18.161  0.00  0.00    +0.000 C 
ATOM      3  N   UNL     1       7.542   7.834  17.849  0.00  0.00    +0.000 N 
ATOM      4  H   UNL     1       6.807   8.331  17.356  0.00  0.00    +0.000 HD
ENDROOT
BRANCH   3   5
ATOM      5  N   UNL     1       8.574   8.550  18.389  0.00  0.00    +0.000 NA
ATOM      6  C   UNL     1       8.542   9.828  18.173  0.00  0.00    +0.000 C 
BRANCH   6   7
ATOM      7  C   UNL     1       9.553  10.750  18.735  0.00  0.00    +0.000 A 
ATOM      8  C   UNL     1      10.541  11.313  17.923  0.00  0.00    +0.000 A 
ATOM      9  C   UNL     1      11.529  12.123  18.489  0.00  0.00    +0.000 A 
ATOM     10  C   UNL     1      11.527  12.372  19.862  0.00  0.00    +0.000 A 
ATOM     11  C   UNL     1      10.528  11.828  20.670  0.00  0.00    +0.000 A 
ATOM     12  C   UNL     1       9.537  11.018  20.109  0.00  0.00    +0.000 A 
ENDBRANCH   6   7
ENDBRANCH   3   5
BRANCH   2  13
ATOM     13  C   UNL     1       6.253   5.824  17.363  0.00  0.00    +0.000 C 
BRANCH  13  14
ATOM     14  N   UNL     1       4.937   5.867  17.999  0.00  0.00    +0.000 N 
ATOM     15  C   UNL     1       4.088   6.940  17.769  0.00  0.00    +0.000 A 
ATOM     16  C   UNL     1       2.947   7.106  18.460  0.00  0.00    +0.000 A 
ATOM     17  C   UNL     1       2.582   6.104  19.445  0.00  0.00    +0.000 A 
ATOM     18  C   UNL     1       3.358   5.038  19.667  0.00  0.00    +0.000 A 
ATOM     19  C   UNL     1       4.633   4.864  18.918  0.00  0.00    +0.000 A 
ATOM     20  O   UNL     1       5.359   3.904  19.155  0.00  0.00    +0.000 OA
BRANCH  16  21
ATOM     21  C   UNL     1       2.079   8.324  18.283  0.00  0.00    +0.000 C 
ATOM     22  F   UNL     1       1.447   8.696  19.426  0.00  0.00    +0.000 F 
ATOM     23  F   UNL     1       2.813   9.397  17.885  0.00  0.00    +0.000 F 
ATOM     24  F   UNL     1       1.119   8.134  17.345  0.00  0.00    +0.000 F 
ENDBRANCH  16  21
ENDBRANCH  13  14
ENDBRANCH   2  13
TORSDOF 5
ENDMDL
MODEL 9
REMARK VINA RESULT:      -8.0      0.617      1.020
REMARK  Name = 
REMARK  5 active torsions:
REMARK  status: ('A' for Active; 'I' for Inactive)
REMARK    1  A    between atoms: C_2  and  C_3
REMARK    2  A    between atoms: C_3  and  N_4
REMARK    3  A    between atoms: C_6  and  C_7
REMARK    4  A    between atoms: N_15  and  N_16
REMARK    5  A    between atoms: C_17  and  C_18
REMARK                            x       y       z     vdW  Elec       q    Type
REMARK                         _______ _______ _______ _____ _____    ______ ____
ROOT
ATOM      1  O   UNL     1       7.969   5.727  19.069  0.00  0.00    +0.000 OA
ATOM      2  C   UNL     1       7.383   6.197  18.096  0.00  0.00    +0.000 C 
ATOM      3  N   UNL     1       7.477   7.517  17.655  0.00  0.00    +0.000 N 
ATOM      4  H   UNL     1       6.816   7.872  16.971  0.00  0.00    +0.000 HD
ENDROOT
BRANCH   3   5
ATOM      5  N   UNL     1       8.305   8.401  18.290  0.00  0.00    +0.000 NA
ATOM      6  C   UNL     1       8.242   9.627  17.872  0.00  0.00    +0.000 C 
BRANCH   6   7
ATOM      7  C   UNL     1       9.031  10.714  18.492  0.00  0.00    +0.000 A 
ATOM      8  C   UNL     1       9.148  11.960  17.869  0.00  0.00    +0.000 A 
ATOM      9  C   UNL     1       9.957  12.947  18.435  0.00  0.00    +0.000 A 
ATOM     10  C   UNL     1      10.643  12.692  19.624  0.00  0.00    +0.000 A 
ATOM     11  C   UNL     1      10.509  11.457  20.258  0.00  0.00    +0.000 A 
ATOM     12  C   UNL     1       9.700  10.465  19.696  0.00  0.00    +0.000 A 
ENDBRANCH   6   7
ENDBRANCH   3   5
BRANCH   2  13
ATOM     13  C   UNL     1       6.509   5.331  17.184  0.00  0.00    +0.000 C 
BRANCH  13  14
ATOM     14  N   UNL     1       5.171   5.044  17.699  0.00  0.00    +0.000 N 
ATOM     15  C   UNL     1       4.916   3.838  18.337  0.00  0.00    +0.000 A 
ATOM     16  C   UNL     1       3.670   3.460  18.673  0.00  0.00    +0.000 A 
ATOM     17  C   UNL     1       2.572   4.367  18.393  0.00  0.00    +0.000 A 
ATOM     18  C   UNL     1       2.786   5.553  17.813  0.00  0.00    +0.000 A 
ATOM     19  C   UNL     1       4.162   5.964  17.420  0.00  0.00    +0.000 A 
ATOM     20  O   UNL     1       4.345   7.036  16.853  0.00  0.00    +0.000 OA
BRANCH  16  21
ATOM     21  C   UNL     1       3.383   2.107  19.271  0.00  0.00    +0.000 C 
ATOM     22  F   UNL     1       2.103   1.982  19.707  0.00  0.00    +0.000 F 
ATOM     23  F   UNL     1       3.576   1.117  18.360  0.00  0.00    +0.000 F 
ATOM     24  F   UNL     1       4.188   1.835  20.326  0.00  0.00    +0.000 F 
ENDBRANCH  16  21
ENDBRANCH  13  14
ENDBRANCH   2  13
TORSDOF 5
ENDMDL
