MODEL 1
REMARK VINA RESULT:      -7.3      0.000      0.000
REMARK  Name = 
REMARK  8 active torsions:
REMARK  status: ('A' for Active; 'I' for Inactive)
REMARK    1  A    between atoms: C_1  and  C_2
REMARK    2  A    between atoms: C_2  and  N_3
REMARK    3  A    between atoms: C_5  and  C_6
REMARK    4  A    between atoms: C_6  and  N_7
REMARK    5  A    between atoms: C_8  and  C_10
REMARK    6  A    between atoms: C_10  and  N_11
REMARK    7  A    between atoms: N_11  and  C_12
REMARK    8  A    between atoms: N_11  and  C_13
REMARK                            x       y       z     vdW  Elec       q    Type
REMARK                         _______ _______ _______ _____ _____    ______ ____
ROOT
ATOM      1  N   UNL     1       1.646   7.748  21.075  0.00  0.00    +0.000 N 
ATOM      2  C   UNL     1       0.622   8.605  21.391  0.00  0.00    +0.000 C 
ATOM      3  O   UNL     1      -0.529   8.221  21.595  0.00  0.00    +0.000 OA
ATOM      4  H   UNL     1       2.526   8.112  20.720  0.00  0.00    +0.000 HD
ENDROOT
BRANCH   1   5
ATOM      5  C   UNL     1       1.376   6.344  20.894  0.00  0.00    +0.000 C 
BRANCH   5   8
ATOM      6  N   UNL     1       3.914   5.440  18.554  0.00  0.00    +0.000 N 
ATOM      7  N   UNL     1       3.402   6.327  19.438  0.00  0.00    +0.000 NA
ATOM      8  C   UNL     1       2.300   5.713  19.904  0.00  0.00    +0.000 A 
ATOM      9  C   UNL     1       2.123   4.429  19.320  0.00  0.00    +0.000 A 
ATOM     10  C   UNL     1       1.163   3.405  19.434  0.00  0.00    +0.000 A 
ATOM     11  C   UNL     1       1.316   2.247  18.665  0.00  0.00    +0.000 A 
ATOM     12  C   UNL     1       2.401   2.104  17.803  0.00  0.00    +0.000 A 
ATOM     13  C   UNL     1       3.366   3.113  17.677  0.00  0.00    +0.000 A 
ATOM     14  C   UNL     1       3.195   4.272  18.449  0.00  0.00    +0.000 A 
BRANCH   6  16
ATOM     15  C   UNL     1       4.750   6.714  16.608  0.00  0.00    +0.000 C 
ATOM     16  C   UNL     1       5.085   5.816  17.784  0.00  0.00    +0.000 C 
ENDBRANCH   6  16
ENDBRANCH   5   8
ENDBRANCH   1   5
BRANCH   2  17
ATOM     17  C   UNL     1       1.019  10.078  21.516  0.00  0.00    +0.000 C 
BRANCH  17  18
ATOM     18  N   UNL     1       0.084  10.975  20.795  0.00  0.00    +0.000 NA
ATOM     19  C   UNL     1      -0.058  12.247  21.499  0.00  0.00    +0.000 C 
BRANCH  18  20
ATOM     20  C   UNL     1       0.426  11.062  19.349  0.00  0.00    +0.000 C 
ATOM     21  C   UNL     1       0.809  12.436  18.759  0.00  0.00    +0.000 C 
ATOM     22  C   UNL     1      -0.385  13.286  18.335  0.00  0.00    +0.000 C 
ATOM     23  N   UNL     1      -1.255  12.578  17.398  0.00  0.00    +0.000 NA
ATOM     24  C   UNL     1      -1.731  11.310  17.947  0.00  0.00    +0.000 C 
ATOM     25  C   UNL     1      -0.598  10.392  18.408  0.00  0.00    +0.000 C 
ATOM     26  H   UNL     1      -0.744  12.399  16.531  0.00  0.00    +0.000 HD
ENDBRANCH  18  20
ENDBRANCH  17  18
ENDBRANCH   2  17
TORSDOF 6
ENDMDL
MODEL 2
REMARK VINA RESULT:      -7.1      1.903      7.663
REMARK  Name = 
REMARK  8 active torsions:
REMARK  status: ('A' for Active; 'I' for Inactive)
REMARK    1  A    between atoms: C_1  and  C_2
REMARK    2  A    between atoms: C_2  and  N_3
REMARK    3  A    between atoms: C_5  and  C_6
REMARK    4  A    between atoms: C_6  and  N_7
REMARK    5  A    between atoms: C_8  and  C_10
REMARK    6  A    between atoms: C_10  and  N_11
REMARK    7  A    between atoms: N_11  and  C_12
REMARK    8  A    between atoms: N_11  and  C_13
REMARK                            x       y       z     vdW  Elec       q    Type
REMARK                         _______ _______ _______ _____ _____    ______ ____
ROOT
ATOM      1  N   UNL     1       2.090   6.748  19.720  0.00  0.00    +0.000 N 
ATOM      2  C   UNL     1       2.107   5.376  19.708  0.00  0.00    +0.000 C 
ATOM      3  O   UNL     1       1.697   4.697  20.649  0.00  0.00    +0.000 OA
ATOM      4  H   UNL     1       2.613   7.271  19.023  0.00  0.00    +0.000 HD
ENDROOT
BRANCH   1   5
ATOM      5  C   UNL     1       1.650   7.449  20.899  0.00  0.00    +0.000 C 
BRANCH   5   8
ATOM      6  N   UNL     1       0.670  10.608  19.557  0.00  0.00    +0.000 N 
ATOM      7  N   UNL     1       1.322   9.430  19.418  0.00  0.00    +0.000 NA
ATOM      8  C   UNL     1       1.086   8.795  20.579  0.00  0.00    +0.000 A 
ATOM      9  C   UNL     1       0.272   9.570  21.450  0.00  0.00    +0.000 A 
ATOM     10  C   UNL     1      -0.247   9.398  22.747  0.00  0.00    +0.000 A 
ATOM     11  C   UNL     1      -1.024  10.419  23.306  0.00  0.00    +0.000 A 
ATOM     12  C   UNL     1      -1.284  11.586  22.591  0.00  0.00    +0.000 A 
ATOM     13  C   UNL     1      -0.775  11.774  21.298  0.00  0.00    +0.000 A 
ATOM     14  C   UNL     1       0.008  10.745  20.754  0.00  0.00    +0.000 A 
BRANCH   6  16
ATOM     15  C   UNL     1       2.090  12.367  18.558  0.00  0.00    +0.000 C 
ATOM     16  C   UNL     1       0.783  11.598  18.503  0.00  0.00    +0.000 C 
ENDBRANCH   6  16
ENDBRANCH   5   8
ENDBRANCH   1   5
BRANCH   2  17
ATOM     17  C   UNL     1       2.633   4.740  18.419  0.00  0.00    +0.000 C 
BRANCH  17  18
ATOM     18  N   UNL     1       4.115   4.746  18.353  0.00  0.00    +0.000 NA
ATOM     19  C   UNL     1       4.663   3.535  18.958  0.00  0.00    +0.000 C 
BRANCH  18  20
ATOM     20  C   UNL     1       4.594   5.068  16.982  0.00  0.00    +0.000 C 
ATOM     21  C   UNL     1       5.729   4.216  16.374  0.00  0.00    +0.000 C 
ATOM     22  C   UNL     1       7.129   4.674  16.767  0.00  0.00    +0.000 C 
ATOM     23  N   UNL     1       7.354   6.083  16.450  0.00  0.00    +0.000 NA
ATOM     24  C   UNL     1       6.362   6.950  17.085  0.00  0.00    +0.000 C 
ATOM     25  C   UNL     1       4.922   6.558  16.752  0.00  0.00    +0.000 C 
ATOM     26  H   UNL     1       7.314   6.212  15.437  0.00  0.00    +0.000 HD
ENDBRANCH  18  20
ENDBRANCH  17  18
ENDBRANCH   2  17
TORSDOF 6
ENDMDL
MODEL 3
REMARK VINA RESULT:      -7.1      2.079      8.133
REMARK  Name = 
REMARK  8 active torsions:
REMARK  status: ('A' for Active; 'I' for Inactive)
REMARK    1  A    between atoms: C_1  and  C_2
REMARK    2  A    between atoms: C_2  and  N_3
REMARK    3  A    between atoms: C_5  and  C_6
REMARK    4  A    between atoms: C_6  and  N_7
REMARK    5  A    between atoms: C_8  and  C_10
REMARK    6  A    between atoms: C_10  and  N_11
REMARK    7  A    between atoms: N_11  and  C_12
REMARK    8  A    between atoms: N_11  and  C_13
REMARK                            x       y       z     vdW  Elec       q    Type
REMARK                         _______ _______ _______ _____ _____    ______ ____
ROOT
ATOM      1  N   UNL     1       1.885   8.144  19.042  0.00  0.00    +0.000 N 
ATOM      2  C   UNL     1       2.779   7.176  18.657  0.00  0.00    +0.000 C 
ATOM      3  O   UNL     1       3.248   7.116  17.521  0.00  0.00    +0.000 OA
ATOM      4  H   UNL     1       1.372   8.047  19.913  0.00  0.00    +0.000 HD
ENDROOT
BRANCH   1   5
ATOM      5  C   UNL     1       1.400   9.096  18.075  0.00  0.00    +0.000 C 
BRANCH   5   8
ATOM      6  N   UNL     1      -0.308  11.574  19.993  0.00  0.00    +0.000 N 
ATOM      7  N   UNL     1       0.807  10.846  19.751  0.00  0.00    +0.000 NA
ATOM      8  C   UNL     1       0.475  10.098  18.684  0.00  0.00    +0.000 A 
ATOM      9  C   UNL     1      -0.851  10.363  18.244  0.00  0.00    +0.000 A 
ATOM     10  C   UNL     1      -1.680   9.868  17.219  0.00  0.00    +0.000 A 
ATOM     11  C   UNL     1      -2.978  10.375  17.095  0.00  0.00    +0.000 A 
ATOM     12  C   UNL     1      -3.444  11.355  17.968  0.00  0.00    +0.000 A 
ATOM     13  C   UNL     1      -2.633  11.859  18.995  0.00  0.00    +0.000 A 
ATOM     14  C   UNL     1      -1.336  11.336  19.111  0.00  0.00    +0.000 A 
BRANCH   6  16
ATOM     15  C   UNL     1      -0.791  11.736  22.412  0.00  0.00    +0.000 C 
ATOM     16  C   UNL     1      -0.336  12.447  21.151  0.00  0.00    +0.000 C 
ENDBRANCH   6  16
ENDBRANCH   5   8
ENDBRANCH   1   5
BRANCH   2  17
ATOM     17  C   UNL     1       3.192   6.195  19.756  0.00  0.00    +0.000 C 
BRANCH  17  18
ATOM     18  N   UNL     1       3.818   4.967  19.208  0.00  0.00    +0.000 NA
ATOM     19  C   UNL     1       5.273   5.089  19.201  0.00  0.00    +0.000 C 
BRANCH  18  20
ATOM     20  C   UNL     1       3.267   3.744  19.852  0.00  0.00    +0.000 C 
ATOM     21  C   UNL     1       3.908   2.379  19.523  0.00  0.00    +0.000 C 
ATOM     22  C   UNL     1       3.367   1.727  18.256  0.00  0.00    +0.000 C 
ATOM     23  N   UNL     1       1.913   1.587  18.290  0.00  0.00    +0.000 NA
ATOM     24  C   UNL     1       1.245   2.871  18.499  0.00  0.00    +0.000 C 
ATOM     25  C   UNL     1       1.733   3.603  19.750  0.00  0.00    +0.000 C 
ATOM     26  H   UNL     1       1.653   0.945  19.042  0.00  0.00    +0.000 HD
ENDBRANCH  18  20
ENDBRANCH  17  18
ENDBRANCH   2  17
TORSDOF 6
ENDMDL
MODEL 4
REMARK VINA RESULT:      -7.0      2.002      7.876
REMARK  Name = 
REMARK  8 active torsions:
REMARK  status: ('A' for Active; 'I' for Inactive)
REMARK    1  A    between atoms: C_1  and  C_2
REMARK    2  A    between atoms: C_2  and  N_3
REMARK    3  A    between atoms: C_5  and  C_6
REMARK    4  A    between atoms: C_6  and  N_7
REMARK    5  A    between atoms: C_8  and  C_10
REMARK    6  A    between atoms: C_10  and  N_11
REMARK    7  A    between atoms: N_11  and  C_12
REMARK    8  A    between atoms: N_11  and  C_13
REMARK                            x       y       z     vdW  Elec       q    Type
REMARK                         _______ _______ _______ _____ _____    ______ ____
ROOT
ATOM      1  N   UNL     1       2.278   7.134  19.895  0.00  0.00    +0.000 N 
ATOM      2  C   UNL     1       2.257   5.784  19.648  0.00  0.00    +0.000 C 
ATOM      3  O   UNL     1       1.538   5.004  20.272  0.00  0.00    +0.000 OA
ATOM      4  H   UNL     1       3.018   7.712  19.507  0.00  0.00    +0.000 HD
ENDROOT
BRANCH   1   5
ATOM      5  C   UNL     1       1.493   7.677  20.973  0.00  0.00    +0.000 C 
BRANCH   5   8
ATOM      6  N   UNL     1       0.664  10.898  19.678  0.00  0.00    +0.000 N 
ATOM      7  N   UNL     1       1.292   9.708  19.537  0.00  0.00    +0.000 NA
ATOM      8  C   UNL     1       0.980   9.046  20.666  0.00  0.00    +0.000 A 
ATOM      9  C   UNL     1       0.142   9.818  21.517  0.00  0.00    +0.000 A 
ATOM     10  C   UNL     1      -0.447   9.623  22.780  0.00  0.00    +0.000 A 
ATOM     11  C   UNL     1      -1.225  10.648  23.329  0.00  0.00    +0.000 A 
ATOM     12  C   UNL     1      -1.419  11.842  22.637  0.00  0.00    +0.000 A 
ATOM     13  C   UNL     1      -0.839  12.053  21.378  0.00  0.00    +0.000 A 
ATOM     14  C   UNL     1      -0.055  11.019  20.844  0.00  0.00    +0.000 A 
BRANCH   6  16
ATOM     15  C   UNL     1       2.310  12.071  18.255  0.00  0.00    +0.000 C 
ATOM     16  C   UNL     1       0.856  11.915  18.662  0.00  0.00    +0.000 C 
ENDBRANCH   6  16
ENDBRANCH   5   8
ENDBRANCH   1   5
BRANCH   2  17
ATOM     17  C   UNL     1       3.161   5.314  18.507  0.00  0.00    +0.000 C 
BRANCH  17  18
ATOM     18  N   UNL     1       4.575   5.171  18.932  0.00  0.00    +0.000 NA
ATOM     19  C   UNL     1       4.911   3.766  19.144  0.00  0.00    +0.000 C 
BRANCH  18  20
ATOM     20  C   UNL     1       5.488   5.936  18.040  0.00  0.00    +0.000 C 
ATOM     21  C   UNL     1       5.328   5.787  16.512  0.00  0.00    +0.000 C 
ATOM     22  C   UNL     1       6.063   4.588  15.923  0.00  0.00    +0.000 C 
ATOM     23  N   UNL     1       7.484   4.594  16.266  0.00  0.00    +0.000 NA
ATOM     24  C   UNL     1       7.695   4.632  17.712  0.00  0.00    +0.000 C 
ATOM     25  C   UNL     1       6.985   5.803  18.392  0.00  0.00    +0.000 C 
ATOM     26  H   UNL     1       7.931   5.407  15.838  0.00  0.00    +0.000 HD
ENDBRANCH  18  20
ENDBRANCH  17  18
ENDBRANCH   2  17
TORSDOF 6
ENDMDL
MODEL 5
REMARK VINA RESULT:      -6.9      0.880      1.091
REMARK  Name = 
REMARK  8 active torsions:
REMARK  status: ('A' for Active; 'I' for Inactive)
REMARK    1  A    between atoms: C_1  and  C_2
REMARK    2  A    between atoms: C_2  and  N_3
REMARK    3  A    between atoms: C_5  and  C_6
REMARK    4  A    between atoms: C_6  and  N_7
REMARK    5  A    between atoms: C_8  and  C_10
REMARK    6  A    between atoms: C_10  and  N_11
REMARK    7  A    between atoms: N_11  and  C_12
REMARK    8  A    between atoms: N_11  and  C_13
REMARK                            x       y       z     vdW  Elec       q    Type
REMARK                         _______ _______ _______ _____ _____    ______ ____
ROOT
ATOM      1  N   UNL     1       1.517   7.709  21.072  0.00  0.00    +0.000 N 
ATOM      2  C   UNL     1       0.436   8.488  21.402  0.00  0.00    +0.000 C 
ATOM      3  O   UNL     1      -0.674   8.017  21.647  0.00  0.00    +0.000 OA
ATOM      4  H   UNL     1       2.354   8.135  20.684  0.00  0.00    +0.000 HD
ENDROOT
BRANCH   1   5
ATOM      5  C   UNL     1       1.356   6.285  20.924  0.00  0.00    +0.000 C 
BRANCH   5   8
ATOM      6  N   UNL     1       3.936   5.518  18.581  0.00  0.00    +0.000 N 
ATOM      7  N   UNL     1       3.395   6.363  19.489  0.00  0.00    +0.000 NA
ATOM      8  C   UNL     1       2.303   5.709  19.923  0.00  0.00    +0.000 A 
ATOM      9  C   UNL     1       2.161   4.442  19.295  0.00  0.00    +0.000 A 
ATOM     10  C   UNL     1       1.224   3.393  19.364  0.00  0.00    +0.000 A 
ATOM     11  C   UNL     1       1.411   2.265  18.558  0.00  0.00    +0.000 A 
ATOM     12  C   UNL     1       2.507   2.176  17.703  0.00  0.00    +0.000 A 
ATOM     13  C   UNL     1       3.450   3.211  17.621  0.00  0.00    +0.000 A 
ATOM     14  C   UNL     1       3.245   4.339  18.429  0.00  0.00    +0.000 A 
BRANCH   6  16
ATOM     15  C   UNL     1       4.750   6.603  16.514  0.00  0.00    +0.000 C 
ATOM     16  C   UNL     1       5.104   5.947  17.836  0.00  0.00    +0.000 C 
ENDBRANCH   6  16
ENDBRANCH   5   8
ENDBRANCH   1   5
BRANCH   2  17
ATOM     17  C   UNL     1       0.716   9.990  21.489  0.00  0.00    +0.000 C 
BRANCH  17  18
ATOM     18  N   UNL     1      -0.529  10.795  21.481  0.00  0.00    +0.000 NA
ATOM     19  C   UNL     1      -0.852  11.260  22.827  0.00  0.00    +0.000 C 
BRANCH  18  20
ATOM     20  C   UNL     1      -0.493  11.837  20.419  0.00  0.00    +0.000 C 
ATOM     21  C   UNL     1      -1.669  12.831  20.316  0.00  0.00    +0.000 C 
ATOM     22  C   UNL     1      -2.852  12.314  19.504  0.00  0.00    +0.000 C 
ATOM     23  N   UNL     1      -2.453  11.889  18.164  0.00  0.00    +0.000 NA
ATOM     24  C   UNL     1      -1.406  10.870  18.204  0.00  0.00    +0.000 C 
ATOM     25  C   UNL     1      -0.178  11.300  19.006  0.00  0.00    +0.000 C 
ATOM     26  H   UNL     1      -2.114  12.700  17.640  0.00  0.00    +0.000 HD
ENDBRANCH  18  20
ENDBRANCH  17  18
ENDBRANCH   2  17
TORSDOF 6
ENDMDL
MODEL 6
REMARK VINA RESULT:      -6.9      2.100      8.157
REMARK  Name = 
REMARK  8 active torsions:
REMARK  status: ('A' for Active; 'I' for Inactive)
REMARK    1  A    between atoms: C_1  and  C_2
REMARK    2  A    between atoms: C_2  and  N_3
REMARK    3  A    between atoms: C_5  and  C_6
REMARK    4  A    between atoms: C_6  and  N_7
REMARK    5  A    between atoms: C_8  and  C_10
REMARK    6  A    between atoms: C_10  and  N_11
REMARK    7  A    between atoms: N_11  and  C_12
REMARK    8  A    between atoms: N_11  and  C_13
REMARK                            x       y       z     vdW  Elec       q    Type
REMARK                         _______ _______ _______ _____ _____    ______ ____
ROOT
ATOM      1  N   UNL     1       1.459   8.733  19.021  0.00  0.00    +0.000 N 
ATOM      2  C   UNL     1       2.404   7.822  18.622  0.00  0.00    +0.000 C 
ATOM      3  O   UNL     1       3.099   7.980  17.618  0.00  0.00    +0.000 OA
ATOM      4  H   UNL     1       0.774   8.481  19.728  0.00  0.00    +0.000 HD
ENDROOT
BRANCH   1   5
ATOM      5  C   UNL     1       1.194   9.893  18.209  0.00  0.00    +0.000 C 
BRANCH   5   8
ATOM      6  N   UNL     1      -1.291  11.883  19.824  0.00  0.00    +0.000 N 
ATOM      7  N   UNL     1      -0.012  11.449  19.742  0.00  0.00    +0.000 NA
ATOM      8  C   UNL     1      -0.016  10.641  18.668  0.00  0.00    +0.000 A 
ATOM      9  C   UNL     1      -1.300  10.572  18.063  0.00  0.00    +0.000 A 
ATOM     10  C   UNL     1      -1.849   9.888  16.961  0.00  0.00    +0.000 A 
ATOM     11  C   UNL     1      -3.205  10.062  16.665  0.00  0.00    +0.000 A 
ATOM     12  C   UNL     1      -4.001  10.900  17.442  0.00  0.00    +0.000 A 
ATOM     13  C   UNL     1      -3.471  11.589  18.542  0.00  0.00    +0.000 A 
ATOM     14  C   UNL     1      -2.112  11.399  18.832  0.00  0.00    +0.000 A 
BRANCH   6  16
ATOM     15  C   UNL     1      -0.513  13.530  21.494  0.00  0.00    +0.000 C 
ATOM     16  C   UNL     1      -1.674  12.725  20.940  0.00  0.00    +0.000 C 
ENDBRANCH   6  16
ENDBRANCH   5   8
ENDBRANCH   1   5
BRANCH   2  17
ATOM     17  C   UNL     1       2.570   6.609  19.539  0.00  0.00    +0.000 C 
BRANCH  17  18
ATOM     18  N   UNL     1       3.035   5.408  18.804  0.00  0.00    +0.000 NA
ATOM     19  C   UNL     1       4.156   4.779  19.498  0.00  0.00    +0.000 C 
BRANCH  18  20
ATOM     20  C   UNL     1       1.899   4.514  18.453  0.00  0.00    +0.000 C 
ATOM     21  C   UNL     1       1.141   3.797  19.591  0.00  0.00    +0.000 C 
ATOM     22  C   UNL     1       1.784   2.489  20.039  0.00  0.00    +0.000 C 
ATOM     23  N   UNL     1       1.980   1.564  18.925  0.00  0.00    +0.000 NA
ATOM     24  C   UNL     1       2.780   2.159  17.856  0.00  0.00    +0.000 C 
ATOM     25  C   UNL     1       2.212   3.484  17.347  0.00  0.00    +0.000 C 
ATOM     26  H   UNL     1       1.069   1.289  18.550  0.00  0.00    +0.000 HD
ENDBRANCH  18  20
ENDBRANCH  17  18
ENDBRANCH   2  17
TORSDOF 6
ENDMDL
MODEL 7
REMARK VINA RESULT:      -6.9      2.213      8.212
REMARK  Name = 
REMARK  8 active torsions:
REMARK  status: ('A' for Active; 'I' for Inactive)
REMARK    1  A    between atoms: C_1  and  C_2
REMARK    2  A    between atoms: C_2  and  N_3
REMARK    3  A    between atoms: C_5  and  C_6
REMARK    4  A    between atoms: C_6  and  N_7
REMARK    5  A    between atoms: C_8  and  C_10
REMARK    6  A    between atoms: C_10  and  N_11
REMARK    7  A    between atoms: N_11  and  C_12
REMARK    8  A    between atoms: N_11  and  C_13
REMARK                            x       y       z     vdW  Elec       q    Type
REMARK                         _______ _______ _______ _____ _____    ______ ____
ROOT
ATOM      1  N   UNL     1       1.548   8.627  19.298  0.00  0.00    +0.000 N 
ATOM      2  C   UNL     1       2.377   7.776  18.610  0.00  0.00    +0.000 C 
ATOM      3  O   UNL     1       3.006   8.122  17.611  0.00  0.00    +0.000 OA
ATOM      4  H   UNL     1       0.898   8.260  19.987  0.00  0.00    +0.000 HD
ENDROOT
BRANCH   1   5
ATOM      5  C   UNL     1       1.326   9.963  18.807  0.00  0.00    +0.000 C 
BRANCH   5   8
ATOM      6  N   UNL     1      -1.993  10.168  17.513  0.00  0.00    +0.000 N 
ATOM      7  N   UNL     1      -0.748   9.642  17.459  0.00  0.00    +0.000 NA
ATOM      8  C   UNL     1      -0.112  10.219  18.493  0.00  0.00    +0.000 A 
ATOM      9  C   UNL     1      -0.962  11.105  19.209  0.00  0.00    +0.000 A 
ATOM     10  C   UNL     1      -0.810  11.950  20.325  0.00  0.00    +0.000 A 
ATOM     11  C   UNL     1      -1.904  12.711  20.751  0.00  0.00    +0.000 A 
ATOM     12  C   UNL     1      -3.125  12.634  20.087  0.00  0.00    +0.000 A 
ATOM     13  C   UNL     1      -3.295  11.798  18.974  0.00  0.00    +0.000 A 
ATOM     14  C   UNL     1      -2.187  11.047  18.553  0.00  0.00    +0.000 A 
BRANCH   6  16
ATOM     15  C   UNL     1      -2.896  10.778  15.294  0.00  0.00    +0.000 C 
ATOM     16  C   UNL     1      -2.945   9.824  16.474  0.00  0.00    +0.000 C 
ENDBRANCH   6  16
ENDBRANCH   5   8
ENDBRANCH   1   5
BRANCH   2  17
ATOM     17  C   UNL     1       2.504   6.370  19.200  0.00  0.00    +0.000 C 
BRANCH  17  18
ATOM     18  N   UNL     1       3.558   5.571  18.529  0.00  0.00    +0.000 NA
ATOM     19  C   UNL     1       4.491   5.021  19.508  0.00  0.00    +0.000 C 
BRANCH  18  20
ATOM     20  C   UNL     1       2.970   4.600  17.567  0.00  0.00    +0.000 C 
ATOM     21  C   UNL     1       1.491   4.191  17.736  0.00  0.00    +0.000 C 
ATOM     22  C   UNL     1       1.269   3.055  18.728  0.00  0.00    +0.000 C 
ATOM     23  N   UNL     1       2.066   1.875  18.398  0.00  0.00    +0.000 NA
ATOM     24  C   UNL     1       3.493   2.185  18.323  0.00  0.00    +0.000 C 
ATOM     25  C   UNL     1       3.811   3.323  17.353  0.00  0.00    +0.000 C 
ATOM     26  H   UNL     1       1.756   1.499  17.499  0.00  0.00    +0.000 HD
ENDBRANCH  18  20
ENDBRANCH  17  18
ENDBRANCH   2  17
TORSDOF 6
ENDMDL
MODEL 8
REMARK VINA RESULT:      -6.8      2.087      7.915
REMARK  Name = 
REMARK  8 active torsions:
REMARK  status: ('A' for Active; 'I' for Inactive)
REMARK    1  A    between atoms: C_1  and  C_2
REMARK    2  A    between atoms: C_2  and  N_3
REMARK    3  A    between atoms: C_5  and  C_6
REMARK    4  A    between atoms: C_6  and  N_7
REMARK    5  A    between atoms: C_8  and  C_10
REMARK    6  A    between atoms: C_10  and  N_11
REMARK    7  A    between atoms: N_11  and  C_12
REMARK    8  A    between atoms: N_11  and  C_13
REMARK                            x       y       z     vdW  Elec       q    Type
REMARK                         _______ _______ _______ _____ _____    ______ ____
ROOT
ATOM      1  N   UNL     1       2.129   8.092  18.810  0.00  0.00    +0.000 N 
ATOM      2  C   UNL     1       3.126   7.278  18.332  0.00  0.00    +0.000 C 
ATOM      3  O   UNL     1       3.535   7.338  17.172  0.00  0.00    +0.000 OA
ATOM      4  H   UNL     1       1.683   7.883  19.698  0.00  0.00    +0.000 HD
ENDROOT
BRANCH   1   5
ATOM      5  C   UNL     1       1.465   9.010  17.921  0.00  0.00    +0.000 C 
BRANCH   5   8
ATOM      6  N   UNL     1      -0.133  11.315  20.128  0.00  0.00    +0.000 N 
ATOM      7  N   UNL     1       0.955  10.587  19.786  0.00  0.00    +0.000 NA
ATOM      8  C   UNL     1       0.581   9.967  18.653  0.00  0.00    +0.000 A 
ATOM      9  C   UNL     1      -0.744  10.314  18.272  0.00  0.00    +0.000 A 
ATOM     10  C   UNL     1      -1.606   9.955  17.218  0.00  0.00    +0.000 A 
ATOM     11  C   UNL     1      -2.890  10.509  17.177  0.00  0.00    +0.000 A 
ATOM     12  C   UNL     1      -3.311  11.402  18.159  0.00  0.00    +0.000 A 
ATOM     13  C   UNL     1      -2.466  11.770  19.216  0.00  0.00    +0.000 A 
ATOM     14  C   UNL     1      -1.184  11.202  19.248  0.00  0.00    +0.000 A 
BRANCH   6  16
ATOM     15  C   UNL     1      -0.740  11.295  22.524  0.00  0.00    +0.000 C 
ATOM     16  C   UNL     1      -0.113  12.060  21.372  0.00  0.00    +0.000 C 
ENDBRANCH   6  16
ENDBRANCH   5   8
ENDBRANCH   1   5
BRANCH   2  17
ATOM     17  C   UNL     1       3.730   6.314  19.355  0.00  0.00    +0.000 C 
BRANCH  17  18
ATOM     18  N   UNL     1       2.862   5.137  19.599  0.00  0.00    +0.000 NA
ATOM     19  C   UNL     1       1.806   5.463  20.555  0.00  0.00    +0.000 C 
BRANCH  18  20
ATOM     20  C   UNL     1       2.419   4.516  18.321  0.00  0.00    +0.000 C 
ATOM     21  C   UNL     1       1.112   3.695  18.310  0.00  0.00    +0.000 C 
ATOM     22  C   UNL     1       1.288   2.241  18.736  0.00  0.00    +0.000 C 
ATOM     23  N   UNL     1       2.303   1.555  17.939  0.00  0.00    +0.000 NA
ATOM     24  C   UNL     1       3.594   2.238  17.996  0.00  0.00    +0.000 C 
ATOM     25  C   UNL     1       3.513   3.710  17.589  0.00  0.00    +0.000 C 
ATOM     26  H   UNL     1       1.991   1.503  16.967  0.00  0.00    +0.000 HD
ENDBRANCH  18  20
ENDBRANCH  17  18
ENDBRANCH   2  17
TORSDOF 6
ENDMDL
MODEL 9
REMARK VINA RESULT:      -6.8      2.225      8.022
REMARK  Name = 
REMARK  8 active torsions:
REMARK  status: ('A' for Active; 'I' for Inactive)
REMARK    1  A    between atoms: C_1  and  C_2
REMARK    2  A    between atoms: C_2  and  N_3
REMARK    3  A    between atoms: C_5  and  C_6
REMARK    4  A    between atoms: C_6  and  N_7
REMARK    5  A    between atoms: C_8  and  C_10
REMARK    6  A    between atoms: C_10  and  N_11
REMARK    7  A    between atoms: N_11  and  C_12
REMARK    8  A    between atoms: N_11  and  C_13
REMARK                            x       y       z     vdW  Elec       q    Type
REMARK                         _______ _______ _______ _____ _____    ______ ____
ROOT
ATOM      1  N   UNL     1       1.817   7.907  18.527  0.00  0.00    +0.000 N 
ATOM      2  C   UNL     1       2.900   7.130  18.203  0.00  0.00    +0.000 C 
ATOM      3  O   UNL     1       3.777   7.502  17.423  0.00  0.00    +0.000 OA
ATOM      4  H   UNL     1       1.021   7.498  19.008  0.00  0.00    +0.000 HD
ENDROOT
BRANCH   1   5
ATOM      5  C   UNL     1       1.632   9.184  17.885  0.00  0.00    +0.000 C 
BRANCH   5   8
ATOM      6  N   UNL     1      -0.089  11.338  20.150  0.00  0.00    +0.000 N 
ATOM      7  N   UNL     1       1.040  10.688  19.785  0.00  0.00    +0.000 NA
ATOM      8  C   UNL     1       0.696  10.068  18.643  0.00  0.00    +0.000 A 
ATOM      9  C   UNL     1      -0.652  10.337  18.279  0.00  0.00    +0.000 A 
ATOM     10  C   UNL     1      -1.499   9.945  17.225  0.00  0.00    +0.000 A 
ATOM     11  C   UNL     1      -2.816  10.416  17.205  0.00  0.00    +0.000 A 
ATOM     12  C   UNL     1      -3.284  11.261  18.208  0.00  0.00    +0.000 A 
ATOM     13  C   UNL     1      -2.455  11.662  19.265  0.00  0.00    +0.000 A 
ATOM     14  C   UNL     1      -1.139  11.176  19.276  0.00  0.00    +0.000 A 
BRANCH   6  16
ATOM     15  C   UNL     1      -0.743  11.261  22.533  0.00  0.00    +0.000 C 
ATOM     16  C   UNL     1      -0.106  12.058  21.409  0.00  0.00    +0.000 C 
ENDBRANCH   6  16
ENDBRANCH   5   8
ENDBRANCH   1   5
BRANCH   2  17
ATOM     17  C   UNL     1       2.970   5.778  18.914  0.00  0.00    +0.000 C 
BRANCH  17  18
ATOM     18  N   UNL     1       2.455   4.672  18.072  0.00  0.00    +0.000 NA
ATOM     19  C   UNL     1       3.516   4.124  17.231  0.00  0.00    +0.000 C 
BRANCH  18  20
ATOM     20  C   UNL     1       1.687   3.687  18.882  0.00  0.00    +0.000 C 
ATOM     21  C   UNL     1       1.093   4.141  20.233  0.00  0.00    +0.000 C 
ATOM     22  C   UNL     1       2.070   4.058  21.401  0.00  0.00    +0.000 C 
ATOM     23  N   UNL     1       2.640   2.720  21.544  0.00  0.00    +0.000 NA
ATOM     24  C   UNL     1       3.306   2.277  20.320  0.00  0.00    +0.000 C 
ATOM     25  C   UNL     1       2.400   2.334  19.089  0.00  0.00    +0.000 C 
ATOM     26  H   UNL     1       1.896   2.059  21.781  0.00  0.00    +0.000 HD
ENDBRANCH  18  20
ENDBRANCH  17  18
ENDBRANCH   2  17
TORSDOF 6
ENDMDL
