MODEL 1
REMARK VINA RESULT:      -8.2      0.000      0.000
REMARK  Name = 
REMARK  3 active torsions:
REMARK  status: ('A' for Active; 'I' for Inactive)
REMARK    1  A    between atoms: C_1  and  C_2
REMARK    2  A    between atoms: C_5  and  C_6
REMARK    3  A    between atoms: C_13  and  C_15
REMARK                            x       y       z     vdW  Elec       q    Type
REMARK                         _______ _______ _______ _____ _____    ______ ____
ROOT
ATOM      1  C   UNL     1       6.778   4.387  16.866  0.00  0.00    +0.000 C 
ATOM      2  C   UNL     1       6.817   4.294  15.341  0.00  0.00    +0.000 C 
ATOM      3  C   UNL     1       5.428   4.736  14.927  0.00  0.00    +0.000 C 
ATOM      4  F   UNL     1       5.093   4.217  13.728  0.00  0.00    +0.000 F 
ATOM      5  F   UNL     1       5.359   6.079  14.827  0.00  0.00    +0.000 F 
ATOM      6  C   UNL     1       4.525   4.221  16.031  0.00  0.00    +0.000 C 
ATOM      7  N   UNL     1       5.376   4.158  17.217  0.00  0.00    +0.000 N 
ATOM      8  C   UNL     1       4.974   3.948  18.528  0.00  0.00    +0.000 C 
ATOM      9  O   UNL     1       5.792   4.014  19.444  0.00  0.00    +0.000 OA
ENDROOT
BRANCH   1  14
ATOM     10  C   UNL     1       7.930   9.132  17.762  0.00  0.00    +0.000 C 
ATOM     11  C   UNL     1       7.824   7.663  17.836  0.00  0.00    +0.000 A 
ATOM     12  N   UNL     1       8.285   6.964  18.883  0.00  0.00    +0.000 NA
ATOM     13  O   UNL     1       7.925   5.656  18.576  0.00  0.00    +0.000 OA
ATOM     14  C   UNL     1       7.288   5.698  17.366  0.00  0.00    +0.000 A 
ATOM     15  N   UNL     1       7.227   6.910  16.854  0.00  0.00    +0.000 NA
ENDBRANCH   1  14
BRANCH   8  16
ATOM     16  C   UNL     1       3.584   3.637  18.769  0.00  0.00    +0.000 A 
ATOM     17  C   UNL     1       2.511   4.435  19.113  0.00  0.00    +0.000 A 
ATOM     18  N   UNL     1       1.384   3.670  19.287  0.00  0.00    +0.000 NA
ATOM     19  C   UNL     1       1.807   2.446  19.070  0.00  0.00    +0.000 A 
ATOM     20  O   UNL     1       3.125   2.341  18.752  0.00  0.00    +0.000 OA
ENDBRANCH   8  16
TORSDOF 2
ENDMDL
MODEL 2
REMARK VINA RESULT:      -8.1      2.640      3.902
REMARK  Name = 
REMARK  3 active torsions:
REMARK  status: ('A' for Active; 'I' for Inactive)
REMARK    1  A    between atoms: C_1  and  C_2
REMARK    2  A    between atoms: C_5  and  C_6
REMARK    3  A    between atoms: C_13  and  C_15
REMARK                            x       y       z     vdW  Elec       q    Type
REMARK                         _______ _______ _______ _____ _____    ______ ____
ROOT
ATOM      1  C   UNL     1       6.126   6.338  17.301  0.00  0.00    +0.000 C 
ATOM      2  C   UNL     1       7.453   6.728  17.951  0.00  0.00    +0.000 C 
ATOM      3  C   UNL     1       7.724   5.586  18.909  0.00  0.00    +0.000 C 
ATOM      4  F   UNL     1       8.512   5.985  19.928  0.00  0.00    +0.000 F 
ATOM      5  F   UNL     1       8.350   4.569  18.280  0.00  0.00    +0.000 F 
ATOM      6  C   UNL     1       6.349   5.168  19.394  0.00  0.00    +0.000 C 
ATOM      7  N   UNL     1       5.439   5.534  18.312  0.00  0.00    +0.000 N 
ATOM      8  C   UNL     1       4.106   5.175  18.179  0.00  0.00    +0.000 C 
ATOM      9  O   UNL     1       3.482   5.477  17.163  0.00  0.00    +0.000 OA
ENDROOT
BRANCH   1  14
ATOM     10  C   UNL     1       5.792   3.653  13.140  0.00  0.00    +0.000 C 
ATOM     11  C   UNL     1       6.283   4.505  14.238  0.00  0.00    +0.000 A 
ATOM     12  N   UNL     1       7.475   5.115  14.192  0.00  0.00    +0.000 NA
ATOM     13  O   UNL     1       7.501   5.852  15.372  0.00  0.00    +0.000 OA
ATOM     14  C   UNL     1       6.321   5.604  16.016  0.00  0.00    +0.000 A 
ATOM     15  N   UNL     1       5.547   4.755  15.371  0.00  0.00    +0.000 NA
ENDBRANCH   1  14
BRANCH   8  16
ATOM     16  C   UNL     1       3.485   4.460  19.270  0.00  0.00    +0.000 A 
ATOM     17  C   UNL     1       3.331   3.110  19.512  0.00  0.00    +0.000 A 
ATOM     18  N   UNL     1       2.617   2.911  20.669  0.00  0.00    +0.000 NA
ATOM     19  C   UNL     1       2.343   4.129  21.073  0.00  0.00    +0.000 A 
ATOM     20  O   UNL     1       2.832   5.122  20.283  0.00  0.00    +0.000 OA
ENDBRANCH   8  16
TORSDOF 2
ENDMDL
MODEL 3
REMARK VINA RESULT:      -7.9      1.173      1.401
REMARK  Name = 
REMARK  3 active torsions:
REMARK  status: ('A' for Active; 'I' for Inactive)
REMARK    1  A    between atoms: C_1  and  C_2
REMARK    2  A    between atoms: C_5  and  C_6
REMARK    3  A    between atoms: C_13  and  C_15
REMARK                            x       y       z     vdW  Elec       q    Type
REMARK                         _______ _______ _______ _____ _____    ______ ____
ROOT
ATOM      1  C   UNL     1       7.026   4.888  17.203  0.00  0.00    +0.000 C 
ATOM      2  C   UNL     1       7.064   4.562  15.710  0.00  0.00    +0.000 C 
ATOM      3  C   UNL     1       5.616   4.699  15.285  0.00  0.00    +0.000 C 
ATOM      4  F   UNL     1       5.360   3.950  14.193  0.00  0.00    +0.000 F 
ATOM      5  F   UNL     1       5.322   5.981  14.981  0.00  0.00    +0.000 F 
ATOM      6  C   UNL     1       4.824   4.225  16.488  0.00  0.00    +0.000 C 
ATOM      7  N   UNL     1       5.686   4.490  17.637  0.00  0.00    +0.000 N 
ATOM      8  C   UNL     1       5.340   4.428  18.978  0.00  0.00    +0.000 C 
ATOM      9  O   UNL     1       6.145   4.771  19.842  0.00  0.00    +0.000 OA
ENDROOT
BRANCH   1  14
ATOM     10  C   UNL     1       8.746   9.304  18.679  0.00  0.00    +0.000 C 
ATOM     11  C   UNL     1       7.968   8.234  18.027  0.00  0.00    +0.000 A 
ATOM     12  N   UNL     1       7.062   8.488  17.073  0.00  0.00    +0.000 NA
ATOM     13  O   UNL     1       6.630   7.219  16.699  0.00  0.00    +0.000 OA
ATOM     14  C   UNL     1       7.315   6.327  17.476  0.00  0.00    +0.000 A 
ATOM     15  N   UNL     1       8.131   6.905  18.333  0.00  0.00    +0.000 NA
ENDBRANCH   1  14
BRANCH   8  16
ATOM     16  C   UNL     1       4.024   3.935  19.315  0.00  0.00    +0.000 A 
ATOM     17  C   UNL     1       3.561   2.664  19.586  0.00  0.00    +0.000 A 
ATOM     18  N   UNL     1       2.205   2.685  19.805  0.00  0.00    +0.000 NA
ATOM     19  C   UNL     1       1.888   3.948  19.637  0.00  0.00    +0.000 A 
ATOM     20  O   UNL     1       2.930   4.769  19.339  0.00  0.00    +0.000 OA
ENDBRANCH   8  16
TORSDOF 2
ENDMDL
MODEL 4
REMARK VINA RESULT:      -7.8      2.546      5.864
REMARK  Name = 
REMARK  3 active torsions:
REMARK  status: ('A' for Active; 'I' for Inactive)
REMARK    1  A    between atoms: C_1  and  C_2
REMARK    2  A    between atoms: C_5  and  C_6
REMARK    3  A    between atoms: C_13  and  C_15
REMARK                            x       y       z     vdW  Elec       q    Type
REMARK                         _______ _______ _______ _____ _____    ______ ____
ROOT
ATOM      1  C   UNL     1       3.395   5.941  19.658  0.00  0.00    +0.000 C 
ATOM      2  C   UNL     1       2.652   7.272  19.548  0.00  0.00    +0.000 C 
ATOM      3  C   UNL     1       2.569   7.505  18.053  0.00  0.00    +0.000 C 
ATOM      4  F   UNL     1       2.457   8.819  17.774  0.00  0.00    +0.000 F 
ATOM      5  F   UNL     1       1.494   6.881  17.528  0.00  0.00    +0.000 F 
ATOM      6  C   UNL     1       3.860   6.924  17.510  0.00  0.00    +0.000 C 
ATOM      7  N   UNL     1       4.240   5.886  18.465  0.00  0.00    +0.000 N 
ATOM      8  C   UNL     1       5.230   4.927  18.313  0.00  0.00    +0.000 C 
ATOM      9  O   UNL     1       5.379   4.051  19.163  0.00  0.00    +0.000 OA
ENDROOT
BRANCH   1  14
ATOM     10  C   UNL     1       0.485   1.976  18.990  0.00  0.00    +0.000 C 
ATOM     11  C   UNL     1       1.221   3.107  19.584  0.00  0.00    +0.000 A 
ATOM     12  N   UNL     1       1.284   3.302  20.909  0.00  0.00    +0.000 NA
ATOM     13  O   UNL     1       2.115   4.412  21.027  0.00  0.00    +0.000 OA
ATOM     14  C   UNL     1       2.462   4.779  19.756  0.00  0.00    +0.000 A 
ATOM     15  N   UNL     1       1.911   4.023  18.829  0.00  0.00    +0.000 NA
ENDBRANCH   1  14
BRANCH   8  16
ATOM     16  C   UNL     1       6.076   5.007  17.145  0.00  0.00    +0.000 A 
ATOM     17  C   UNL     1       7.095   5.875  16.807  0.00  0.00    +0.000 A 
ATOM     18  N   UNL     1       7.576   5.583  15.554  0.00  0.00    +0.000 NA
ATOM     19  C   UNL     1       6.827   4.578  15.166  0.00  0.00    +0.000 A 
ATOM     20  O   UNL     1       5.897   4.169  16.069  0.00  0.00    +0.000 OA
ENDBRANCH   8  16
TORSDOF 2
ENDMDL
MODEL 5
REMARK VINA RESULT:      -7.7      2.528      3.827
REMARK  Name = 
REMARK  3 active torsions:
REMARK  status: ('A' for Active; 'I' for Inactive)
REMARK    1  A    between atoms: C_1  and  C_2
REMARK    2  A    between atoms: C_5  and  C_6
REMARK    3  A    between atoms: C_13  and  C_15
REMARK                            x       y       z     vdW  Elec       q    Type
REMARK                         _______ _______ _______ _____ _____    ______ ____
ROOT
ATOM      1  C   UNL     1       5.788   6.134  17.153  0.00  0.00    +0.000 C 
ATOM      2  C   UNL     1       7.131   6.625  17.695  0.00  0.00    +0.000 C 
ATOM      3  C   UNL     1       7.473   5.605  18.761  0.00  0.00    +0.000 C 
ATOM      4  F   UNL     1       8.292   6.135  19.692  0.00  0.00    +0.000 F 
ATOM      5  F   UNL     1       8.099   4.537  18.224  0.00  0.00    +0.000 F 
ATOM      6  C   UNL     1       6.132   5.214  19.352  0.00  0.00    +0.000 C 
ATOM      7  N   UNL     1       5.167   5.435  18.278  0.00  0.00    +0.000 N 
ATOM      8  C   UNL     1       3.840   5.033  18.247  0.00  0.00    +0.000 C 
ATOM      9  O   UNL     1       3.165   5.204  17.233  0.00  0.00    +0.000 OA
ENDROOT
BRANCH   1  14
ATOM     10  C   UNL     1       6.621   4.096  12.705  0.00  0.00    +0.000 C 
ATOM     11  C   UNL     1       6.279   4.305  14.124  0.00  0.00    +0.000 A 
ATOM     12  N   UNL     1       6.060   3.285  14.965  0.00  0.00    +0.000 NA
ATOM     13  O   UNL     1       5.845   3.919  16.185  0.00  0.00    +0.000 OA
ATOM     14  C   UNL     1       5.948   5.263  15.952  0.00  0.00    +0.000 A 
ATOM     15  N   UNL     1       6.185   5.554  14.689  0.00  0.00    +0.000 NA
ENDBRANCH   1  14
BRANCH   8  16
ATOM     16  C   UNL     1       3.286   4.433  19.439  0.00  0.00    +0.000 A 
ATOM     17  C   UNL     1       2.561   4.968  20.485  0.00  0.00    +0.000 A 
ATOM     18  N   UNL     1       2.297   4.003  21.426  0.00  0.00    +0.000 NA
ATOM     19  C   UNL     1       2.883   2.934  20.941  0.00  0.00    +0.000 A 
ATOM     20  O   UNL     1       3.503   3.109  19.743  0.00  0.00    +0.000 OA
ENDBRANCH   8  16
TORSDOF 2
ENDMDL
MODEL 6
REMARK VINA RESULT:      -7.4      2.555      5.743
REMARK  Name = 
REMARK  3 active torsions:
REMARK  status: ('A' for Active; 'I' for Inactive)
REMARK    1  A    between atoms: C_1  and  C_2
REMARK    2  A    between atoms: C_5  and  C_6
REMARK    3  A    between atoms: C_13  and  C_15
REMARK                            x       y       z     vdW  Elec       q    Type
REMARK                         _______ _______ _______ _____ _____    ______ ____
ROOT
ATOM      1  C   UNL     1       3.703   5.823  19.685  0.00  0.00    +0.000 C 
ATOM      2  C   UNL     1       2.748   6.994  19.454  0.00  0.00    +0.000 C 
ATOM      3  C   UNL     1       2.455   6.919  17.969  0.00  0.00    +0.000 C 
ATOM      4  F   UNL     1       2.101   8.127  17.485  0.00  0.00    +0.000 F 
ATOM      5  F   UNL     1       1.441   6.064  17.721  0.00  0.00    +0.000 F 
ATOM      6  C   UNL     1       3.751   6.427  17.354  0.00  0.00    +0.000 C 
ATOM      7  N   UNL     1       4.401   5.655  18.410  0.00  0.00    +0.000 N 
ATOM      8  C   UNL     1       5.508   4.829  18.286  0.00  0.00    +0.000 C 
ATOM      9  O   UNL     1       5.894   4.162  19.244  0.00  0.00    +0.000 OA
ENDROOT
BRANCH   1  14
ATOM     10  C   UNL     1       1.213   2.205  21.998  0.00  0.00    +0.000 C 
ATOM     11  C   UNL     1       1.936   3.007  20.994  0.00  0.00    +0.000 A 
ATOM     12  N   UNL     1       2.010   2.642  19.707  0.00  0.00    +0.000 NA
ATOM     13  O   UNL     1       2.706   3.694  19.118  0.00  0.00    +0.000 OA
ATOM     14  C   UNL     1       2.987   4.585  20.116  0.00  0.00    +0.000 A 
ATOM     15  N   UNL     1       2.560   4.193  21.298  0.00  0.00    +0.000 NA
ENDBRANCH   1  14
BRANCH   8  16
ATOM     16  C   UNL     1       6.189   4.797  17.012  0.00  0.00    +0.000 A 
ATOM     17  C   UNL     1       7.164   5.611  16.471  0.00  0.00    +0.000 A 
ATOM     18  N   UNL     1       7.466   5.211  15.193  0.00  0.00    +0.000 NA
ATOM     19  C   UNL     1       6.658   4.197  14.990  0.00  0.00    +0.000 A 
ATOM     20  O   UNL     1       5.854   3.883  16.041  0.00  0.00    +0.000 OA
ENDBRANCH   8  16
TORSDOF 2
ENDMDL
MODEL 7
REMARK VINA RESULT:      -7.0      3.244      4.436
REMARK  Name = 
REMARK  3 active torsions:
REMARK  status: ('A' for Active; 'I' for Inactive)
REMARK    1  A    between atoms: C_1  and  C_2
REMARK    2  A    between atoms: C_5  and  C_6
REMARK    3  A    between atoms: C_13  and  C_15
REMARK                            x       y       z     vdW  Elec       q    Type
REMARK                         _______ _______ _______ _____ _____    ______ ____
ROOT
ATOM      1  C   UNL     1       4.682   4.230  18.076  0.00  0.00    +0.000 C 
ATOM      2  C   UNL     1       3.889   2.946  18.322  0.00  0.00    +0.000 C 
ATOM      3  C   UNL     1       2.518   3.269  17.763  0.00  0.00    +0.000 C 
ATOM      4  F   UNL     1       1.566   2.517  18.354  0.00  0.00    +0.000 F 
ATOM      5  F   UNL     1       2.468   3.026  16.438  0.00  0.00    +0.000 F 
ATOM      6  C   UNL     1       2.329   4.744  18.058  0.00  0.00    +0.000 C 
ATOM      7  N   UNL     1       3.681   5.296  18.105  0.00  0.00    +0.000 N 
ATOM      8  C   UNL     1       4.040   6.635  18.137  0.00  0.00    +0.000 C 
ATOM      9  O   UNL     1       5.224   6.961  18.078  0.00  0.00    +0.000 OA
ENDROOT
BRANCH   1  14
ATOM     10  C   UNL     1       6.284   4.052  13.382  0.00  0.00    +0.000 C 
ATOM     11  C   UNL     1       6.219   4.130  14.853  0.00  0.00    +0.000 A 
ATOM     12  N   UNL     1       7.296   4.399  15.603  0.00  0.00    +0.000 NA
ATOM     13  O   UNL     1       6.781   4.444  16.895  0.00  0.00    +0.000 OA
ATOM     14  C   UNL     1       5.442   4.188  16.792  0.00  0.00    +0.000 A 
ATOM     15  N   UNL     1       5.051   3.957  15.555  0.00  0.00    +0.000 NA
ENDBRANCH   1  14
BRANCH   8  16
ATOM     16  C   UNL     1       2.986   7.616  18.258  0.00  0.00    +0.000 A 
ATOM     17  C   UNL     1       2.142   7.934  19.304  0.00  0.00    +0.000 A 
ATOM     18  N   UNL     1       1.258   8.913  18.924  0.00  0.00    +0.000 NA
ATOM     19  C   UNL     1       1.571   9.138  17.669  0.00  0.00    +0.000 A 
ATOM     20  O   UNL     1       2.604   8.396  17.191  0.00  0.00    +0.000 OA
ENDBRANCH   8  16
TORSDOF 2
ENDMDL
MODEL 8
REMARK VINA RESULT:      -6.8      3.561      5.660
REMARK  Name = 
REMARK  3 active torsions:
REMARK  status: ('A' for Active; 'I' for Inactive)
REMARK    1  A    between atoms: C_1  and  C_2
REMARK    2  A    between atoms: C_5  and  C_6
REMARK    3  A    between atoms: C_13  and  C_15
REMARK                            x       y       z     vdW  Elec       q    Type
REMARK                         _______ _______ _______ _____ _____    ______ ____
ROOT
ATOM      1  C   UNL     1       2.437   5.470  18.200  0.00  0.00    +0.000 C 
ATOM      2  C   UNL     1       1.652   4.217  18.585  0.00  0.00    +0.000 C 
ATOM      3  C   UNL     1       2.564   3.521  19.575  0.00  0.00    +0.000 C 
ATOM      4  F   UNL     1       2.323   2.195  19.606  0.00  0.00    +0.000 F 
ATOM      5  F   UNL     1       2.378   4.001  20.822  0.00  0.00    +0.000 F 
ATOM      6  C   UNL     1       3.963   3.825  19.074  0.00  0.00    +0.000 C 
ATOM      7  N   UNL     1       3.842   5.092  18.358  0.00  0.00    +0.000 N 
ATOM      8  C   UNL     1       4.872   5.895  17.893  0.00  0.00    +0.000 C 
ATOM      9  O   UNL     1       4.625   6.989  17.388  0.00  0.00    +0.000 OA
ENDROOT
BRANCH   1  14
ATOM     10  C   UNL     1       1.386   8.774  21.752  0.00  0.00    +0.000 C 
ATOM     11  C   UNL     1       1.609   8.119  20.450  0.00  0.00    +0.000 A 
ATOM     12  N   UNL     1       1.619   8.803  19.298  0.00  0.00    +0.000 NA
ATOM     13  O   UNL     1       1.926   7.829  18.353  0.00  0.00    +0.000 OA
ATOM     14  C   UNL     1       2.063   6.651  19.034  0.00  0.00    +0.000 A 
ATOM     15  N   UNL     1       1.847   6.771  20.327  0.00  0.00    +0.000 NA
ENDBRANCH   1  14
BRANCH   8  16
ATOM     16  C   UNL     1       6.224   5.398  18.009  0.00  0.00    +0.000 A 
ATOM     17  C   UNL     1       6.962   4.549  17.209  0.00  0.00    +0.000 A 
ATOM     18  N   UNL     1       8.198   4.324  17.763  0.00  0.00    +0.000 NA
ATOM     19  C   UNL     1       8.163   5.014  18.879  0.00  0.00    +0.000 A 
ATOM     20  O   UNL     1       7.006   5.692  19.102  0.00  0.00    +0.000 OA
ENDBRANCH   8  16
TORSDOF 2
ENDMDL
MODEL 9
REMARK VINA RESULT:      -6.8      3.190      4.945
REMARK  Name = 
REMARK  3 active torsions:
REMARK  status: ('A' for Active; 'I' for Inactive)
REMARK    1  A    between atoms: C_1  and  C_2
REMARK    2  A    between atoms: C_5  and  C_6
REMARK    3  A    between atoms: C_13  and  C_15
REMARK                            x       y       z     vdW  Elec       q    Type
REMARK                         _______ _______ _______ _____ _____    ______ ____
ROOT
ATOM      1  C   UNL     1       4.477   4.558  16.975  0.00  0.00    +0.000 C 
ATOM      2  C   UNL     1       5.907   4.789  16.487  0.00  0.00    +0.000 C 
ATOM      3  C   UNL     1       6.400   5.920  17.366  0.00  0.00    +0.000 C 
ATOM      4  F   UNL     1       7.384   6.613  16.757  0.00  0.00    +0.000 F 
ATOM      5  F   UNL     1       6.891   5.446  18.530  0.00  0.00    +0.000 F 
ATOM      6  C   UNL     1       5.171   6.778  17.599  0.00  0.00    +0.000 C 
ATOM      7  N   UNL     1       4.041   5.861  17.477  0.00  0.00    +0.000 N 
ATOM      8  C   UNL     1       2.718   6.112  17.807  0.00  0.00    +0.000 C 
ATOM      9  O   UNL     1       1.882   5.213  17.743  0.00  0.00    +0.000 OA
ENDROOT
BRANCH   1  14
ATOM     10  C   UNL     1       4.629   1.701  21.030  0.00  0.00    +0.000 C 
ATOM     11  C   UNL     1       4.408   2.206  19.663  0.00  0.00    +0.000 A 
ATOM     12  N   UNL     1       3.693   1.526  18.756  0.00  0.00    +0.000 NA
ATOM     13  O   UNL     1       3.681   2.379  17.657  0.00  0.00    +0.000 OA
ATOM     14  C   UNL     1       4.400   3.487  18.012  0.00  0.00    +0.000 A 
ATOM     15  N   UNL     1       4.895   3.416  19.230  0.00  0.00    +0.000 NA
ENDBRANCH   1  14
BRANCH   8  16
ATOM     16  C   UNL     1       2.362   7.455  18.206  0.00  0.00    +0.000 A 
ATOM     17  C   UNL     1       1.954   7.975  19.418  0.00  0.00    +0.000 A 
ATOM     18  N   UNL     1       1.675   9.314  19.294  0.00  0.00    +0.000 NA
ATOM     19  C   UNL     1       1.896   9.556  18.023  0.00  0.00    +0.000 A 
ATOM     20  O   UNL     1       2.314   8.486  17.296  0.00  0.00    +0.000 OA
ENDBRANCH   8  16
TORSDOF 2
ENDMDL
