MODEL 1
REMARK VINA RESULT:      -7.2      0.000      0.000
REMARK  Name = 
REMARK  2 active torsions:
REMARK  status: ('A' for Active; 'I' for Inactive)
REMARK    1  A    between atoms: C_1  and  C_2
REMARK    2  A    between atoms: N_7  and  C_8
REMARK                            x       y       z     vdW  Elec       q    Type
REMARK                         _______ _______ _______ _____ _____    ______ ____
ROOT
ATOM      1  C   UNL     1      -0.530   8.259  21.727  0.00  0.00    +0.000 C 
ATOM      2  C   UNL     1       0.594   9.215  21.314  0.00  0.00    +0.000 C 
ATOM      3  C   UNL     1      -0.070  10.561  20.963  0.00  0.00    +0.000 C 
ATOM      4  C   UNL     1      -0.511  10.586  19.469  0.00  0.00    +0.000 C 
ATOM      5  C   UNL     1      -1.131  11.864  19.101  0.00  0.00    +0.000 C 
ATOM      6  O   UNL     1      -2.299  11.940  18.734  0.00  0.00    +0.000 OA
ATOM      7  N   UNL     1      -0.142  12.810  19.120  0.00  0.00    +0.000 N 
ATOM      8  C   UNL     1       1.090  12.154  18.863  0.00  0.00    +0.000 C 
ATOM      9  O   UNL     1       2.210  12.632  18.797  0.00  0.00    +0.000 OA
ATOM     10  C   UNL     1       0.716  10.673  18.566  0.00  0.00    +0.000 C 
ATOM     11  C   UNL     1       1.530   9.452  18.940  0.00  0.00    +0.000 A 
ATOM     12  N   UNL     1       2.093   8.593  18.017  0.00  0.00    +0.000 N 
ATOM     13  C   UNL     1       2.257   7.330  18.567  0.00  0.00    +0.000 A 
ATOM     14  C   UNL     1       2.610   6.107  17.969  0.00  0.00    +0.000 A 
ATOM     15  C   UNL     1       2.661   4.963  18.779  0.00  0.00    +0.000 A 
ATOM     16  C   UNL     1       2.398   5.041  20.142  0.00  0.00    +0.000 A 
ATOM     17  C   UNL     1       2.044   6.262  20.721  0.00  0.00    +0.000 A 
ATOM     18  C   UNL     1       1.940   7.424  19.921  0.00  0.00    +0.000 A 
ATOM     19  C   UNL     1       1.410   8.734  20.134  0.00  0.00    +0.000 A 
ATOM     20  H   UNL     1       2.188   8.776  17.028  0.00  0.00    +0.000 HD
ENDROOT
BRANCH   7  21
ATOM     21  C   UNL     1      -0.434  14.187  19.388  0.00  0.00    +0.000 A 
ATOM     22  C   UNL     1      -1.021  14.549  20.625  0.00  0.00    +0.000 A 
ATOM     23  C   UNL     1      -1.336  15.870  20.968  0.00  0.00    +0.000 A 
ATOM     24  C   UNL     1      -1.030  16.884  20.079  0.00  0.00    +0.000 A 
ATOM     25  C   UNL     1      -0.412  16.568  18.867  0.00  0.00    +0.000 A 
ATOM     26  C   UNL     1      -0.116  15.232  18.520  0.00  0.00    +0.000 A 
ENDBRANCH   7  21
TORSDOF 1
ENDMDL
MODEL 2
REMARK VINA RESULT:      -6.9      3.018      4.662
REMARK  Name = 
REMARK  2 active torsions:
REMARK  status: ('A' for Active; 'I' for Inactive)
REMARK    1  A    between atoms: C_1  and  C_2
REMARK    2  A    between atoms: N_7  and  C_8
REMARK                            x       y       z     vdW  Elec       q    Type
REMARK                         _______ _______ _______ _____ _____    ______ ____
ROOT
ATOM      1  C   UNL     1       0.549  13.015  18.571  0.00  0.00    +0.000 C 
ATOM      2  C   UNL     1      -0.631  12.401  19.335  0.00  0.00    +0.000 C 
ATOM      3  C   UNL     1      -1.064  13.435  20.393  0.00  0.00    +0.000 C 
ATOM      4  C   UNL     1      -0.245  13.256  21.707  0.00  0.00    +0.000 C 
ATOM      5  C   UNL     1      -0.650  14.216  22.740  0.00  0.00    +0.000 C 
ATOM      6  O   UNL     1       0.122  15.060  23.184  0.00  0.00    +0.000 OA
ATOM      7  N   UNL     1      -1.909  13.865  23.142  0.00  0.00    +0.000 N 
ATOM      8  C   UNL     1      -2.063  12.472  22.918  0.00  0.00    +0.000 C 
ATOM      9  O   UNL     1      -3.034  11.766  23.135  0.00  0.00    +0.000 OA
ATOM     10  C   UNL     1      -0.675  11.978  22.418  0.00  0.00    +0.000 C 
ATOM     11  C   UNL     1      -0.427  10.890  21.394  0.00  0.00    +0.000 A 
ATOM     12  N   UNL     1       0.213   9.700  21.678  0.00  0.00    +0.000 N 
ATOM     13  C   UNL     1       0.804   9.181  20.536  0.00  0.00    +0.000 A 
ATOM     14  C   UNL     1       1.700   8.110  20.370  0.00  0.00    +0.000 A 
ATOM     15  C   UNL     1       2.170   7.833  19.078  0.00  0.00    +0.000 A 
ATOM     16  C   UNL     1       1.741   8.578  17.986  0.00  0.00    +0.000 A 
ATOM     17  C   UNL     1       0.854   9.643  18.167  0.00  0.00    +0.000 A 
ATOM     18  C   UNL     1       0.398   9.975  19.464  0.00  0.00    +0.000 A 
ATOM     19  C   UNL     1      -0.308  11.088  20.016  0.00  0.00    +0.000 A 
ATOM     20  H   UNL     1       0.411   9.347  22.605  0.00  0.00    +0.000 HD
ENDROOT
BRANCH   7  21
ATOM     21  C   UNL     1      -2.822  14.838  23.664  0.00  0.00    +0.000 A 
ATOM     22  C   UNL     1      -3.969  15.195  22.912  0.00  0.00    +0.000 A 
ATOM     23  C   UNL     1      -4.912  16.133  23.350  0.00  0.00    +0.000 A 
ATOM     24  C   UNL     1      -4.748  16.720  24.590  0.00  0.00    +0.000 A 
ATOM     25  C   UNL     1      -3.652  16.360  25.378  0.00  0.00    +0.000 A 
ATOM     26  C   UNL     1      -2.694  15.429  24.922  0.00  0.00    +0.000 A 
ENDBRANCH   7  21
TORSDOF 1
ENDMDL
MODEL 3
REMARK VINA RESULT:      -6.9      2.352      7.486
REMARK  Name = 
REMARK  2 active torsions:
REMARK  status: ('A' for Active; 'I' for Inactive)
REMARK    1  A    between atoms: C_1  and  C_2
REMARK    2  A    between atoms: N_7  and  C_8
REMARK                            x       y       z     vdW  Elec       q    Type
REMARK                         _______ _______ _______ _____ _____    ______ ____
ROOT
ATOM      1  C   UNL     1       0.449  14.279  19.820  0.00  0.00    +0.000 C 
ATOM      2  C   UNL     1       0.953  13.203  20.789  0.00  0.00    +0.000 C 
ATOM      3  C   UNL     1       1.289  11.960  19.941  0.00  0.00    +0.000 C 
ATOM      4  C   UNL     1       0.028  11.064  19.752  0.00  0.00    +0.000 C 
ATOM      5  C   UNL     1       0.322   9.862  18.964  0.00  0.00    +0.000 C 
ATOM      6  O   UNL     1      -0.208   9.649  17.878  0.00  0.00    +0.000 OA
ATOM      7  N   UNL     1       1.124   9.064  19.733  0.00  0.00    +0.000 N 
ATOM      8  C   UNL     1       0.850   9.357  21.094  0.00  0.00    +0.000 C 
ATOM      9  O   UNL     1       1.349   8.872  22.096  0.00  0.00    +0.000 OA
ATOM     10  C   UNL     1      -0.324  10.378  21.068  0.00  0.00    +0.000 C 
ATOM     11  C   UNL     1      -0.534  11.527  22.033  0.00  0.00    +0.000 A 
ATOM     12  N   UNL     1      -1.609  11.619  22.895  0.00  0.00    +0.000 N 
ATOM     13  C   UNL     1      -1.866  12.945  23.210  0.00  0.00    +0.000 A 
ATOM     14  C   UNL     1      -2.948  13.536  23.886  0.00  0.00    +0.000 A 
ATOM     15  C   UNL     1      -2.960  14.932  24.027  0.00  0.00    +0.000 A 
ATOM     16  C   UNL     1      -1.916  15.708  23.537  0.00  0.00    +0.000 A 
ATOM     17  C   UNL     1      -0.850  15.107  22.863  0.00  0.00    +0.000 A 
ATOM     18  C   UNL     1      -0.833  13.707  22.665  0.00  0.00    +0.000 A 
ATOM     19  C   UNL     1      -0.044  12.825  21.864  0.00  0.00    +0.000 A 
ATOM     20  H   UNL     1      -2.253  10.871  23.111  0.00  0.00    +0.000 HD
ENDROOT
BRANCH   7  21
ATOM     21  C   UNL     1       2.052   8.148  19.139  0.00  0.00    +0.000 A 
ATOM     22  C   UNL     1       2.268   6.884  19.740  0.00  0.00    +0.000 A 
ATOM     23  C   UNL     1       3.153   5.929  19.223  0.00  0.00    +0.000 A 
ATOM     24  C   UNL     1       3.827   6.207  18.049  0.00  0.00    +0.000 A 
ATOM     25  C   UNL     1       3.606   7.426  17.405  0.00  0.00    +0.000 A 
ATOM     26  C   UNL     1       2.728   8.392  17.943  0.00  0.00    +0.000 A 
ENDBRANCH   7  21
TORSDOF 1
ENDMDL
MODEL 4
REMARK VINA RESULT:      -6.9      2.719      7.618
REMARK  Name = 
REMARK  2 active torsions:
REMARK  status: ('A' for Active; 'I' for Inactive)
REMARK    1  A    between atoms: C_1  and  C_2
REMARK    2  A    between atoms: N_7  and  C_8
REMARK                            x       y       z     vdW  Elec       q    Type
REMARK                         _______ _______ _______ _____ _____    ______ ____
ROOT
ATOM      1  C   UNL     1      -1.558  13.209  23.668  0.00  0.00    +0.000 C 
ATOM      2  C   UNL     1      -2.124  12.156  22.708  0.00  0.00    +0.000 C 
ATOM      3  C   UNL     1      -0.925  11.554  21.949  0.00  0.00    +0.000 C 
ATOM      4  C   UNL     1      -0.596  12.395  20.679  0.00  0.00    +0.000 C 
ATOM      5  C   UNL     1       0.531  11.834  19.925  0.00  0.00    +0.000 C 
ATOM      6  O   UNL     1       1.580  12.450  19.767  0.00  0.00    +0.000 OA
ATOM      7  N   UNL     1       0.101  10.655  19.380  0.00  0.00    +0.000 N 
ATOM      8  C   UNL     1      -1.305  10.743  19.211  0.00  0.00    +0.000 C 
ATOM      9  O   UNL     1      -2.074   9.909  18.762  0.00  0.00    +0.000 OA
ATOM     10  C   UNL     1      -1.681  12.194  19.627  0.00  0.00    +0.000 C 
ATOM     11  C   UNL     1      -2.953  12.624  20.329  0.00  0.00    +0.000 A 
ATOM     12  N   UNL     1      -3.897  13.460  19.766  0.00  0.00    +0.000 N 
ATOM     13  C   UNL     1      -4.605  14.128  20.753  0.00  0.00    +0.000 A 
ATOM     14  C   UNL     1      -5.517  15.194  20.667  0.00  0.00    +0.000 A 
ATOM     15  C   UNL     1      -6.058  15.702  21.858  0.00  0.00    +0.000 A 
ATOM     16  C   UNL     1      -5.724  15.147  23.088  0.00  0.00    +0.000 A 
ATOM     17  C   UNL     1      -4.813  14.090  23.158  0.00  0.00    +0.000 A 
ATOM     18  C   UNL     1      -4.216  13.588  21.978  0.00  0.00    +0.000 A 
ATOM     19  C   UNL     1      -3.126  12.702  21.714  0.00  0.00    +0.000 A 
ATOM     20  H   UNL     1      -3.942  13.718  18.790  0.00  0.00    +0.000 HD
ENDROOT
BRANCH   7  21
ATOM     21  C   UNL     1       1.016   9.590  19.096  0.00  0.00    +0.000 A 
ATOM     22  C   UNL     1       1.245   8.587  20.070  0.00  0.00    +0.000 A 
ATOM     23  C   UNL     1       2.118   7.510  19.873  0.00  0.00    +0.000 A 
ATOM     24  C   UNL     1       2.768   7.389  18.660  0.00  0.00    +0.000 A 
ATOM     25  C   UNL     1       2.533   8.335  17.660  0.00  0.00    +0.000 A 
ATOM     26  C   UNL     1       1.667   9.429  17.873  0.00  0.00    +0.000 A 
ENDBRANCH   7  21
TORSDOF 1
ENDMDL
MODEL 5
REMARK VINA RESULT:      -6.8      3.636      8.204
REMARK  Name = 
REMARK  2 active torsions:
REMARK  status: ('A' for Active; 'I' for Inactive)
REMARK    1  A    between atoms: C_1  and  C_2
REMARK    2  A    between atoms: N_7  and  C_8
REMARK                            x       y       z     vdW  Elec       q    Type
REMARK                         _______ _______ _______ _____ _____    ______ ____
ROOT
ATOM      1  C   UNL     1       0.043   9.538  17.807  0.00  0.00    +0.000 C 
ATOM      2  C   UNL     1       1.443   9.271  18.372  0.00  0.00    +0.000 C 
ATOM      3  C   UNL     1       1.997   8.039  17.629  0.00  0.00    +0.000 C 
ATOM      4  C   UNL     1       1.563   6.723  18.341  0.00  0.00    +0.000 C 
ATOM      5  C   UNL     1       2.092   5.533  17.666  0.00  0.00    +0.000 C 
ATOM      6  O   UNL     1       1.358   4.691  17.157  0.00  0.00    +0.000 OA
ATOM      7  N   UNL     1       3.446   5.529  17.864  0.00  0.00    +0.000 N 
ATOM      8  C   UNL     1       3.710   6.226  19.070  0.00  0.00    +0.000 C 
ATOM      9  O   UNL     1       4.784   6.452  19.603  0.00  0.00    +0.000 OA
ATOM     10  C   UNL     1       2.313   6.574  19.661  0.00  0.00    +0.000 C 
ATOM     11  C   UNL     1       1.952   7.828  20.429  0.00  0.00    +0.000 A 
ATOM     12  N   UNL     1       1.556   7.832  21.752  0.00  0.00    +0.000 N 
ATOM     13  C   UNL     1       0.767   8.940  22.020  0.00  0.00    +0.000 A 
ATOM     14  C   UNL     1      -0.003   9.268  23.150  0.00  0.00    +0.000 A 
ATOM     15  C   UNL     1      -0.745  10.458  23.125  0.00  0.00    +0.000 A 
ATOM     16  C   UNL     1      -0.699  11.305  22.024  0.00  0.00    +0.000 A 
ATOM     17  C   UNL     1       0.066  10.963  20.906  0.00  0.00    +0.000 A 
ATOM     18  C   UNL     1       0.788   9.748  20.884  0.00  0.00    +0.000 A 
ATOM     19  C   UNL     1       1.467   9.011  19.864  0.00  0.00    +0.000 A 
ATOM     20  H   UNL     1       1.643   7.054  22.391  0.00  0.00    +0.000 HD
ENDROOT
BRANCH   7  21
ATOM     21  C   UNL     1       4.333   4.908  16.925  0.00  0.00    +0.000 A 
ATOM     22  C   UNL     1       5.016   5.706  15.975  0.00  0.00    +0.000 A 
ATOM     23  C   UNL     1       5.902   5.181  15.026  0.00  0.00    +0.000 A 
ATOM     24  C   UNL     1       6.160   3.823  15.030  0.00  0.00    +0.000 A 
ATOM     25  C   UNL     1       5.538   3.011  15.981  0.00  0.00    +0.000 A 
ATOM     26  C   UNL     1       4.630   3.544  16.921  0.00  0.00    +0.000 A 
ENDBRANCH   7  21
TORSDOF 1
ENDMDL
MODEL 6
REMARK VINA RESULT:      -6.7      3.860      6.355
REMARK  Name = 
REMARK  2 active torsions:
REMARK  status: ('A' for Active; 'I' for Inactive)
REMARK    1  A    between atoms: C_1  and  C_2
REMARK    2  A    between atoms: N_7  and  C_8
REMARK                            x       y       z     vdW  Elec       q    Type
REMARK                         _______ _______ _______ _____ _____    ______ ____
ROOT
ATOM      1  C   UNL     1      -2.381   9.915  17.865  0.00  0.00    +0.000 C 
ATOM      2  C   UNL     1      -2.287  11.441  17.980  0.00  0.00    +0.000 C 
ATOM      3  C   UNL     1      -0.872  11.763  18.499  0.00  0.00    +0.000 C 
ATOM      4  C   UNL     1      -0.836  11.739  20.057  0.00  0.00    +0.000 C 
ATOM      5  C   UNL     1       0.496  12.061  20.581  0.00  0.00    +0.000 C 
ATOM      6  O   UNL     1       1.151  11.257  21.237  0.00  0.00    +0.000 OA
ATOM      7  N   UNL     1       0.723  13.384  20.313  0.00  0.00    +0.000 N 
ATOM      8  C   UNL     1      -0.536  14.033  20.240  0.00  0.00    +0.000 C 
ATOM      9  O   UNL     1      -0.777  15.208  20.017  0.00  0.00    +0.000 OA
ATOM     10  C   UNL     1      -1.584  12.946  20.613  0.00  0.00    +0.000 C 
ATOM     11  C   UNL     1      -2.978  12.809  20.034  0.00  0.00    +0.000 A 
ATOM     12  N   UNL     1      -4.134  12.951  20.775  0.00  0.00    +0.000 N 
ATOM     13  C   UNL     1      -5.173  12.240  20.194  0.00  0.00    +0.000 A 
ATOM     14  C   UNL     1      -6.460  11.938  20.673  0.00  0.00    +0.000 A 
ATOM     15  C   UNL     1      -7.300  11.152  19.869  0.00  0.00    +0.000 A 
ATOM     16  C   UNL     1      -6.881  10.706  18.621  0.00  0.00    +0.000 A 
ATOM     17  C   UNL     1      -5.597  11.010  18.161  0.00  0.00    +0.000 A 
ATOM     18  C   UNL     1      -4.713  11.762  18.968  0.00  0.00    +0.000 A 
ATOM     19  C   UNL     1      -3.315  12.054  18.907  0.00  0.00    +0.000 A 
ATOM     20  H   UNL     1      -4.189  13.337  21.708  0.00  0.00    +0.000 HD
ENDROOT
BRANCH   7  21
ATOM     21  C   UNL     1       2.052  13.890  20.139  0.00  0.00    +0.000 A 
ATOM     22  C   UNL     1       2.589  14.010  18.833  0.00  0.00    +0.000 A 
ATOM     23  C   UNL     1       3.876  14.499  18.575  0.00  0.00    +0.000 A 
ATOM     24  C   UNL     1       4.658  14.920  19.633  0.00  0.00    +0.000 A 
ATOM     25  C   UNL     1       4.145  14.856  20.931  0.00  0.00    +0.000 A 
ATOM     26  C   UNL     1       2.854  14.344  21.186  0.00  0.00    +0.000 A 
ENDBRANCH   7  21
TORSDOF 1
ENDMDL
MODEL 7
REMARK VINA RESULT:      -6.7      2.332      7.652
REMARK  Name = 
REMARK  2 active torsions:
REMARK  status: ('A' for Active; 'I' for Inactive)
REMARK    1  A    between atoms: C_1  and  C_2
REMARK    2  A    between atoms: N_7  and  C_8
REMARK                            x       y       z     vdW  Elec       q    Type
REMARK                         _______ _______ _______ _____ _____    ______ ____
ROOT
ATOM      1  C   UNL     1      -0.388  14.882  19.727  0.00  0.00    +0.000 C 
ATOM      2  C   UNL     1       0.376  13.972  20.695  0.00  0.00    +0.000 C 
ATOM      3  C   UNL     1       0.622  12.641  19.957  0.00  0.00    +0.000 C 
ATOM      4  C   UNL     1      -0.583  11.673  20.150  0.00  0.00    +0.000 C 
ATOM      5  C   UNL     1      -0.368  10.389  19.473  0.00  0.00    +0.000 C 
ATOM      6  O   UNL     1      -1.090  10.006  18.557  0.00  0.00    +0.000 OA
ATOM      7  N   UNL     1       0.627   9.740  20.151  0.00  0.00    +0.000 N 
ATOM      8  C   UNL     1       0.612  10.203  21.491  0.00  0.00    +0.000 C 
ATOM      9  O   UNL     1       1.337   9.883  22.419  0.00  0.00    +0.000 OA
ATOM     10  C   UNL     1      -0.613  11.158  21.585  0.00  0.00    +0.000 C 
ATOM     11  C   UNL     1      -0.705  12.418  22.422  0.00  0.00    +0.000 A 
ATOM     12  N   UNL     1      -1.588  12.580  23.471  0.00  0.00    +0.000 N 
ATOM     13  C   UNL     1      -1.870  13.923  23.665  0.00  0.00    +0.000 A 
ATOM     14  C   UNL     1      -2.833  14.552  24.474  0.00  0.00    +0.000 A 
ATOM     15  C   UNL     1      -2.917  15.952  24.439  0.00  0.00    +0.000 A 
ATOM     16  C   UNL     1      -2.052  16.700  23.648  0.00  0.00    +0.000 A 
ATOM     17  C   UNL     1      -1.103  16.060  22.846  0.00  0.00    +0.000 A 
ATOM     18  C   UNL     1      -1.026  14.649  22.826  0.00  0.00    +0.000 A 
ATOM     19  C   UNL     1      -0.354  13.701  21.993  0.00  0.00    +0.000 A 
ATOM     20  H   UNL     1      -2.119  11.840  23.909  0.00  0.00    +0.000 HD
ENDROOT
BRANCH   7  21
ATOM     21  C   UNL     1       1.479   8.793  19.494  0.00  0.00    +0.000 A 
ATOM     22  C   UNL     1       1.772   7.560  20.127  0.00  0.00    +0.000 A 
ATOM     23  C   UNL     1       2.590   6.578  19.554  0.00  0.00    +0.000 A 
ATOM     24  C   UNL     1       3.116   6.796  18.295  0.00  0.00    +0.000 A 
ATOM     25  C   UNL     1       2.814   7.982  17.623  0.00  0.00    +0.000 A 
ATOM     26  C   UNL     1       2.004   8.976  18.214  0.00  0.00    +0.000 A 
ENDBRANCH   7  21
TORSDOF 1
ENDMDL
MODEL 8
REMARK VINA RESULT:      -6.7      2.285      7.685
REMARK  Name = 
REMARK  2 active torsions:
REMARK  status: ('A' for Active; 'I' for Inactive)
REMARK    1  A    between atoms: C_1  and  C_2
REMARK    2  A    between atoms: N_7  and  C_8
REMARK                            x       y       z     vdW  Elec       q    Type
REMARK                         _______ _______ _______ _____ _____    ______ ____
ROOT
ATOM      1  C   UNL     1       0.131  14.774  19.690  0.00  0.00    +0.000 C 
ATOM      2  C   UNL     1       0.765  13.807  20.697  0.00  0.00    +0.000 C 
ATOM      3  C   UNL     1       0.956  12.463  19.967  0.00  0.00    +0.000 C 
ATOM      4  C   UNL     1      -0.328  11.587  20.079  0.00  0.00    +0.000 C 
ATOM      5  C   UNL     1      -0.169  10.291  19.409  0.00  0.00    +0.000 C 
ATOM      6  O   UNL     1      -0.860   9.965  18.448  0.00  0.00    +0.000 OA
ATOM      7  N   UNL     1       0.732   9.569  20.142  0.00  0.00    +0.000 N 
ATOM      8  C   UNL     1       0.670  10.030  21.482  0.00  0.00    +0.000 C 
ATOM      9  O   UNL     1       1.310   9.654  22.450  0.00  0.00    +0.000 OA
ATOM     10  C   UNL     1      -0.484  11.073  21.507  0.00  0.00    +0.000 C 
ATOM     11  C   UNL     1      -0.533  12.335  22.344  0.00  0.00    +0.000 A 
ATOM     12  N   UNL     1      -1.465  12.561  23.339  0.00  0.00    +0.000 N 
ATOM     13  C   UNL     1      -1.657  13.921  23.524  0.00  0.00    +0.000 A 
ATOM     14  C   UNL     1      -2.618  14.619  24.276  0.00  0.00    +0.000 A 
ATOM     15  C   UNL     1      -2.594  16.021  24.246  0.00  0.00    +0.000 A 
ATOM     16  C   UNL     1      -1.629  16.704  23.514  0.00  0.00    +0.000 A 
ATOM     17  C   UNL     1      -0.684  15.996  22.767  0.00  0.00    +0.000 A 
ATOM     18  C   UNL     1      -0.711  14.583  22.742  0.00  0.00    +0.000 A 
ATOM     19  C   UNL     1      -0.062  13.589  21.946  0.00  0.00    +0.000 A 
ATOM     20  H   UNL     1      -2.076  11.862  23.739  0.00  0.00    +0.000 HD
ENDROOT
BRANCH   7  21
ATOM     21  C   UNL     1       1.549   8.562  19.533  0.00  0.00    +0.000 A 
ATOM     22  C   UNL     1       2.139   8.811  18.269  0.00  0.00    +0.000 A 
ATOM     23  C   UNL     1       2.954   7.884  17.606  0.00  0.00    +0.000 A 
ATOM     24  C   UNL     1       3.233   6.678  18.220  0.00  0.00    +0.000 A 
ATOM     25  C   UNL     1       2.704   6.416  19.485  0.00  0.00    +0.000 A 
ATOM     26  C   UNL     1       1.867   7.346  20.139  0.00  0.00    +0.000 A 
ENDBRANCH   7  21
TORSDOF 1
ENDMDL
MODEL 9
REMARK VINA RESULT:      -6.5      2.494      3.430
REMARK  Name = 
REMARK  2 active torsions:
REMARK  status: ('A' for Active; 'I' for Inactive)
REMARK    1  A    between atoms: C_1  and  C_2
REMARK    2  A    between atoms: N_7  and  C_8
REMARK                            x       y       z     vdW  Elec       q    Type
REMARK                         _______ _______ _______ _____ _____    ______ ____
ROOT
ATOM      1  C   UNL     1      -0.701   8.696  22.438  0.00  0.00    +0.000 C 
ATOM      2  C   UNL     1       0.146   9.973  22.397  0.00  0.00    +0.000 C 
ATOM      3  C   UNL     1      -0.773  11.133  22.830  0.00  0.00    +0.000 C 
ATOM      4  C   UNL     1      -1.540  11.716  21.606  0.00  0.00    +0.000 C 
ATOM      5  C   UNL     1      -2.410  12.836  21.987  0.00  0.00    +0.000 C 
ATOM      6  O   UNL     1      -3.629  12.786  21.858  0.00  0.00    +0.000 OA
ATOM      7  N   UNL     1      -1.594  13.878  22.332  0.00  0.00    +0.000 N 
ATOM      8  C   UNL     1      -0.370  13.721  21.631  0.00  0.00    +0.000 C 
ATOM      9  O   UNL     1       0.623  14.429  21.660  0.00  0.00    +0.000 OA
ATOM     10  C   UNL     1      -0.578  12.486  20.708  0.00  0.00    +0.000 C 
ATOM     11  C   UNL     1       0.472  11.460  20.334  0.00  0.00    +0.000 A 
ATOM     12  N   UNL     1       0.931  11.264  19.047  0.00  0.00    +0.000 N 
ATOM     13  C   UNL     1       1.401   9.969  18.890  0.00  0.00    +0.000 A 
ATOM     14  C   UNL     1       1.785   9.265  17.736  0.00  0.00    +0.000 A 
ATOM     15  C   UNL     1       2.188   7.929  17.877  0.00  0.00    +0.000 A 
ATOM     16  C   UNL     1       2.234   7.325  19.128  0.00  0.00    +0.000 A 
ATOM     17  C   UNL     1       1.844   8.036  20.266  0.00  0.00    +0.000 A 
ATOM     18  C   UNL     1       1.390   9.370  20.149  0.00  0.00    +0.000 A 
ATOM     19  C   UNL     1       0.734  10.279  21.036  0.00  0.00    +0.000 A 
ATOM     20  H   UNL     1       0.770  11.886  18.267  0.00  0.00    +0.000 HD
ENDROOT
BRANCH   7  21
ATOM     21  C   UNL     1      -2.018  14.877  23.267  0.00  0.00    +0.000 A 
ATOM     22  C   UNL     1      -1.638  14.768  24.628  0.00  0.00    +0.000 A 
ATOM     23  C   UNL     1      -2.006  15.701  25.605  0.00  0.00    +0.000 A 
ATOM     24  C   UNL     1      -2.747  16.806  25.231  0.00  0.00    +0.000 A 
ATOM     25  C   UNL     1      -3.103  16.968  23.890  0.00  0.00    +0.000 A 
ATOM     26  C   UNL     1      -2.746  16.014  22.914  0.00  0.00    +0.000 A 
ENDBRANCH   7  21
TORSDOF 1
ENDMDL
