MODEL 1
REMARK VINA RESULT:      -7.5      0.000      0.000
REMARK  Name = 
REMARK  4 active torsions:
REMARK  status: ('A' for Active; 'I' for Inactive)
REMARK    1  A    between atoms: C_1  and  C_2
REMARK    2  A    between atoms: C_2  and  C_4
REMARK    3  A    between atoms: C_7  and  C_8
REMARK    4  A    between atoms: C_13  and  C_14
REMARK                            x       y       z     vdW  Elec       q    Type
REMARK                         _______ _______ _______ _____ _____    ______ ____
ROOT
ATOM      1  C   UNL     1       4.503   5.124  17.186  0.00  0.00    +0.000 C 
ATOM      2  C   UNL     1       4.278   3.950  17.798  0.00  0.00    +0.000 C 
ATOM      3  C   UNL     1       3.348   3.830  18.915  0.00  0.00    +0.000 C 
ATOM      4  C   UNL     1       3.592   2.977  19.926  0.00  0.00    +0.000 C 
ATOM      5  C   UNL     1       4.797   2.081  20.065  0.00  0.00    +0.000 C 
ATOM      6  C   UNL     1       2.661   2.898  21.083  0.00  0.00    +0.000 C 
ATOM      7  O   UNL     1       2.925   2.164  22.034  0.00  0.00    +0.000 OA
ATOM      8  C   UNL     1       1.369   3.673  21.078  0.00  0.00    +0.000 C 
ATOM      9  C   UNL     1       1.226   4.792  20.067  0.00  0.00    +0.000 C 
ATOM     10  C   UNL     1       2.156   4.787  18.825  0.00  0.00    +0.000 C 
ATOM     11  C   UNL     1       1.283   4.432  17.593  0.00  0.00    +0.000 C 
ATOM     12  C   UNL     1       2.733   6.226  18.666  0.00  0.00    +0.000 C 
ATOM     13  C   UNL     1       3.817   6.394  17.588  0.00  0.00    +0.000 C 
ENDROOT
BRANCH   1  15
ATOM     14  C   UNL     1       6.050   3.816  15.599  0.00  0.00    +0.000 C 
ATOM     15  C   UNL     1       5.449   5.129  16.027  0.00  0.00    +0.000 C 
ATOM     16  O   UNL     1       5.712   6.172  15.430  0.00  0.00    +0.000 OA
ENDBRANCH   1  15
TORSDOF 1
ENDMDL
MODEL 2
REMARK VINA RESULT:      -7.4      1.783      2.212
REMARK  Name = 
REMARK  4 active torsions:
REMARK  status: ('A' for Active; 'I' for Inactive)
REMARK    1  A    between atoms: C_1  and  C_2
REMARK    2  A    between atoms: C_2  and  C_4
REMARK    3  A    between atoms: C_7  and  C_8
REMARK    4  A    between atoms: C_13  and  C_14
REMARK                            x       y       z     vdW  Elec       q    Type
REMARK                         _______ _______ _______ _____ _____    ______ ____
ROOT
ATOM      1  C   UNL     1       5.721   4.594  17.081  0.00  0.00    +0.000 C 
ATOM      2  C   UNL     1       4.460   4.148  16.967  0.00  0.00    +0.000 C 
ATOM      3  C   UNL     1       3.478   4.335  18.030  0.00  0.00    +0.000 C 
ATOM      4  C   UNL     1       2.547   3.398  18.281  0.00  0.00    +0.000 C 
ATOM      5  C   UNL     1       2.392   2.081  17.563  0.00  0.00    +0.000 C 
ATOM      6  C   UNL     1       1.583   3.578  19.398  0.00  0.00    +0.000 C 
ATOM      7  O   UNL     1       0.777   2.687  19.664  0.00  0.00    +0.000 OA
ATOM      8  C   UNL     1       1.550   4.867  20.180  0.00  0.00    +0.000 C 
ATOM      9  C   UNL     1       2.739   5.796  20.049  0.00  0.00    +0.000 C 
ATOM     10  C   UNL     1       3.670   5.634  18.817  0.00  0.00    +0.000 C 
ATOM     11  C   UNL     1       3.432   6.856  17.892  0.00  0.00    +0.000 C 
ATOM     12  C   UNL     1       5.139   5.644  19.337  0.00  0.00    +0.000 C 
ATOM     13  C   UNL     1       6.219   5.325  18.290  0.00  0.00    +0.000 C 
ENDROOT
BRANCH   1  15
ATOM     14  C   UNL     1       6.024   3.978  14.600  0.00  0.00    +0.000 C 
ATOM     15  C   UNL     1       6.636   4.382  15.916  0.00  0.00    +0.000 C 
ATOM     16  O   UNL     1       7.850   4.550  16.026  0.00  0.00    +0.000 OA
ENDBRANCH   1  15
TORSDOF 1
ENDMDL
MODEL 3
REMARK VINA RESULT:      -7.0      1.732      2.557
REMARK  Name = 
REMARK  4 active torsions:
REMARK  status: ('A' for Active; 'I' for Inactive)
REMARK    1  A    between atoms: C_1  and  C_2
REMARK    2  A    between atoms: C_2  and  C_4
REMARK    3  A    between atoms: C_7  and  C_8
REMARK    4  A    between atoms: C_13  and  C_14
REMARK                            x       y       z     vdW  Elec       q    Type
REMARK                         _______ _______ _______ _____ _____    ______ ____
ROOT
ATOM      1  C   UNL     1       6.041   4.855  16.082  0.00  0.00    +0.000 C 
ATOM      2  C   UNL     1       4.784   4.396  16.192  0.00  0.00    +0.000 C 
ATOM      3  C   UNL     1       4.029   4.512  17.435  0.00  0.00    +0.000 C 
ATOM      4  C   UNL     1       3.170   3.549  17.812  0.00  0.00    +0.000 C 
ATOM      5  C   UNL     1       2.883   2.269  17.068  0.00  0.00    +0.000 C 
ATOM      6  C   UNL     1       2.441   3.656  19.104  0.00  0.00    +0.000 C 
ATOM      7  O   UNL     1       1.708   2.740  19.473  0.00  0.00    +0.000 OA
ATOM      8  C   UNL     1       2.556   4.902  19.945  0.00  0.00    +0.000 C 
ATOM      9  C   UNL     1       3.692   5.855  19.635  0.00  0.00    +0.000 C 
ATOM     10  C   UNL     1       4.365   5.771  18.239  0.00  0.00    +0.000 C 
ATOM     11  C   UNL     1       3.944   7.036  17.445  0.00  0.00    +0.000 C 
ATOM     12  C   UNL     1       5.907   5.777  18.462  0.00  0.00    +0.000 C 
ATOM     13  C   UNL     1       6.762   5.529  17.209  0.00  0.00    +0.000 C 
ENDROOT
BRANCH   1  15
ATOM     14  C   UNL     1       6.059   3.838  13.717  0.00  0.00    +0.000 C 
ATOM     15  C   UNL     1       6.711   4.717  14.751  0.00  0.00    +0.000 C 
ATOM     16  O   UNL     1       7.755   5.320  14.503  0.00  0.00    +0.000 OA
ENDBRANCH   1  15
TORSDOF 1
ENDMDL
MODEL 4
REMARK VINA RESULT:      -6.8      2.168      5.229
REMARK  Name = 
REMARK  4 active torsions:
REMARK  status: ('A' for Active; 'I' for Inactive)
REMARK    1  A    between atoms: C_1  and  C_2
REMARK    2  A    between atoms: C_2  and  C_4
REMARK    3  A    between atoms: C_7  and  C_8
REMARK    4  A    between atoms: C_13  and  C_14
REMARK                            x       y       z     vdW  Elec       q    Type
REMARK                         _______ _______ _______ _____ _____    ______ ____
ROOT
ATOM      1  C   UNL     1       2.878   4.225  17.768  0.00  0.00    +0.000 C 
ATOM      2  C   UNL     1       4.029   3.805  17.217  0.00  0.00    +0.000 C 
ATOM      3  C   UNL     1       5.136   4.719  16.956  0.00  0.00    +0.000 C 
ATOM      4  C   UNL     1       5.920   4.560  15.876  0.00  0.00    +0.000 C 
ATOM      5  C   UNL     1       5.778   3.492  14.820  0.00  0.00    +0.000 C 
ATOM      6  C   UNL     1       7.016   5.525  15.594  0.00  0.00    +0.000 C 
ATOM      7  O   UNL     1       7.686   5.411  14.569  0.00  0.00    +0.000 OA
ATOM      8  C   UNL     1       7.345   6.616  16.580  0.00  0.00    +0.000 C 
ATOM      9  C   UNL     1       6.319   6.926  17.651  0.00  0.00    +0.000 C 
ATOM     10  C   UNL     1       5.247   5.852  17.979  0.00  0.00    +0.000 C 
ATOM     11  C   UNL     1       5.584   5.273  19.378  0.00  0.00    +0.000 C 
ATOM     12  C   UNL     1       3.865   6.570  18.023  0.00  0.00    +0.000 C 
ATOM     13  C   UNL     1       2.641   5.650  18.167  0.00  0.00    +0.000 C 
ENDROOT
BRANCH   1  15
ATOM     14  C   UNL     1       2.249   1.870  18.594  0.00  0.00    +0.000 C 
ATOM     15  C   UNL     1       1.822   3.198  18.026  0.00  0.00    +0.000 C 
ATOM     16  O   UNL     1       0.637   3.439  17.798  0.00  0.00    +0.000 OA
ENDBRANCH   1  15
TORSDOF 1
ENDMDL
MODEL 5
REMARK VINA RESULT:      -6.7      2.452      4.427
REMARK  Name = 
REMARK  4 active torsions:
REMARK  status: ('A' for Active; 'I' for Inactive)
REMARK    1  A    between atoms: C_1  and  C_2
REMARK    2  A    between atoms: C_2  and  C_4
REMARK    3  A    between atoms: C_7  and  C_8
REMARK    4  A    between atoms: C_13  and  C_14
REMARK                            x       y       z     vdW  Elec       q    Type
REMARK                         _______ _______ _______ _____ _____    ______ ____
ROOT
ATOM      1  C   UNL     1       2.349   8.078  18.486  0.00  0.00    +0.000 C 
ATOM      2  C   UNL     1       3.298   7.472  17.755  0.00  0.00    +0.000 C 
ATOM      3  C   UNL     1       3.880   6.195  18.155  0.00  0.00    +0.000 C 
ATOM      4  C   UNL     1       5.176   5.926  17.924  0.00  0.00    +0.000 C 
ATOM      5  C   UNL     1       6.176   6.848  17.273  0.00  0.00    +0.000 C 
ATOM      6  C   UNL     1       5.770   4.640  18.379  0.00  0.00    +0.000 C 
ATOM      7  O   UNL     1       6.971   4.429  18.223  0.00  0.00    +0.000 OA
ATOM      8  C   UNL     1       4.899   3.571  18.988  0.00  0.00    +0.000 C 
ATOM      9  C   UNL     1       3.515   3.974  19.456  0.00  0.00    +0.000 C 
ATOM     10  C   UNL     1       2.895   5.277  18.884  0.00  0.00    +0.000 C 
ATOM     11  C   UNL     1       1.747   4.863  17.926  0.00  0.00    +0.000 C 
ATOM     12  C   UNL     1       2.316   6.084  20.085  0.00  0.00    +0.000 C 
ATOM     13  C   UNL     1       1.803   7.496  19.753  0.00  0.00    +0.000 C 
ENDROOT
BRANCH   1  15
ATOM     14  C   UNL     1       0.324   9.631  18.149  0.00  0.00    +0.000 C 
ATOM     15  C   UNL     1       1.795   9.367  17.964  0.00  0.00    +0.000 C 
ATOM     16  O   UNL     1       2.525  10.193  17.417  0.00  0.00    +0.000 OA
ENDBRANCH   1  15
TORSDOF 1
ENDMDL
MODEL 6
REMARK VINA RESULT:      -6.6      1.865      5.209
REMARK  Name = 
REMARK  4 active torsions:
REMARK  status: ('A' for Active; 'I' for Inactive)
REMARK    1  A    between atoms: C_1  and  C_2
REMARK    2  A    between atoms: C_2  and  C_4
REMARK    3  A    between atoms: C_7  and  C_8
REMARK    4  A    between atoms: C_13  and  C_14
REMARK                            x       y       z     vdW  Elec       q    Type
REMARK                         _______ _______ _______ _____ _____    ______ ____
ROOT
ATOM      1  C   UNL     1       4.372   3.187  19.433  0.00  0.00    +0.000 C 
ATOM      2  C   UNL     1       5.092   4.315  19.545  0.00  0.00    +0.000 C 
ATOM      3  C   UNL     1       5.372   5.167  18.393  0.00  0.00    +0.000 C 
ATOM      4  C   UNL     1       6.545   5.815  18.285  0.00  0.00    +0.000 C 
ATOM      5  C   UNL     1       7.691   5.754  19.264  0.00  0.00    +0.000 C 
ATOM      6  C   UNL     1       6.839   6.641  17.085  0.00  0.00    +0.000 C 
ATOM      7  O   UNL     1       7.939   7.177  16.962  0.00  0.00    +0.000 OA
ATOM      8  C   UNL     1       5.780   6.870  16.037  0.00  0.00    +0.000 C 
ATOM      9  C   UNL     1       4.571   5.955  16.050  0.00  0.00    +0.000 C 
ATOM     10  C   UNL     1       4.248   5.180  17.355  0.00  0.00    +0.000 C 
ATOM     11  C   UNL     1       2.969   5.813  17.965  0.00  0.00    +0.000 C 
ATOM     12  C   UNL     1       3.967   3.698  16.961  0.00  0.00    +0.000 C 
ATOM     13  C   UNL     1       3.791   2.719  18.134  0.00  0.00    +0.000 C 
ENDROOT
BRANCH   1  15
ATOM     14  C   UNL     1       2.764   2.549  21.340  0.00  0.00    +0.000 C 
ATOM     15  C   UNL     1       4.112   2.408  20.684  0.00  0.00    +0.000 C 
ATOM     16  O   UNL     1       4.970   1.660  21.151  0.00  0.00    +0.000 OA
ENDBRANCH   1  15
TORSDOF 1
ENDMDL
MODEL 7
REMARK VINA RESULT:      -6.6      2.400      4.681
REMARK  Name = 
REMARK  4 active torsions:
REMARK  status: ('A' for Active; 'I' for Inactive)
REMARK    1  A    between atoms: C_1  and  C_2
REMARK    2  A    between atoms: C_2  and  C_4
REMARK    3  A    between atoms: C_7  and  C_8
REMARK    4  A    between atoms: C_13  and  C_14
REMARK                            x       y       z     vdW  Elec       q    Type
REMARK                         _______ _______ _______ _____ _____    ______ ____
ROOT
ATOM      1  C   UNL     1       2.303   7.358  19.043  0.00  0.00    +0.000 C 
ATOM      2  C   UNL     1       2.950   7.040  17.910  0.00  0.00    +0.000 C 
ATOM      3  C   UNL     1       3.533   5.719  17.701  0.00  0.00    +0.000 C 
ATOM      4  C   UNL     1       4.681   5.573  17.017  0.00  0.00    +0.000 C 
ATOM      5  C   UNL     1       5.506   6.682  16.414  0.00  0.00    +0.000 C 
ATOM      6  C   UNL     1       5.291   4.227  16.852  0.00  0.00    +0.000 C 
ATOM      7  O   UNL     1       6.375   4.110  16.283  0.00  0.00    +0.000 OA
ATOM      8  C   UNL     1       4.567   2.996  17.333  0.00  0.00    +0.000 C 
ATOM      9  C   UNL     1       3.415   3.192  18.297  0.00  0.00    +0.000 C 
ATOM     10  C   UNL     1       2.746   4.590  18.372  0.00  0.00    +0.000 C 
ATOM     11  C   UNL     1       1.340   4.467  17.727  0.00  0.00    +0.000 C 
ATOM     12  C   UNL     1       2.604   4.961  19.879  0.00  0.00    +0.000 C 
ATOM     13  C   UNL     1       2.116   6.390  20.171  0.00  0.00    +0.000 C 
ENDROOT
BRANCH   1  15
ATOM     14  C   UNL     1       1.785   9.618  17.925  0.00  0.00    +0.000 C 
ATOM     15  C   UNL     1       1.711   8.729  19.138  0.00  0.00    +0.000 C 
ATOM     16  O   UNL     1       1.164   9.110  20.173  0.00  0.00    +0.000 OA
ENDBRANCH   1  15
TORSDOF 1
ENDMDL
MODEL 8
REMARK VINA RESULT:      -6.5      2.282      4.849
REMARK  Name = 
REMARK  4 active torsions:
REMARK  status: ('A' for Active; 'I' for Inactive)
REMARK    1  A    between atoms: C_1  and  C_2
REMARK    2  A    between atoms: C_2  and  C_4
REMARK    3  A    between atoms: C_7  and  C_8
REMARK    4  A    between atoms: C_13  and  C_14
REMARK                            x       y       z     vdW  Elec       q    Type
REMARK                         _______ _______ _______ _____ _____    ______ ____
ROOT
ATOM      1  C   UNL     1       2.215   6.983  19.643  0.00  0.00    +0.000 C 
ATOM      2  C   UNL     1       2.911   6.948  18.494  0.00  0.00    +0.000 C 
ATOM      3  C   UNL     1       3.531   5.721  18.007  0.00  0.00    +0.000 C 
ATOM      4  C   UNL     1       4.707   5.755  17.356  0.00  0.00    +0.000 C 
ATOM      5  C   UNL     1       5.528   6.985  17.062  0.00  0.00    +0.000 C 
ATOM      6  C   UNL     1       5.353   4.493  16.906  0.00  0.00    +0.000 C 
ATOM      7  O   UNL     1       6.460   4.527  16.370  0.00  0.00    +0.000 OA
ATOM      8  C   UNL     1       4.640   3.174  17.056  0.00  0.00    +0.000 C 
ATOM      9  C   UNL     1       3.448   3.123  17.991  0.00  0.00    +0.000 C 
ATOM     10  C   UNL     1       2.745   4.456  18.363  0.00  0.00    +0.000 C 
ATOM     11  C   UNL     1       1.368   4.468  17.649  0.00  0.00    +0.000 C 
ATOM     12  C   UNL     1       2.540   4.461  19.907  0.00  0.00    +0.000 C 
ATOM     13  C   UNL     1       2.010   5.775  20.505  0.00  0.00    +0.000 C 
ENDROOT
BRANCH   1  15
ATOM     14  C   UNL     1       1.179   8.473  21.467  0.00  0.00    +0.000 C 
ATOM     15  C   UNL     1       1.589   8.285  20.031  0.00  0.00    +0.000 C 
ATOM     16  O   UNL     1       1.431   9.182  19.203  0.00  0.00    +0.000 OA
ENDBRANCH   1  15
TORSDOF 1
ENDMDL
MODEL 9
REMARK VINA RESULT:      -6.5      1.900      2.169
REMARK  Name = 
REMARK  4 active torsions:
REMARK  status: ('A' for Active; 'I' for Inactive)
REMARK    1  A    between atoms: C_1  and  C_2
REMARK    2  A    between atoms: C_2  and  C_4
REMARK    3  A    between atoms: C_7  and  C_8
REMARK    4  A    between atoms: C_13  and  C_14
REMARK                            x       y       z     vdW  Elec       q    Type
REMARK                         _______ _______ _______ _____ _____    ______ ____
ROOT
ATOM      1  C   UNL     1       5.837   5.026  18.212  0.00  0.00    +0.000 C 
ATOM      2  C   UNL     1       5.316   3.883  18.688  0.00  0.00    +0.000 C 
ATOM      3  C   UNL     1       3.875   3.676  18.785  0.00  0.00    +0.000 C 
ATOM      4  C   UNL     1       3.347   2.971  19.801  0.00  0.00    +0.000 C 
ATOM      5  C   UNL     1       4.108   2.341  20.939  0.00  0.00    +0.000 C 
ATOM      6  C   UNL     1       1.873   2.807  19.915  0.00  0.00    +0.000 C 
ATOM      7  O   UNL     1       1.394   2.218  20.882  0.00  0.00    +0.000 OA
ATOM      8  C   UNL     1       0.961   3.314  18.827  0.00  0.00    +0.000 C 
ATOM      9  C   UNL     1       1.539   4.299  17.830  0.00  0.00    +0.000 C 
ATOM     10  C   UNL     1       3.081   4.373  17.676  0.00  0.00    +0.000 C 
ATOM     11  C   UNL     1       3.440   3.757  16.299  0.00  0.00    +0.000 C 
ATOM     12  C   UNL     1       3.482   5.879  17.702  0.00  0.00    +0.000 C 
ATOM     13  C   UNL     1       4.992   6.166  17.733  0.00  0.00    +0.000 C 
ENDROOT
BRANCH   1  15
ATOM     14  C   UNL     1       8.041   6.012  19.102  0.00  0.00    +0.000 C 
ATOM     15  C   UNL     1       7.327   5.119  18.122  0.00  0.00    +0.000 C 
ATOM     16  O   UNL     1       7.952   4.471  17.282  0.00  0.00    +0.000 OA
ENDBRANCH   1  15
TORSDOF 1
ENDMDL
