MODEL 1
REMARK VINA RESULT:      -9.6      0.000      0.000
REMARK  Name = 
REMARK  4 active torsions:
REMARK  status: ('A' for Active; 'I' for Inactive)
REMARK    1  A    between atoms: C_2  and  C_13
REMARK    2  A    between atoms: N_3  and  C_4
REMARK    3  A    between atoms: C_18  and  N_19
REMARK    4  A    between atoms: C_20  and  C_22
REMARK                            x       y       z     vdW  Elec       q    Type
REMARK                         _______ _______ _______ _____ _____    ______ ____
ROOT
ATOM      1  C   UNL     1       5.085   5.293  16.821  0.00  0.00    +0.000 A 
ATOM      2  C   UNL     1       5.785   6.061  15.864  0.00  0.00    +0.000 A 
ATOM      3  C   UNL     1       6.383   5.463  14.756  0.00  0.00    +0.000 A 
ATOM      4  C   UNL     1       6.290   4.091  14.590  0.00  0.00    +0.000 A 
ATOM      5  C   UNL     1       5.636   3.315  15.548  0.00  0.00    +0.000 A 
ATOM      6  C   UNL     1       5.063   3.884  16.699  0.00  0.00    +0.000 A 
ENDROOT
BRANCH   1   8
ATOM      7  O   UNL     1       4.880   5.870  19.090  0.00  0.00    +0.000 OA
ATOM      8  C   UNL     1       4.425   6.011  17.960  0.00  0.00    +0.000 C 
ATOM      9  N   UNL     1       3.286   6.733  17.616  0.00  0.00    +0.000 N 
ATOM     10  H   UNL     1       2.860   6.516  16.724  0.00  0.00    +0.000 HD
BRANCH   9  11
ATOM     11  C   UNL     1       2.539   7.602  18.440  0.00  0.00    +0.000 A 
ATOM     12  C   UNL     1       2.242   7.317  19.771  0.00  0.00    +0.000 A 
ATOM     13  C   UNL     1       1.439   8.179  20.535  0.00  0.00    +0.000 A 
ATOM     14  C   UNL     1       0.908   9.339  19.943  0.00  0.00    +0.000 A 
ATOM     15  C   UNL     1       0.016  10.356  20.381  0.00  0.00    +0.000 A 
ATOM     16  C   UNL     1      -0.158  11.238  19.339  0.00  0.00    +0.000 A 
ATOM     17  N   UNL     1       0.623  10.814  18.296  0.00  0.00    +0.000 N 
ATOM     18  C   UNL     1       1.260   9.638  18.628  0.00  0.00    +0.000 A 
ATOM     19  C   UNL     1       2.097   8.808  17.865  0.00  0.00    +0.000 A 
ATOM     20  H   UNL     1       0.691  11.273  17.398  0.00  0.00    +0.000 HD
ENDBRANCH   9  11
ENDBRANCH   1   8
BRANCH   6  21
ATOM     21  N   UNL     1       4.454   3.050  17.685  0.00  0.00    +0.000 N 
ATOM     22  C   UNL     1       3.096   2.767  17.755  0.00  0.00    +0.000 C 
ATOM     23  O   UNL     1       2.282   3.071  16.882  0.00  0.00    +0.000 OA
ATOM     24  H   UNL     1       5.091   2.428  18.186  0.00  0.00    +0.000 HD
BRANCH  22  25
ATOM     25  C   UNL     1       2.650   1.986  19.002  0.00  0.00    +0.000 C 
ATOM     26  C   UNL     1       3.301   2.505  20.290  0.00  0.00    +0.000 C 
ATOM     27  C   UNL     1       2.795   3.896  20.673  0.00  0.00    +0.000 C 
ATOM     28  C   UNL     1       1.277   3.929  20.819  0.00  0.00    +0.000 C 
ATOM     29  C   UNL     1       0.564   3.374  19.590  0.00  0.00    +0.000 C 
ATOM     30  C   UNL     1       1.114   2.009  19.159  0.00  0.00    +0.000 C 
ENDBRANCH  22  25
ENDBRANCH   6  21
TORSDOF 4
ENDMDL
MODEL 2
REMARK VINA RESULT:      -9.4      0.978      1.453
REMARK  Name = 
REMARK  4 active torsions:
REMARK  status: ('A' for Active; 'I' for Inactive)
REMARK    1  A    between atoms: C_2  and  C_13
REMARK    2  A    between atoms: N_3  and  C_4
REMARK    3  A    between atoms: C_18  and  N_19
REMARK    4  A    between atoms: C_20  and  C_22
REMARK                            x       y       z     vdW  Elec       q    Type
REMARK                         _______ _______ _______ _____ _____    ______ ____
ROOT
ATOM      1  C   UNL     1       5.046   5.300  16.760  0.00  0.00    +0.000 A 
ATOM      2  C   UNL     1       5.743   6.054  15.791  0.00  0.00    +0.000 A 
ATOM      3  C   UNL     1       6.368   5.437  14.708  0.00  0.00    +0.000 A 
ATOM      4  C   UNL     1       6.304   4.060  14.581  0.00  0.00    +0.000 A 
ATOM      5  C   UNL     1       5.654   3.298  15.553  0.00  0.00    +0.000 A 
ATOM      6  C   UNL     1       5.053   3.888  16.679  0.00  0.00    +0.000 A 
ENDROOT
BRANCH   1   8
ATOM      7  O   UNL     1       4.782   5.918  19.013  0.00  0.00    +0.000 OA
ATOM      8  C   UNL     1       4.355   6.037  17.870  0.00  0.00    +0.000 C 
ATOM      9  N   UNL     1       3.224   6.749  17.484  0.00  0.00    +0.000 N 
ATOM     10  H   UNL     1       2.820   6.514  16.586  0.00  0.00    +0.000 HD
BRANCH   9  11
ATOM     11  C   UNL     1       2.454   7.631  18.273  0.00  0.00    +0.000 A 
ATOM     12  C   UNL     1       1.859   8.783  17.763  0.00  0.00    +0.000 A 
ATOM     13  C   UNL     1       1.158   9.667  18.599  0.00  0.00    +0.000 A 
ATOM     14  C   UNL     1       1.070   9.397  19.976  0.00  0.00    +0.000 A 
ATOM     15  C   UNL     1       0.530  10.095  21.091  0.00  0.00    +0.000 A 
ATOM     16  C   UNL     1       0.764   9.336  22.215  0.00  0.00    +0.000 A 
ATOM     17  N   UNL     1       1.394   8.186  21.819  0.00  0.00    +0.000 N 
ATOM     18  C   UNL     1       1.622   8.212  20.461  0.00  0.00    +0.000 A 
ATOM     19  C   UNL     1       2.290   7.298  19.630  0.00  0.00    +0.000 A 
ATOM     20  H   UNL     1       1.688   7.443  22.438  0.00  0.00    +0.000 HD
ENDBRANCH   9  11
ENDBRANCH   1   8
BRANCH   6  21
ATOM     21  N   UNL     1       4.448   3.071  17.681  0.00  0.00    +0.000 N 
ATOM     22  C   UNL     1       3.094   2.769  17.746  0.00  0.00    +0.000 C 
ATOM     23  O   UNL     1       2.284   3.037  16.858  0.00  0.00    +0.000 OA
ATOM     24  H   UNL     1       5.090   2.472  18.204  0.00  0.00    +0.000 HD
BRANCH  22  25
ATOM     25  C   UNL     1       2.648   2.014  19.009  0.00  0.00    +0.000 C 
ATOM     26  C   UNL     1       3.305   2.554  20.285  0.00  0.00    +0.000 C 
ATOM     27  C   UNL     1       2.806   3.954  20.643  0.00  0.00    +0.000 C 
ATOM     28  C   UNL     1       1.288   3.996  20.793  0.00  0.00    +0.000 C 
ATOM     29  C   UNL     1       0.570   3.422  19.577  0.00  0.00    +0.000 C 
ATOM     30  C   UNL     1       1.112   2.046  19.170  0.00  0.00    +0.000 C 
ENDBRANCH  22  25
ENDBRANCH   6  21
TORSDOF 4
ENDMDL
MODEL 3
REMARK VINA RESULT:      -8.8      1.241      1.373
REMARK  Name = 
REMARK  4 active torsions:
REMARK  status: ('A' for Active; 'I' for Inactive)
REMARK    1  A    between atoms: C_2  and  C_13
REMARK    2  A    between atoms: N_3  and  C_4
REMARK    3  A    between atoms: C_18  and  N_19
REMARK    4  A    between atoms: C_20  and  C_22
REMARK                            x       y       z     vdW  Elec       q    Type
REMARK                         _______ _______ _______ _____ _____    ______ ____
ROOT
ATOM      1  C   UNL     1       4.246   5.948  17.215  0.00  0.00    +0.000 A 
ATOM      2  C   UNL     1       5.021   6.750  16.349  0.00  0.00    +0.000 A 
ATOM      3  C   UNL     1       5.760   6.186  15.310  0.00  0.00    +0.000 A 
ATOM      4  C   UNL     1       5.734   4.815  15.123  0.00  0.00    +0.000 A 
ATOM      5  C   UNL     1       5.005   4.005  15.996  0.00  0.00    +0.000 A 
ATOM      6  C   UNL     1       4.287   4.540  17.080  0.00  0.00    +0.000 A 
ENDROOT
BRANCH   1   8
ATOM      7  O   UNL     1       3.520   6.224  19.434  0.00  0.00    +0.000 OA
ATOM      8  C   UNL     1       3.438   6.630  18.280  0.00  0.00    +0.000 C 
ATOM      9  N   UNL     1       2.600   7.641  17.820  0.00  0.00    +0.000 N 
ATOM     10  H   UNL     1       2.410   7.660  16.826  0.00  0.00    +0.000 HD
BRANCH   9  11
ATOM     11  C   UNL     1       1.827   8.533  18.595  0.00  0.00    +0.000 A 
ATOM     12  C   UNL     1       1.630   8.374  19.964  0.00  0.00    +0.000 A 
ATOM     13  C   UNL     1       0.799   9.248  20.683  0.00  0.00    +0.000 A 
ATOM     14  C   UNL     1       0.139  10.290  20.007  0.00  0.00    +0.000 A 
ATOM     15  C   UNL     1      -0.811  11.276  20.392  0.00  0.00    +0.000 A 
ATOM     16  C   UNL     1      -1.117  12.021  19.276  0.00  0.00    +0.000 A 
ATOM     17  N   UNL     1      -0.361  11.548  18.236  0.00  0.00    +0.000 N 
ATOM     18  C   UNL     1       0.391  10.470  18.648  0.00  0.00    +0.000 A 
ATOM     19  C   UNL     1       1.253   9.629  17.925  0.00  0.00    +0.000 A 
ATOM     20  H   UNL     1      -0.382  11.909  17.293  0.00  0.00    +0.000 HD
ENDBRANCH   9  11
ENDBRANCH   1   8
BRANCH   6  21
ATOM     21  N   UNL     1       3.602   3.675  17.985  0.00  0.00    +0.000 N 
ATOM     22  C   UNL     1       4.176   3.082  19.102  0.00  0.00    +0.000 C 
ATOM     23  O   UNL     1       5.296   3.359  19.532  0.00  0.00    +0.000 OA
ATOM     24  H   UNL     1       2.582   3.722  17.949  0.00  0.00    +0.000 HD
BRANCH  22  25
ATOM     25  C   UNL     1       3.293   2.055  19.829  0.00  0.00    +0.000 C 
ATOM     26  C   UNL     1       3.006   2.445  21.285  0.00  0.00    +0.000 C 
ATOM     27  C   UNL     1       2.097   3.670  21.386  0.00  0.00    +0.000 C 
ATOM     28  C   UNL     1       0.781   3.465  20.643  0.00  0.00    +0.000 C 
ATOM     29  C   UNL     1       0.992   3.021  19.200  0.00  0.00    +0.000 C 
ATOM     30  C   UNL     1       1.958   1.835  19.086  0.00  0.00    +0.000 C 
ENDBRANCH  22  25
ENDBRANCH   6  21
TORSDOF 4
ENDMDL
MODEL 4
REMARK VINA RESULT:      -8.7      1.585      4.596
REMARK  Name = 
REMARK  4 active torsions:
REMARK  status: ('A' for Active; 'I' for Inactive)
REMARK    1  A    between atoms: C_2  and  C_13
REMARK    2  A    between atoms: N_3  and  C_4
REMARK    3  A    between atoms: C_18  and  N_19
REMARK    4  A    between atoms: C_20  and  C_22
REMARK                            x       y       z     vdW  Elec       q    Type
REMARK                         _______ _______ _______ _____ _____    ______ ____
ROOT
ATOM      1  C   UNL     1       3.081   4.137  19.797  0.00  0.00    +0.000 A 
ATOM      2  C   UNL     1       2.120   3.649  20.709  0.00  0.00    +0.000 A 
ATOM      3  C   UNL     1       2.366   2.514  21.480  0.00  0.00    +0.000 A 
ATOM      4  C   UNL     1       3.575   1.853  21.349  0.00  0.00    +0.000 A 
ATOM      5  C   UNL     1       4.519   2.300  20.422  0.00  0.00    +0.000 A 
ATOM      6  C   UNL     1       4.280   3.414  19.599  0.00  0.00    +0.000 A 
ENDROOT
BRANCH   1   8
ATOM      7  O   UNL     1       2.784   5.362  17.813  0.00  0.00    +0.000 OA
ATOM      8  C   UNL     1       2.766   5.393  19.039  0.00  0.00    +0.000 C 
ATOM      9  N   UNL     1       2.545   6.515  19.831  0.00  0.00    +0.000 N 
ATOM     10  H   UNL     1       2.858   6.465  20.792  0.00  0.00    +0.000 HD
BRANCH   9  11
ATOM     11  C   UNL     1       2.106   7.790  19.411  0.00  0.00    +0.000 A 
ATOM     12  C   UNL     1       2.410   8.322  18.160  0.00  0.00    +0.000 A 
ATOM     13  C   UNL     1       2.010   9.621  17.809  0.00  0.00    +0.000 A 
ATOM     14  C   UNL     1       1.308  10.407  18.741  0.00  0.00    +0.000 A 
ATOM     15  C   UNL     1       0.840  11.749  18.753  0.00  0.00    +0.000 A 
ATOM     16  C   UNL     1       0.233  11.971  19.968  0.00  0.00    +0.000 A 
ATOM     17  N   UNL     1       0.284  10.802  20.681  0.00  0.00    +0.000 N 
ATOM     18  C   UNL     1       0.965   9.840  19.967  0.00  0.00    +0.000 A 
ATOM     19  C   UNL     1       1.321   8.527  20.316  0.00  0.00    +0.000 A 
ATOM     20  H   UNL     1      -0.086  10.674  21.612  0.00  0.00    +0.000 HD
ENDBRANCH   9  11
ENDBRANCH   1   8
BRANCH   6  21
ATOM     21  N   UNL     1       5.246   3.805  18.623  0.00  0.00    +0.000 N 
ATOM     22  C   UNL     1       6.280   4.705  18.848  0.00  0.00    +0.000 C 
ATOM     23  O   UNL     1       6.582   5.147  19.956  0.00  0.00    +0.000 OA
ATOM     24  H   UNL     1       5.328   3.185  17.816  0.00  0.00    +0.000 HD
BRANCH  22  25
ATOM     25  C   UNL     1       7.089   5.102  17.602  0.00  0.00    +0.000 C 
ATOM     26  C   UNL     1       6.620   4.376  16.334  0.00  0.00    +0.000 C 
ATOM     27  C   UNL     1       5.232   4.836  15.887  0.00  0.00    +0.000 C 
ATOM     28  C   UNL     1       5.177   6.343  15.661  0.00  0.00    +0.000 C 
ATOM     29  C   UNL     1       5.682   7.128  16.867  0.00  0.00    +0.000 C 
ATOM     30  C   UNL     1       7.043   6.627  17.364  0.00  0.00    +0.000 C 
ENDBRANCH  22  25
ENDBRANCH   6  21
TORSDOF 4
ENDMDL
MODEL 5
REMARK VINA RESULT:      -8.7      1.641      4.739
REMARK  Name = 
REMARK  4 active torsions:
REMARK  status: ('A' for Active; 'I' for Inactive)
REMARK    1  A    between atoms: C_2  and  C_13
REMARK    2  A    between atoms: N_3  and  C_4
REMARK    3  A    between atoms: C_18  and  N_19
REMARK    4  A    between atoms: C_20  and  C_22
REMARK                            x       y       z     vdW  Elec       q    Type
REMARK                         _______ _______ _______ _____ _____    ______ ____
ROOT
ATOM      1  C   UNL     1       2.293   4.405  19.872  0.00  0.00    +0.000 A 
ATOM      2  C   UNL     1       1.393   4.097  20.914  0.00  0.00    +0.000 A 
ATOM      3  C   UNL     1       1.562   2.959  21.702  0.00  0.00    +0.000 A 
ATOM      4  C   UNL     1       2.632   2.116  21.457  0.00  0.00    +0.000 A 
ATOM      5  C   UNL     1       3.507   2.386  20.403  0.00  0.00    +0.000 A 
ATOM      6  C   UNL     1       3.336   3.501  19.564  0.00  0.00    +0.000 A 
ENDROOT
BRANCH   1   8
ATOM      7  O   UNL     1       1.943   5.607  17.882  0.00  0.00    +0.000 OA
ATOM      8  C   UNL     1       2.076   5.673  19.099  0.00  0.00    +0.000 C 
ATOM      9  N   UNL     1       2.117   6.837  19.861  0.00  0.00    +0.000 N 
ATOM     10  H   UNL     1       2.532   6.766  20.781  0.00  0.00    +0.000 HD
BRANCH   9  11
ATOM     11  C   UNL     1       1.822   8.151  19.437  0.00  0.00    +0.000 A 
ATOM     12  C   UNL     1       2.225   8.659  18.205  0.00  0.00    +0.000 A 
ATOM     13  C   UNL     1       1.968   9.994  17.852  0.00  0.00    +0.000 A 
ATOM     14  C   UNL     1       1.310  10.838  18.764  0.00  0.00    +0.000 A 
ATOM     15  C   UNL     1       0.974  12.219  18.772  0.00  0.00    +0.000 A 
ATOM     16  C   UNL     1       0.344  12.492  19.965  0.00  0.00    +0.000 A 
ATOM     17  N   UNL     1       0.253  11.318  20.667  0.00  0.00    +0.000 N 
ATOM     18  C   UNL     1       0.864  10.299  19.970  0.00  0.00    +0.000 A 
ATOM     19  C   UNL     1       1.076   8.955  20.319  0.00  0.00    +0.000 A 
ATOM     20  H   UNL     1      -0.165  11.221  21.582  0.00  0.00    +0.000 HD
ENDBRANCH   9  11
ENDBRANCH   1   8
BRANCH   6  21
ATOM     21  N   UNL     1       4.218   3.711  18.461  0.00  0.00    +0.000 N 
ATOM     22  C   UNL     1       5.506   4.222  18.562  0.00  0.00    +0.000 C 
ATOM     23  O   UNL     1       6.095   4.401  19.628  0.00  0.00    +0.000 OA
ATOM     24  H   UNL     1       3.977   3.208  17.605  0.00  0.00    +0.000 HD
BRANCH  22  25
ATOM     25  C   UNL     1       6.202   4.520  17.225  0.00  0.00    +0.000 C 
ATOM     26  C   UNL     1       5.418   5.512  16.356  0.00  0.00    +0.000 C 
ATOM     27  C   UNL     1       5.410   6.920  16.952  0.00  0.00    +0.000 C 
ATOM     28  C   UNL     1       6.822   7.449  17.182  0.00  0.00    +0.000 C 
ATOM     29  C   UNL     1       7.677   6.484  17.996  0.00  0.00    +0.000 C 
ATOM     30  C   UNL     1       7.635   5.054  17.443  0.00  0.00    +0.000 C 
ENDBRANCH  22  25
ENDBRANCH   6  21
TORSDOF 4
ENDMDL
MODEL 6
REMARK VINA RESULT:      -8.7      2.018      5.010
REMARK  Name = 
REMARK  4 active torsions:
REMARK  status: ('A' for Active; 'I' for Inactive)
REMARK    1  A    between atoms: C_2  and  C_13
REMARK    2  A    between atoms: N_3  and  C_4
REMARK    3  A    between atoms: C_18  and  N_19
REMARK    4  A    between atoms: C_20  and  C_22
REMARK                            x       y       z     vdW  Elec       q    Type
REMARK                         _______ _______ _______ _____ _____    ______ ____
ROOT
ATOM      1  C   UNL     1       2.328   5.125  20.138  0.00  0.00    +0.000 A 
ATOM      2  C   UNL     1       1.559   4.398  21.072  0.00  0.00    +0.000 A 
ATOM      3  C   UNL     1       1.859   3.071  21.377  0.00  0.00    +0.000 A 
ATOM      4  C   UNL     1       2.930   2.455  20.752  0.00  0.00    +0.000 A 
ATOM      5  C   UNL     1       3.674   3.149  19.796  0.00  0.00    +0.000 A 
ATOM      6  C   UNL     1       3.367   4.472  19.435  0.00  0.00    +0.000 A 
ENDROOT
BRANCH   1   8
ATOM      7  O   UNL     1       2.216   7.055  18.800  0.00  0.00    +0.000 OA
ATOM      8  C   UNL     1       1.976   6.564  19.898  0.00  0.00    +0.000 C 
ATOM      9  N   UNL     1       1.460   7.232  21.003  0.00  0.00    +0.000 N 
ATOM     10  H   UNL     1       1.602   6.799  21.907  0.00  0.00    +0.000 HD
BRANCH   9  11
ATOM     11  C   UNL     1       0.926   8.539  21.045  0.00  0.00    +0.000 A 
ATOM     12  C   UNL     1       1.219   9.509  20.088  0.00  0.00    +0.000 A 
ATOM     13  C   UNL     1       0.719  10.816  20.205  0.00  0.00    +0.000 A 
ATOM     14  C   UNL     1      -0.074  11.158  21.315  0.00  0.00    +0.000 A 
ATOM     15  C   UNL     1      -0.657  12.368  21.781  0.00  0.00    +0.000 A 
ATOM     16  C   UNL     1      -1.316  12.091  22.957  0.00  0.00    +0.000 A 
ATOM     17  N   UNL     1      -1.185  10.750  23.204  0.00  0.00    +0.000 N 
ATOM     18  C   UNL     1      -0.404  10.162  22.233  0.00  0.00    +0.000 A 
ATOM     19  C   UNL     1       0.054   8.841  22.106  0.00  0.00    +0.000 A 
ATOM     20  H   UNL     1      -1.570  10.267  24.003  0.00  0.00    +0.000 HD
ENDBRANCH   9  11
ENDBRANCH   1   8
BRANCH   6  21
ATOM     21  N   UNL     1       4.114   5.128  18.410  0.00  0.00    +0.000 N 
ATOM     22  C   UNL     1       5.385   5.664  18.576  0.00  0.00    +0.000 C 
ATOM     23  O   UNL     1       6.080   5.494  19.578  0.00  0.00    +0.000 OA
ATOM     24  H   UNL     1       3.800   4.947  17.455  0.00  0.00    +0.000 HD
BRANCH  22  25
ATOM     25  C   UNL     1       5.919   6.472  17.382  0.00  0.00    +0.000 C 
ATOM     26  C   UNL     1       7.386   6.155  17.060  0.00  0.00    +0.000 C 
ATOM     27  C   UNL     1       7.562   4.743  16.503  0.00  0.00    +0.000 C 
ATOM     28  C   UNL     1       6.706   4.509  15.263  0.00  0.00    +0.000 C 
ATOM     29  C   UNL     1       5.239   4.857  15.497  0.00  0.00    +0.000 C 
ATOM     30  C   UNL     1       5.059   6.246  16.120  0.00  0.00    +0.000 C 
ENDBRANCH  22  25
ENDBRANCH   6  21
TORSDOF 4
ENDMDL
MODEL 7
REMARK VINA RESULT:      -8.6      1.446      2.046
REMARK  Name = 
REMARK  4 active torsions:
REMARK  status: ('A' for Active; 'I' for Inactive)
REMARK    1  A    between atoms: C_2  and  C_13
REMARK    2  A    between atoms: N_3  and  C_4
REMARK    3  A    between atoms: C_18  and  N_19
REMARK    4  A    between atoms: C_20  and  C_22
REMARK                            x       y       z     vdW  Elec       q    Type
REMARK                         _______ _______ _______ _____ _____    ______ ____
ROOT
ATOM      1  C   UNL     1       4.111   6.139  17.328  0.00  0.00    +0.000 A 
ATOM      2  C   UNL     1       4.857   7.013  16.508  0.00  0.00    +0.000 A 
ATOM      3  C   UNL     1       5.648   6.529  15.467  0.00  0.00    +0.000 A 
ATOM      4  C   UNL     1       5.704   5.165  15.234  0.00  0.00    +0.000 A 
ATOM      5  C   UNL     1       5.004   4.286  16.062  0.00  0.00    +0.000 A 
ATOM      6  C   UNL     1       4.234   4.742  17.146  0.00  0.00    +0.000 A 
ENDROOT
BRANCH   1   8
ATOM      7  O   UNL     1       3.226   6.213  19.505  0.00  0.00    +0.000 OA
ATOM      8  C   UNL     1       3.242   6.737  18.396  0.00  0.00    +0.000 C 
ATOM      9  N   UNL     1       2.470   7.818  17.985  0.00  0.00    +0.000 N 
ATOM     10  H   UNL     1       2.356   7.945  16.987  0.00  0.00    +0.000 HD
BRANCH   9  11
ATOM     11  C   UNL     1       1.665   8.653  18.790  0.00  0.00    +0.000 A 
ATOM     12  C   UNL     1       1.066   9.817  18.313  0.00  0.00    +0.000 A 
ATOM     13  C   UNL     1       0.328  10.654  19.166  0.00  0.00    +0.000 A 
ATOM     14  C   UNL     1       0.208  10.323  20.528  0.00  0.00    +0.000 A 
ATOM     15  C   UNL     1      -0.373  10.964  21.656  0.00  0.00    +0.000 A 
ATOM     16  C   UNL     1      -0.157  10.162  22.753  0.00  0.00    +0.000 A 
ATOM     17  N   UNL     1       0.502   9.039  22.326  0.00  0.00    +0.000 N 
ATOM     18  C   UNL     1       0.766   9.127  20.976  0.00  0.00    +0.000 A 
ATOM     19  C   UNL     1       1.470   8.260  20.126  0.00  0.00    +0.000 A 
ATOM     20  H   UNL     1       0.791   8.275  22.921  0.00  0.00    +0.000 HD
ENDBRANCH   9  11
ENDBRANCH   1   8
BRANCH   6  21
ATOM     21  N   UNL     1       3.581   3.808  18.006  0.00  0.00    +0.000 N 
ATOM     22  C   UNL     1       4.179   3.172  19.086  0.00  0.00    +0.000 C 
ATOM     23  O   UNL     1       5.293   3.458  19.525  0.00  0.00    +0.000 OA
ATOM     24  H   UNL     1       2.559   3.827  17.978  0.00  0.00    +0.000 HD
BRANCH  22  25
ATOM     25  C   UNL     1       3.331   2.081  19.760  0.00  0.00    +0.000 C 
ATOM     26  C   UNL     1       3.096   2.350  21.252  0.00  0.00    +0.000 C 
ATOM     27  C   UNL     1       2.182   3.553  21.484  0.00  0.00    +0.000 C 
ATOM     28  C   UNL     1       0.840   3.395  20.776  0.00  0.00    +0.000 C 
ATOM     29  C   UNL     1       1.002   3.071  19.294  0.00  0.00    +0.000 C 
ATOM     30  C   UNL     1       1.971   1.908  19.050  0.00  0.00    +0.000 C 
ENDBRANCH  22  25
ENDBRANCH   6  21
TORSDOF 4
ENDMDL
MODEL 8
REMARK VINA RESULT:      -8.5      1.288      1.792
REMARK  Name = 
REMARK  4 active torsions:
REMARK  status: ('A' for Active; 'I' for Inactive)
REMARK    1  A    between atoms: C_2  and  C_13
REMARK    2  A    between atoms: N_3  and  C_4
REMARK    3  A    between atoms: C_18  and  N_19
REMARK    4  A    between atoms: C_20  and  C_22
REMARK                            x       y       z     vdW  Elec       q    Type
REMARK                         _______ _______ _______ _____ _____    ______ ____
ROOT
ATOM      1  C   UNL     1       4.399   5.615  17.295  0.00  0.00    +0.000 A 
ATOM      2  C   UNL     1       5.302   6.389  16.533  0.00  0.00    +0.000 A 
ATOM      3  C   UNL     1       6.017   5.830  15.474  0.00  0.00    +0.000 A 
ATOM      4  C   UNL     1       5.838   4.492  15.164  0.00  0.00    +0.000 A 
ATOM      5  C   UNL     1       4.980   3.706  15.935  0.00  0.00    +0.000 A 
ATOM      6  C   UNL     1       4.281   4.230  17.036  0.00  0.00    +0.000 A 
ENDROOT
BRANCH   1   8
ATOM      7  O   UNL     1       3.839   5.971  19.550  0.00  0.00    +0.000 OA
ATOM      8  C   UNL     1       3.629   6.297  18.387  0.00  0.00    +0.000 C 
ATOM      9  N   UNL     1       2.676   7.211  17.948  0.00  0.00    +0.000 N 
ATOM     10  H   UNL     1       2.402   7.154  16.975  0.00  0.00    +0.000 HD
BRANCH   9  11
ATOM     11  C   UNL     1       1.899   8.087  18.737  0.00  0.00    +0.000 A 
ATOM     12  C   UNL     1       1.270   9.217  18.220  0.00  0.00    +0.000 A 
ATOM     13  C   UNL     1       0.562  10.098  19.054  0.00  0.00    +0.000 A 
ATOM     14  C   UNL     1       0.503   9.847  20.436  0.00  0.00    +0.000 A 
ATOM     15  C   UNL     1      -0.034  10.550  21.549  0.00  0.00    +0.000 A 
ATOM     16  C   UNL     1       0.236   9.815  22.680  0.00  0.00    +0.000 A 
ATOM     17  N   UNL     1       0.886   8.673  22.292  0.00  0.00    +0.000 N 
ATOM     18  C   UNL     1       1.091   8.683  20.929  0.00  0.00    +0.000 A 
ATOM     19  C   UNL     1       1.765   7.771  20.101  0.00  0.00    +0.000 A 
ATOM     20  H   UNL     1       1.207   7.947  22.917  0.00  0.00    +0.000 HD
ENDBRANCH   9  11
ENDBRANCH   1   8
BRANCH   6  21
ATOM     21  N   UNL     1       3.458   3.380  17.835  0.00  0.00    +0.000 N 
ATOM     22  C   UNL     1       2.069   3.391  17.831  0.00  0.00    +0.000 C 
ATOM     23  O   UNL     1       1.385   4.020  17.023  0.00  0.00    +0.000 OA
ATOM     24  H   UNL     1       3.921   2.553  18.215  0.00  0.00    +0.000 HD
BRANCH  22  25
ATOM     25  C   UNL     1       1.401   2.508  18.898  0.00  0.00    +0.000 C 
ATOM     26  C   UNL     1       2.417   1.753  19.764  0.00  0.00    +0.000 C 
ATOM     27  C   UNL     1       3.207   2.692  20.676  0.00  0.00    +0.000 C 
ATOM     28  C   UNL     1       2.291   3.521  21.571  0.00  0.00    +0.000 C 
ATOM     29  C   UNL     1       1.218   4.258  20.776  0.00  0.00    +0.000 C 
ATOM     30  C   UNL     1       0.467   3.335  19.808  0.00  0.00    +0.000 C 
ENDBRANCH  22  25
ENDBRANCH   6  21
TORSDOF 4
ENDMDL
MODEL 9
REMARK VINA RESULT:      -8.5      1.414      1.780
REMARK  Name = 
REMARK  4 active torsions:
REMARK  status: ('A' for Active; 'I' for Inactive)
REMARK    1  A    between atoms: C_2  and  C_13
REMARK    2  A    between atoms: N_3  and  C_4
REMARK    3  A    between atoms: C_18  and  N_19
REMARK    4  A    between atoms: C_20  and  C_22
REMARK                            x       y       z     vdW  Elec       q    Type
REMARK                         _______ _______ _______ _____ _____    ______ ____
ROOT
ATOM      1  C   UNL     1       4.634   5.716  17.245  0.00  0.00    +0.000 A 
ATOM      2  C   UNL     1       5.359   6.459  16.287  0.00  0.00    +0.000 A 
ATOM      3  C   UNL     1       6.579   6.003  15.791  0.00  0.00    +0.000 A 
ATOM      4  C   UNL     1       7.090   4.799  16.245  0.00  0.00    +0.000 A 
ATOM      5  C   UNL     1       6.404   4.073  17.220  0.00  0.00    +0.000 A 
ATOM      6  C   UNL     1       5.195   4.530  17.773  0.00  0.00    +0.000 A 
ENDROOT
BRANCH   1   8
ATOM      7  O   UNL     1       2.333   5.498  17.673  0.00  0.00    +0.000 OA
ATOM      8  C   UNL     1       3.304   6.246  17.695  0.00  0.00    +0.000 C 
ATOM      9  N   UNL     1       3.298   7.594  18.038  0.00  0.00    +0.000 N 
ATOM     10  H   UNL     1       4.082   8.150  17.722  0.00  0.00    +0.000 HD
BRANCH   9  11
ATOM     11  C   UNL     1       2.237   8.328  18.613  0.00  0.00    +0.000 A 
ATOM     12  C   UNL     1       1.494   9.269  17.904  0.00  0.00    +0.000 A 
ATOM     13  C   UNL     1       0.492  10.024  18.534  0.00  0.00    +0.000 A 
ATOM     14  C   UNL     1       0.247   9.844  19.907  0.00  0.00    +0.000 A 
ATOM     15  C   UNL     1      -0.604  10.477  20.853  0.00  0.00    +0.000 A 
ATOM     16  C   UNL     1      -0.392   9.880  22.075  0.00  0.00    +0.000 A 
ATOM     17  N   UNL     1       0.530   8.882  21.897  0.00  0.00    +0.000 N 
ATOM     18  C   UNL     1       0.961   8.860  20.589  0.00  0.00    +0.000 A 
ATOM     19  C   UNL     1       1.936   8.067  19.962  0.00  0.00    +0.000 A 
ATOM     20  H   UNL     1       0.877   8.276  22.628  0.00  0.00    +0.000 HD
ENDBRANCH   9  11
ENDBRANCH   1   8
BRANCH   6  21
ATOM     21  N   UNL     1       4.554   3.789  18.811  0.00  0.00    +0.000 N 
ATOM     22  C   UNL     1       3.708   2.706  18.605  0.00  0.00    +0.000 C 
ATOM     23  O   UNL     1       3.539   2.160  17.515  0.00  0.00    +0.000 OA
ATOM     24  H   UNL     1       4.959   3.899  19.742  0.00  0.00    +0.000 HD
BRANCH  22  25
ATOM     25  C   UNL     1       3.001   2.176  19.863  0.00  0.00    +0.000 C 
ATOM     26  C   UNL     1       3.106   3.138  21.053  0.00  0.00    +0.000 C 
ATOM     27  C   UNL     1       2.297   4.417  20.833  0.00  0.00    +0.000 C 
ATOM     28  C   UNL     1       0.829   4.119  20.545  0.00  0.00    +0.000 C 
ATOM     29  C   UNL     1       0.652   3.123  19.404  0.00  0.00    +0.000 C 
ATOM     30  C   UNL     1       1.514   1.867  19.584  0.00  0.00    +0.000 C 
ENDBRANCH  22  25
ENDBRANCH   6  21
TORSDOF 4
ENDMDL
