MODEL 1
REMARK VINA RESULT:      -9.3      0.000      0.000
REMARK  Name = 
REMARK  5 active torsions:
REMARK  status: ('A' for Active; 'I' for Inactive)
REMARK    1  A    between atoms: C_1  and  C_2
REMARK    2  A    between atoms: N_4  and  C_5
REMARK    3  A    between atoms: C_9  and  C_10
REMARK    4  A    between atoms: C_13  and  C_14
REMARK    5  A    between atoms: C_17  and  O_18
REMARK                            x       y       z     vdW  Elec       q    Type
REMARK                         _______ _______ _______ _____ _____    ______ ____
ROOT
ATOM      1  C   UNL     1       2.197   6.549  19.743  0.00  0.00    +0.000 A 
ATOM      2  C   UNL     1       3.100   5.969  18.922  0.00  0.00    +0.000 A 
ATOM      3  N   UNL     1       3.530   4.676  19.186  0.00  0.00    +0.000 N 
ATOM      4  C   UNL     1       4.469   3.847  18.595  0.00  0.00    +0.000 A 
ATOM      5  C   UNL     1       4.342   2.661  19.310  0.00  0.00    +0.000 A 
ATOM      6  N   UNL     1       3.421   2.758  20.326  0.00  0.00    +0.000 NA
ATOM      7  C   UNL     1       2.971   3.985  20.227  0.00  0.00    +0.000 A 
ATOM      8  C   UNL     1       1.989   4.645  21.039  0.00  0.00    +0.000 A 
ATOM      9  N   UNL     1       1.617   5.878  20.816  0.00  0.00    +0.000 NA
ENDROOT
BRANCH   1  14
ATOM     10  C   UNL     1       0.481   9.926  20.132  0.00  0.00    +0.000 A 
ATOM     11  C   UNL     1       0.909  10.575  18.973  0.00  0.00    +0.000 A 
ATOM     12  C   UNL     1       1.775   9.944  18.083  0.00  0.00    +0.000 A 
ATOM     13  C   UNL     1       2.207   8.644  18.338  0.00  0.00    +0.000 A 
ATOM     14  C   UNL     1       1.778   7.954  19.483  0.00  0.00    +0.000 A 
ATOM     15  C   UNL     1       0.945   8.627  20.394  0.00  0.00    +0.000 A 
BRANCH  10  19
ATOM     16  C   UNL     1      -1.418  11.155  23.151  0.00  0.00    +0.000 C 
ATOM     17  C   UNL     1      -0.267  10.492  22.440  0.00  0.00    +0.000 C 
ATOM     18  O   UNL     1       0.660  10.005  23.081  0.00  0.00    +0.000 OA
ATOM     19  N   UNL     1      -0.400  10.519  21.062  0.00  0.00    +0.000 N 
ATOM     20  H   UNL     1      -1.136  11.099  20.678  0.00  0.00    +0.000 HD
ENDBRANCH  10  19
ENDBRANCH   1  14
BRANCH   4  21
ATOM     21  C   UNL     1       5.345   4.186  17.468  0.00  0.00    +0.000 A 
ATOM     22  C   UNL     1       6.679   4.579  17.664  0.00  0.00    +0.000 A 
ATOM     23  C   UNL     1       7.487   4.960  16.590  0.00  0.00    +0.000 A 
ATOM     24  C   UNL     1       6.975   4.906  15.300  0.00  0.00    +0.000 A 
ATOM     25  C   UNL     1       5.679   4.463  15.073  0.00  0.00    +0.000 A 
ATOM     26  C   UNL     1       4.866   4.107  16.153  0.00  0.00    +0.000 A 
BRANCH  24  27
ATOM     27  O   UNL     1       7.722   5.277  14.223  0.00  0.00    +0.000 OA
ATOM     28  H   UNL     1       7.151   5.300  13.438  0.00  0.00    +0.000 HD
ENDBRANCH  24  27
ENDBRANCH   4  21
TORSDOF 4
ENDMDL
MODEL 2
REMARK VINA RESULT:      -8.6      0.967      1.307
REMARK  Name = 
REMARK  5 active torsions:
REMARK  status: ('A' for Active; 'I' for Inactive)
REMARK    1  A    between atoms: C_1  and  C_2
REMARK    2  A    between atoms: N_4  and  C_5
REMARK    3  A    between atoms: C_9  and  C_10
REMARK    4  A    between atoms: C_13  and  C_14
REMARK    5  A    between atoms: C_17  and  O_18
REMARK                            x       y       z     vdW  Elec       q    Type
REMARK                         _______ _______ _______ _____ _____    ______ ____
ROOT
ATOM      1  C   UNL     1       2.202   6.686  19.540  0.00  0.00    +0.000 A 
ATOM      2  C   UNL     1       3.067   6.127  18.664  0.00  0.00    +0.000 A 
ATOM      3  N   UNL     1       3.433   4.799  18.821  0.00  0.00    +0.000 N 
ATOM      4  C   UNL     1       4.323   3.972  18.154  0.00  0.00    +0.000 A 
ATOM      5  C   UNL     1       4.143   2.742  18.777  0.00  0.00    +0.000 A 
ATOM      6  N   UNL     1       3.237   2.805  19.810  0.00  0.00    +0.000 NA
ATOM      7  C   UNL     1       2.850   4.057  19.812  0.00  0.00    +0.000 A 
ATOM      8  C   UNL     1       1.910   4.698  20.687  0.00  0.00    +0.000 A 
ATOM      9  N   UNL     1       1.599   5.962  20.565  0.00  0.00    +0.000 NA
ENDROOT
BRANCH   1  14
ATOM     10  C   UNL     1       0.919  10.178  20.349  0.00  0.00    +0.000 A 
ATOM     11  C   UNL     1       1.109  10.821  19.125  0.00  0.00    +0.000 A 
ATOM     12  C   UNL     1       1.680  10.144  18.049  0.00  0.00    +0.000 A 
ATOM     13  C   UNL     1       2.051   8.808  18.184  0.00  0.00    +0.000 A 
ATOM     14  C   UNL     1       1.853   8.126  19.396  0.00  0.00    +0.000 A 
ATOM     15  C   UNL     1       1.322   8.840  20.485  0.00  0.00    +0.000 A 
BRANCH  10  19
ATOM     16  C   UNL     1      -1.129  12.180  22.804  0.00  0.00    +0.000 C 
ATOM     17  C   UNL     1      -0.822  11.571  21.461  0.00  0.00    +0.000 C 
ATOM     18  O   UNL     1      -1.570  11.764  20.507  0.00  0.00    +0.000 OA
ATOM     19  N   UNL     1       0.340  10.817  21.467  0.00  0.00    +0.000 N 
ATOM     20  H   UNL     1       0.759  10.618  22.366  0.00  0.00    +0.000 HD
ENDBRANCH  10  19
ENDBRANCH   1  14
BRANCH   4  21
ATOM     21  C   UNL     1       5.205   4.354  17.046  0.00  0.00    +0.000 A 
ATOM     22  C   UNL     1       5.065   3.793  15.767  0.00  0.00    +0.000 A 
ATOM     23  C   UNL     1       5.950   4.116  14.734  0.00  0.00    +0.000 A 
ATOM     24  C   UNL     1       6.957   5.043  14.965  0.00  0.00    +0.000 A 
ATOM     25  C   UNL     1       7.080   5.659  16.203  0.00  0.00    +0.000 A 
ATOM     26  C   UNL     1       6.209   5.313  17.241  0.00  0.00    +0.000 A 
BRANCH  24  27
ATOM     27  O   UNL     1       7.848   5.381  13.991  0.00  0.00    +0.000 OA
ATOM     28  H   UNL     1       7.787   4.732  13.271  0.00  0.00    +0.000 HD
ENDBRANCH  24  27
ENDBRANCH   4  21
TORSDOF 4
ENDMDL
MODEL 3
REMARK VINA RESULT:      -8.2      4.174      6.336
REMARK  Name = 
REMARK  5 active torsions:
REMARK  status: ('A' for Active; 'I' for Inactive)
REMARK    1  A    between atoms: C_1  and  C_2
REMARK    2  A    between atoms: N_4  and  C_5
REMARK    3  A    between atoms: C_9  and  C_10
REMARK    4  A    between atoms: C_13  and  C_14
REMARK    5  A    between atoms: C_17  and  O_18
REMARK                            x       y       z     vdW  Elec       q    Type
REMARK                         _______ _______ _______ _____ _____    ______ ____
ROOT
ATOM      1  C   UNL     1      -1.356  10.539  19.326  0.00  0.00    +0.000 A 
ATOM      2  C   UNL     1      -0.512   9.489  19.433  0.00  0.00    +0.000 A 
ATOM      3  N   UNL     1       0.322   9.392  20.537  0.00  0.00    +0.000 N 
ATOM      4  C   UNL     1       1.319   8.502  20.902  0.00  0.00    +0.000 A 
ATOM      5  C   UNL     1       1.695   8.944  22.165  0.00  0.00    +0.000 A 
ATOM      6  N   UNL     1       1.015  10.076  22.548  0.00  0.00    +0.000 NA
ATOM      7  C   UNL     1       0.216  10.320  21.537  0.00  0.00    +0.000 A 
ATOM      8  C   UNL     1      -0.725  11.391  21.383  0.00  0.00    +0.000 A 
ATOM      9  N   UNL     1      -1.480  11.506  20.321  0.00  0.00    +0.000 NA
ENDROOT
BRANCH   1  14
ATOM     10  C   UNL     1      -4.177  11.607  17.004  0.00  0.00    +0.000 A 
ATOM     11  C   UNL     1      -3.885  10.853  15.867  0.00  0.00    +0.000 A 
ATOM     12  C   UNL     1      -2.763  10.026  15.832  0.00  0.00    +0.000 A 
ATOM     13  C   UNL     1      -1.932   9.934  16.946  0.00  0.00    +0.000 A 
ATOM     14  C   UNL     1      -2.210  10.664  18.114  0.00  0.00    +0.000 A 
ATOM     15  C   UNL     1      -3.318  11.529  18.112  0.00  0.00    +0.000 A 
BRANCH  10  19
ATOM     16  C   UNL     1      -7.554  13.218  17.488  0.00  0.00    +0.000 C 
ATOM     17  C   UNL     1      -6.542  12.109  17.608  0.00  0.00    +0.000 C 
ATOM     18  O   UNL     1      -6.852  11.040  18.125  0.00  0.00    +0.000 OA
ATOM     19  N   UNL     1      -5.304  12.454  17.093  0.00  0.00    +0.000 N 
ATOM     20  H   UNL     1      -5.157  13.425  16.849  0.00  0.00    +0.000 HD
ENDBRANCH  10  19
ENDBRANCH   1  14
BRANCH   4  21
ATOM     21  C   UNL     1       1.806   7.367  20.110  0.00  0.00    +0.000 A 
ATOM     22  C   UNL     1       2.407   7.548  18.854  0.00  0.00    +0.000 A 
ATOM     23  C   UNL     1       2.810   6.456  18.080  0.00  0.00    +0.000 A 
ATOM     24  C   UNL     1       2.655   5.171  18.583  0.00  0.00    +0.000 A 
ATOM     25  C   UNL     1       2.120   4.967  19.847  0.00  0.00    +0.000 A 
ATOM     26  C   UNL     1       1.694   6.060  20.608  0.00  0.00    +0.000 A 
BRANCH  24  27
ATOM     27  O   UNL     1       3.025   4.076  17.860  0.00  0.00    +0.000 OA
ATOM     28  H   UNL     1       3.437   4.372  17.032  0.00  0.00    +0.000 HD
ENDBRANCH  24  27
ENDBRANCH   4  21
TORSDOF 4
ENDMDL
MODEL 4
REMARK VINA RESULT:      -8.0      2.360      8.085
REMARK  Name = 
REMARK  5 active torsions:
REMARK  status: ('A' for Active; 'I' for Inactive)
REMARK    1  A    between atoms: C_1  and  C_2
REMARK    2  A    between atoms: N_4  and  C_5
REMARK    3  A    between atoms: C_9  and  C_10
REMARK    4  A    between atoms: C_13  and  C_14
REMARK    5  A    between atoms: C_17  and  O_18
REMARK                            x       y       z     vdW  Elec       q    Type
REMARK                         _______ _______ _______ _____ _____    ______ ____
ROOT
ATOM      1  C   UNL     1       4.654   4.525  17.495  0.00  0.00    +0.000 A 
ATOM      2  C   UNL     1       3.953   5.564  17.999  0.00  0.00    +0.000 A 
ATOM      3  N   UNL     1       3.104   5.357  19.076  0.00  0.00    +0.000 N 
ATOM      4  C   UNL     1       2.221   6.174  19.763  0.00  0.00    +0.000 A 
ATOM      5  C   UNL     1       1.749   5.351  20.779  0.00  0.00    +0.000 A 
ATOM      6  N   UNL     1       2.260   4.077  20.701  0.00  0.00    +0.000 NA
ATOM      7  C   UNL     1       3.053   4.119  19.658  0.00  0.00    +0.000 A 
ATOM      8  C   UNL     1       3.850   3.065  19.100  0.00  0.00    +0.000 A 
ATOM      9  N   UNL     1       4.617   3.251  18.057  0.00  0.00    +0.000 NA
ENDROOT
BRANCH   1  14
ATOM     10  C   UNL     1       6.379   3.980  14.145  0.00  0.00    +0.000 A 
ATOM     11  C   UNL     1       7.219   5.093  14.095  0.00  0.00    +0.000 A 
ATOM     12  C   UNL     1       7.209   6.037  15.120  0.00  0.00    +0.000 A 
ATOM     13  C   UNL     1       6.367   5.864  16.216  0.00  0.00    +0.000 A 
ATOM     14  C   UNL     1       5.525   4.744  16.307  0.00  0.00    +0.000 A 
ATOM     15  C   UNL     1       5.514   3.829  15.240  0.00  0.00    +0.000 A 
BRANCH  10  19
ATOM     16  C   UNL     1       5.638   1.683  11.245  0.00  0.00    +0.000 C 
ATOM     17  C   UNL     1       5.429   2.897  12.111  0.00  0.00    +0.000 C 
ATOM     18  O   UNL     1       4.515   3.680  11.871  0.00  0.00    +0.000 OA
ATOM     19  N   UNL     1       6.356   2.991  13.136  0.00  0.00    +0.000 N 
ATOM     20  H   UNL     1       7.146   2.360  13.107  0.00  0.00    +0.000 HD
ENDBRANCH  10  19
ENDBRANCH   1  14
BRANCH   4  21
ATOM     21  C   UNL     1       1.915   7.576  19.459  0.00  0.00    +0.000 A 
ATOM     22  C   UNL     1       1.327   8.425  20.411  0.00  0.00    +0.000 A 
ATOM     23  C   UNL     1       0.981   9.741  20.092  0.00  0.00    +0.000 A 
ATOM     24  C   UNL     1       1.264  10.231  18.824  0.00  0.00    +0.000 A 
ATOM     25  C   UNL     1       1.899   9.432  17.883  0.00  0.00    +0.000 A 
ATOM     26  C   UNL     1       2.221   8.108  18.198  0.00  0.00    +0.000 A 
BRANCH  24  27
ATOM     27  O   UNL     1       0.936  11.504  18.464  0.00  0.00    +0.000 OA
ATOM     28  H   UNL     1       0.884  11.552  17.496  0.00  0.00    +0.000 HD
ENDBRANCH  24  27
ENDBRANCH   4  21
TORSDOF 4
ENDMDL
MODEL 5
REMARK VINA RESULT:      -8.0      3.712      8.351
REMARK  Name = 
REMARK  5 active torsions:
REMARK  status: ('A' for Active; 'I' for Inactive)
REMARK    1  A    between atoms: C_1  and  C_2
REMARK    2  A    between atoms: N_4  and  C_5
REMARK    3  A    between atoms: C_9  and  C_10
REMARK    4  A    between atoms: C_13  and  C_14
REMARK    5  A    between atoms: C_17  and  O_18
REMARK                            x       y       z     vdW  Elec       q    Type
REMARK                         _______ _______ _______ _____ _____    ______ ____
ROOT
ATOM      1  C   UNL     1       0.953   9.219  19.878  0.00  0.00    +0.000 A 
ATOM      2  C   UNL     1      -0.032   9.689  19.081  0.00  0.00    +0.000 A 
ATOM      3  N   UNL     1      -0.865  10.696  19.546  0.00  0.00    +0.000 N 
ATOM      4  C   UNL     1      -1.977  11.331  19.016  0.00  0.00    +0.000 A 
ATOM      5  C   UNL     1      -2.280  12.293  19.973  0.00  0.00    +0.000 A 
ATOM      6  N   UNL     1      -1.444  12.229  21.063  0.00  0.00    +0.000 NA
ATOM      7  C   UNL     1      -0.624  11.249  20.773  0.00  0.00    +0.000 A 
ATOM      8  C   UNL     1       0.460  10.731  21.558  0.00  0.00    +0.000 A 
ATOM      9  N   UNL     1       1.218   9.753  21.137  0.00  0.00    +0.000 NA
ENDROOT
BRANCH   1  14
ATOM     10  C   UNL     1       2.743   5.863  19.711  0.00  0.00    +0.000 A 
ATOM     11  C   UNL     1       3.486   6.017  18.540  0.00  0.00    +0.000 A 
ATOM     12  C   UNL     1       3.388   7.184  17.785  0.00  0.00    +0.000 A 
ATOM     13  C   UNL     1       2.555   8.218  18.207  0.00  0.00    +0.000 A 
ATOM     14  C   UNL     1       1.810   8.103  19.393  0.00  0.00    +0.000 A 
ATOM     15  C   UNL     1       1.885   6.899  20.114  0.00  0.00    +0.000 A 
BRANCH  10  19
ATOM     16  C   UNL     1       2.188   2.650  21.608  0.00  0.00    +0.000 C 
ATOM     17  C   UNL     1       1.844   3.716  20.601  0.00  0.00    +0.000 C 
ATOM     18  O   UNL     1       0.801   3.650  19.959  0.00  0.00    +0.000 OA
ATOM     19  N   UNL     1       2.811   4.704  20.515  0.00  0.00    +0.000 N 
ATOM     20  H   UNL     1       3.690   4.536  20.988  0.00  0.00    +0.000 HD
ENDBRANCH  10  19
ENDBRANCH   1  14
BRANCH   4  21
ATOM     21  C   UNL     1      -2.624  11.031  17.735  0.00  0.00    +0.000 A 
ATOM     22  C   UNL     1      -3.910  11.507  17.429  0.00  0.00    +0.000 A 
ATOM     23  C   UNL     1      -4.543  11.164  16.232  0.00  0.00    +0.000 A 
ATOM     24  C   UNL     1      -3.872  10.375  15.308  0.00  0.00    +0.000 A 
ATOM     25  C   UNL     1      -2.577   9.941  15.558  0.00  0.00    +0.000 A 
ATOM     26  C   UNL     1      -1.956  10.265  16.769  0.00  0.00    +0.000 A 
BRANCH  24  27
ATOM     27  O   UNL     1      -4.454  10.007  14.132  0.00  0.00    +0.000 OA
ATOM     28  H   UNL     1      -3.922   9.302  13.727  0.00  0.00    +0.000 HD
ENDBRANCH  24  27
ENDBRANCH   4  21
TORSDOF 4
ENDMDL
MODEL 6
REMARK VINA RESULT:      -7.7      3.572      8.743
REMARK  Name = 
REMARK  5 active torsions:
REMARK  status: ('A' for Active; 'I' for Inactive)
REMARK    1  A    between atoms: C_1  and  C_2
REMARK    2  A    between atoms: N_4  and  C_5
REMARK    3  A    between atoms: C_9  and  C_10
REMARK    4  A    between atoms: C_13  and  C_14
REMARK    5  A    between atoms: C_17  and  O_18
REMARK                            x       y       z     vdW  Elec       q    Type
REMARK                         _______ _______ _______ _____ _____    ______ ____
ROOT
ATOM      1  C   UNL     1       0.522   9.699  21.185  0.00  0.00    +0.000 A 
ATOM      2  C   UNL     1       0.676  11.016  20.922  0.00  0.00    +0.000 A 
ATOM      3  N   UNL     1      -0.010  11.949  21.686  0.00  0.00    +0.000 N 
ATOM      4  C   UNL     1      -0.117  13.329  21.631  0.00  0.00    +0.000 A 
ATOM      5  C   UNL     1      -0.902  13.632  22.739  0.00  0.00    +0.000 A 
ATOM      6  N   UNL     1      -1.309  12.506  23.415  0.00  0.00    +0.000 NA
ATOM      7  C   UNL     1      -0.767  11.521  22.742  0.00  0.00    +0.000 A 
ATOM      8  C   UNL     1      -0.862  10.111  22.992  0.00  0.00    +0.000 A 
ATOM      9  N   UNL     1      -0.250   9.230  22.245  0.00  0.00    +0.000 NA
ENDROOT
BRANCH   1  14
ATOM     10  C   UNL     1       2.265   6.503  20.070  0.00  0.00    +0.000 A 
ATOM     11  C   UNL     1       2.611   6.833  18.759  0.00  0.00    +0.000 A 
ATOM     12  C   UNL     1       2.256   8.068  18.221  0.00  0.00    +0.000 A 
ATOM     13  C   UNL     1       1.565   8.993  18.999  0.00  0.00    +0.000 A 
ATOM     14  C   UNL     1       1.220   8.701  20.329  0.00  0.00    +0.000 A 
ATOM     15  C   UNL     1       1.544   7.431  20.838  0.00  0.00    +0.000 A 
BRANCH  10  19
ATOM     16  C   UNL     1       2.432   3.013  21.492  0.00  0.00    +0.000 C 
ATOM     17  C   UNL     1       1.802   4.142  20.720  0.00  0.00    +0.000 C 
ATOM     18  O   UNL     1       0.692   4.006  20.217  0.00  0.00    +0.000 OA
ATOM     19  N   UNL     1       2.607   5.269  20.665  0.00  0.00    +0.000 N 
ATOM     20  H   UNL     1       3.561   5.173  20.987  0.00  0.00    +0.000 HD
ENDBRANCH  10  19
ENDBRANCH   1  14
BRANCH   4  21
ATOM     21  C   UNL     1       0.492  14.212  20.630  0.00  0.00    +0.000 A 
ATOM     22  C   UNL     1       1.873  14.465  20.615  0.00  0.00    +0.000 A 
ATOM     23  C   UNL     1       2.436  15.357  19.698  0.00  0.00    +0.000 A 
ATOM     24  C   UNL     1       1.620  15.969  18.755  0.00  0.00    +0.000 A 
ATOM     25  C   UNL     1       0.262  15.690  18.710  0.00  0.00    +0.000 A 
ATOM     26  C   UNL     1      -0.302  14.817  19.646  0.00  0.00    +0.000 A 
BRANCH  24  27
ATOM     27  O   UNL     1       2.123  16.853  17.848  0.00  0.00    +0.000 OA
ATOM     28  H   UNL     1       2.809  16.408  17.325  0.00  0.00    +0.000 HD
ENDBRANCH  24  27
ENDBRANCH   4  21
TORSDOF 4
ENDMDL
MODEL 7
REMARK VINA RESULT:      -7.4      5.270     11.766
REMARK  Name = 
REMARK  5 active torsions:
REMARK  status: ('A' for Active; 'I' for Inactive)
REMARK    1  A    between atoms: C_1  and  C_2
REMARK    2  A    between atoms: N_4  and  C_5
REMARK    3  A    between atoms: C_9  and  C_10
REMARK    4  A    between atoms: C_13  and  C_14
REMARK    5  A    between atoms: C_17  and  O_18
REMARK                            x       y       z     vdW  Elec       q    Type
REMARK                         _______ _______ _______ _____ _____    ______ ____
ROOT
ATOM      1  C   UNL     1      -3.035  11.664  18.816  0.00  0.00    +0.000 A 
ATOM      2  C   UNL     1      -4.101  11.890  19.616  0.00  0.00    +0.000 A 
ATOM      3  N   UNL     1      -5.353  12.079  19.048  0.00  0.00    +0.000 N 
ATOM      4  C   UNL     1      -6.597  12.388  19.571  0.00  0.00    +0.000 A 
ATOM      5  C   UNL     1      -7.429  12.353  18.457  0.00  0.00    +0.000 A 
ATOM      6  N   UNL     1      -6.739  12.094  17.297  0.00  0.00    +0.000 NA
ATOM      7  C   UNL     1      -5.498  11.953  17.694  0.00  0.00    +0.000 A 
ATOM      8  C   UNL     1      -4.334  11.676  16.902  0.00  0.00    +0.000 A 
ATOM      9  N   UNL     1      -3.147  11.541  17.434  0.00  0.00    +0.000 NA
ENDROOT
BRANCH   1  14
ATOM     10  C   UNL     1       0.361  10.208  19.733  0.00  0.00    +0.000 A 
ATOM     11  C   UNL     1       0.825  11.166  20.636  0.00  0.00    +0.000 A 
ATOM     12  C   UNL     1       0.064  12.296  20.925  0.00  0.00    +0.000 A 
ATOM     13  C   UNL     1      -1.181  12.469  20.325  0.00  0.00    +0.000 A 
ATOM     14  C   UNL     1      -1.687  11.513  19.429  0.00  0.00    +0.000 A 
ATOM     15  C   UNL     1      -0.882  10.405  19.112  0.00  0.00    +0.000 A 
BRANCH  10  19
ATOM     16  C   UNL     1       2.476   7.483  18.207  0.00  0.00    +0.000 C 
ATOM     17  C   UNL     1       1.899   8.871  18.299  0.00  0.00    +0.000 C 
ATOM     18  O   UNL     1       2.164   9.711  17.445  0.00  0.00    +0.000 OA
ATOM     19  N   UNL     1       1.090   9.042  19.411  0.00  0.00    +0.000 N 
ATOM     20  H   UNL     1       1.098   8.309  20.108  0.00  0.00    +0.000 HD
ENDBRANCH  10  19
ENDBRANCH   1  14
BRANCH   4  21
ATOM     21  C   UNL     1      -6.910  12.656  20.979  0.00  0.00    +0.000 A 
ATOM     22  C   UNL     1      -7.566  11.710  21.782  0.00  0.00    +0.000 A 
ATOM     23  C   UNL     1      -7.915  11.999  23.105  0.00  0.00    +0.000 A 
ATOM     24  C   UNL     1      -7.566  13.228  23.647  0.00  0.00    +0.000 A 
ATOM     25  C   UNL     1      -6.864  14.159  22.894  0.00  0.00    +0.000 A 
ATOM     26  C   UNL     1      -6.539  13.876  21.564  0.00  0.00    +0.000 A 
BRANCH  24  27
ATOM     27  O   UNL     1      -7.895  13.558  24.928  0.00  0.00    +0.000 OA
ATOM     28  H   UNL     1      -8.604  12.968  25.231  0.00  0.00    +0.000 HD
ENDBRANCH  24  27
ENDBRANCH   4  21
TORSDOF 4
ENDMDL
MODEL 8
REMARK VINA RESULT:      -7.3      3.330      8.731
REMARK  Name = 
REMARK  5 active torsions:
REMARK  status: ('A' for Active; 'I' for Inactive)
REMARK    1  A    between atoms: C_1  and  C_2
REMARK    2  A    between atoms: N_4  and  C_5
REMARK    3  A    between atoms: C_9  and  C_10
REMARK    4  A    between atoms: C_13  and  C_14
REMARK    5  A    between atoms: C_17  and  O_18
REMARK                            x       y       z     vdW  Elec       q    Type
REMARK                         _______ _______ _______ _____ _____    ______ ____
ROOT
ATOM      1  C   UNL     1       0.766   9.343  20.807  0.00  0.00    +0.000 A 
ATOM      2  C   UNL     1       0.774  10.688  20.678  0.00  0.00    +0.000 A 
ATOM      3  N   UNL     1       0.027  11.462  21.554  0.00  0.00    +0.000 N 
ATOM      4  C   UNL     1      -0.224  12.821  21.646  0.00  0.00    +0.000 A 
ATOM      5  C   UNL     1      -0.991  12.927  22.801  0.00  0.00    +0.000 A 
ATOM      6  N   UNL     1      -1.255  11.702  23.368  0.00  0.00    +0.000 NA
ATOM      7  C   UNL     1      -0.641  10.853  22.581  0.00  0.00    +0.000 A 
ATOM      8  C   UNL     1      -0.581   9.423  22.686  0.00  0.00    +0.000 A 
ATOM      9  N   UNL     1       0.088   8.691  21.834  0.00  0.00    +0.000 NA
ENDROOT
BRANCH   1  14
ATOM     10  C   UNL     1       2.768   6.471  19.311  0.00  0.00    +0.000 A 
ATOM     11  C   UNL     1       3.042   6.973  18.039  0.00  0.00    +0.000 A 
ATOM     12  C   UNL     1       2.557   8.219  17.647  0.00  0.00    +0.000 A 
ATOM     13  C   UNL     1       1.805   8.983  18.536  0.00  0.00    +0.000 A 
ATOM     14  C   UNL     1       1.529   8.516  19.832  0.00  0.00    +0.000 A 
ATOM     15  C   UNL     1       1.986   7.236  20.191  0.00  0.00    +0.000 A 
BRANCH  10  19
ATOM     16  C   UNL     1       3.371   2.850  20.180  0.00  0.00    +0.000 C 
ATOM     17  C   UNL     1       2.664   3.988  19.492  0.00  0.00    +0.000 C 
ATOM     18  O   UNL     1       1.686   3.772  18.782  0.00  0.00    +0.000 OA
ATOM     19  N   UNL     1       3.242   5.218  19.759  0.00  0.00    +0.000 N 
ATOM     20  H   UNL     1       4.138   5.217  20.229  0.00  0.00    +0.000 HD
ENDBRANCH  10  19
ENDBRANCH   1  14
BRANCH   4  21
ATOM     21  C   UNL     1       0.253  13.860  20.727  0.00  0.00    +0.000 A 
ATOM     22  C   UNL     1      -0.557  14.356  19.692  0.00  0.00    +0.000 A 
ATOM     23  C   UNL     1      -0.072  15.300  18.782  0.00  0.00    +0.000 A 
ATOM     24  C   UNL     1       1.219  15.789  18.932  0.00  0.00    +0.000 A 
ATOM     25  C   UNL     1       2.020  15.361  19.981  0.00  0.00    +0.000 A 
ATOM     26  C   UNL     1       1.540  14.397  20.874  0.00  0.00    +0.000 A 
BRANCH  24  27
ATOM     27  O   UNL     1       1.738  16.702  18.063  0.00  0.00    +0.000 OA
ATOM     28  H   UNL     1       1.321  17.564  18.230  0.00  0.00    +0.000 HD
ENDBRANCH  24  27
ENDBRANCH   4  21
TORSDOF 4
ENDMDL
MODEL 9
REMARK VINA RESULT:      -7.3      3.168      4.930
REMARK  Name = 
REMARK  5 active torsions:
REMARK  status: ('A' for Active; 'I' for Inactive)
REMARK    1  A    between atoms: C_1  and  C_2
REMARK    2  A    between atoms: N_4  and  C_5
REMARK    3  A    between atoms: C_9  and  C_10
REMARK    4  A    between atoms: C_13  and  C_14
REMARK    5  A    between atoms: C_17  and  O_18
REMARK                            x       y       z     vdW  Elec       q    Type
REMARK                         _______ _______ _______ _____ _____    ______ ____
ROOT
ATOM      1  C   UNL     1       1.146   9.367  19.918  0.00  0.00    +0.000 A 
ATOM      2  C   UNL     1       1.663   8.122  20.018  0.00  0.00    +0.000 A 
ATOM      3  N   UNL     1       2.387   7.597  18.958  0.00  0.00    +0.000 N 
ATOM      4  C   UNL     1       2.974   6.363  18.725  0.00  0.00    +0.000 A 
ATOM      5  C   UNL     1       3.605   6.537  17.498  0.00  0.00    +0.000 A 
ATOM      6  N   UNL     1       3.380   7.785  16.966  0.00  0.00    +0.000 NA
ATOM      7  C   UNL     1       2.634   8.380  17.864  0.00  0.00    +0.000 A 
ATOM      8  C   UNL     1       2.089   9.707  17.833  0.00  0.00    +0.000 A 
ATOM      9  N   UNL     1       1.369  10.186  18.814  0.00  0.00    +0.000 NA
ENDROOT
BRANCH   1  14
ATOM     10  C   UNL     1      -0.863  11.774  22.077  0.00  0.00    +0.000 A 
ATOM     11  C   UNL     1      -1.152  10.966  23.177  0.00  0.00    +0.000 A 
ATOM     12  C   UNL     1      -0.732   9.638  23.212  0.00  0.00    +0.000 A 
ATOM     13  C   UNL     1      -0.000   9.112  22.151  0.00  0.00    +0.000 A 
ATOM     14  C   UNL     1       0.326   9.905  21.038  0.00  0.00    +0.000 A 
ATOM     15  C   UNL     1      -0.150  11.227  20.999  0.00  0.00    +0.000 A 
BRANCH  10  19
ATOM     16  C   UNL     1      -1.193  15.532  22.111  0.00  0.00    +0.000 C 
ATOM     17  C   UNL     1      -0.444  14.228  22.195  0.00  0.00    +0.000 C 
ATOM     18  O   UNL     1       0.762  14.219  22.418  0.00  0.00    +0.000 OA
ATOM     19  N   UNL     1      -1.260  13.127  21.995  0.00  0.00    +0.000 N 
ATOM     20  H   UNL     1      -2.200  13.301  21.661  0.00  0.00    +0.000 HD
ENDBRANCH  10  19
ENDBRANCH   1  14
BRANCH   4  21
ATOM     21  C   UNL     1       2.927   5.194  19.610  0.00  0.00    +0.000 A 
ATOM     22  C   UNL     1       3.810   4.114  19.452  0.00  0.00    +0.000 A 
ATOM     23  C   UNL     1       3.716   2.977  20.260  0.00  0.00    +0.000 A 
ATOM     24  C   UNL     1       2.761   2.935  21.267  0.00  0.00    +0.000 A 
ATOM     25  C   UNL     1       1.915   4.014  21.484  0.00  0.00    +0.000 A 
ATOM     26  C   UNL     1       1.995   5.139  20.657  0.00  0.00    +0.000 A 
BRANCH  24  27
ATOM     27  O   UNL     1       2.626   1.844  22.072  0.00  0.00    +0.000 OA
ATOM     28  H   UNL     1       2.811   1.046  21.551  0.00  0.00    +0.000 HD
ENDBRANCH  24  27
ENDBRANCH   4  21
TORSDOF 4
ENDMDL
