MODEL 1
REMARK VINA RESULT:      -6.9      0.000      0.000
REMARK  Name = 
REMARK  16 active torsions:
REMARK  status: ('A' for Active; 'I' for Inactive)
REMARK    1  A    between atoms: C_1  and  O_2
REMARK    2  A    between atoms: O_2  and  C_3
REMARK    3  A    between atoms: C_6  and  C_7
REMARK    4  A    between atoms: C_7  and  N_8
REMARK    5  A    between atoms: C_9  and  C_11
REMARK    6  A    between atoms: C_11  and  N_12
REMARK    7  A    between atoms: C_11  and  C_29
REMARK    8  A    between atoms: C_13  and  C_15
REMARK    9  A    between atoms: C_19  and  C_21
REMARK   10  A    between atoms: C_21  and  N_22
REMARK   11  A    between atoms: C_21  and  C_23
REMARK   12  A    between atoms: C_23  and  C_24
REMARK   13  A    between atoms: C_24  and  S_25
REMARK   14  A    between atoms: S_25  and  C_26
REMARK   15  A    between atoms: C_29  and  C_30
REMARK   16  A    between atoms: C_29  and  C_31
REMARK                            x       y       z     vdW  Elec       q    Type
REMARK                         _______ _______ _______ _____ _____    ______ ____
ROOT
ATOM      1  N   UNL     1       4.597   4.944  17.747  0.00  0.00    +0.000 N 
ATOM      2  C   UNL     1       3.915   4.055  18.539  0.00  0.00    +0.000 C 
ATOM      3  O   UNL     1       4.455   3.085  19.068  0.00  0.00    +0.000 OA
ATOM      4  H   UNL     1       4.094   5.682  17.254  0.00  0.00    +0.000 HD
ENDROOT
BRANCH   2   5
ATOM      5  C   UNL     1       2.427   4.378  18.708  0.00  0.00    +0.000 C 
ATOM      6  C   UNL     1       2.038   5.621  17.901  0.00  0.00    +0.000 C 
ATOM      7  C   UNL     1       2.550   6.895  18.564  0.00  0.00    +0.000 C 
ATOM      8  N   UNL     1       2.030   7.007  19.925  0.00  0.00    +0.000 N 
ATOM      9  C   UNL     1       1.541   8.245  20.337  0.00  0.00    +0.000 C 
ATOM     10  O   UNL     1       1.528   9.219  19.578  0.00  0.00    +0.000 OA
ATOM     11  C   UNL     1       2.348   5.882  20.807  0.00  0.00    +0.000 C 
ATOM     12  C   UNL     1       1.998   4.534  20.176  0.00  0.00    +0.000 C 
BRANCH   9  13
ATOM     13  C   UNL     1       1.024   8.393  21.793  0.00  0.00    +0.000 C 
BRANCH  13  14
ATOM     14  N   UNL     1       1.966   9.242  22.551  0.00  0.00    +0.000 NA
ATOM     15  H   UNL     1       2.070   8.841  23.487  0.00  0.00    +0.000 HD
ATOM     16  H   UNL     1       1.558  10.164  22.697  0.00  0.00    +0.000 HD
ENDBRANCH  13  14
BRANCH  13  17
ATOM     17  C   UNL     1      -0.370   9.042  21.827  0.00  0.00    +0.000 C 
BRANCH  17  18
ATOM     18  C   UNL     1      -0.589   9.832  23.121  0.00  0.00    +0.000 C 
BRANCH  18  19
ATOM     19  S   UNL     1      -1.289  11.466  22.732  0.00  0.00    +0.000 S 
ATOM     20  C   UNL     1      -0.710  11.613  21.027  0.00  0.00    +0.000 C 
ENDBRANCH  18  19
ENDBRANCH  17  18
ENDBRANCH  13  17
ENDBRANCH   9  13
ENDBRANCH   2   5
BRANCH   1  21
ATOM     21  C   UNL     1       6.026   4.827  17.417  0.00  0.00    +0.000 C 
BRANCH  21  23
ATOM     22  N   UNL     1       7.615   6.601  18.106  0.00  0.00    +0.000 N 
ATOM     23  C   UNL     1       6.825   5.551  18.532  0.00  0.00    +0.000 C 
ATOM     24  O   UNL     1       6.710   5.235  19.716  0.00  0.00    +0.000 OA
ATOM     25  H   UNL     1       7.844   6.672  17.122  0.00  0.00    +0.000 HD
BRANCH  22  26
ATOM     26  C   UNL     1       8.428   7.360  19.037  0.00  0.00    +0.000 C 
BRANCH  26  30
ATOM     27  C   UNL     1       8.695  11.554  17.962  0.00  0.00    +0.000 A 
ATOM     28  C   UNL     1       7.850  10.692  17.265  0.00  0.00    +0.000 A 
ATOM     29  C   UNL     1       7.776   9.337  17.607  0.00  0.00    +0.000 A 
ATOM     30  C   UNL     1       8.566   8.811  18.638  0.00  0.00    +0.000 A 
ATOM     31  C   UNL     1       9.425   9.681  19.327  0.00  0.00    +0.000 A 
ATOM     32  C   UNL     1       9.490  11.043  18.990  0.00  0.00    +0.000 A 
BRANCH  27  34
ATOM     33  C   UNL     1       9.816  13.639  17.906  0.00  0.00    +0.000 C 
ATOM     34  O   UNL     1       8.688  12.853  17.536  0.00  0.00    +0.000 OA
ENDBRANCH  27  34
ENDBRANCH  26  30
ENDBRANCH  22  26
ENDBRANCH  21  23
BRANCH  21  35
ATOM     35  C   UNL     1       6.310   5.405  16.007  0.00  0.00    +0.000 C 
ATOM     36  C   UNL     1       6.529   4.307  14.957  0.00  0.00    +0.000 C 
ATOM     37  C   UNL     1       5.220   6.359  15.512  0.00  0.00    +0.000 C 
ENDBRANCH  21  35
ENDBRANCH   1  21
TORSDOF 12
ENDMDL
MODEL 2
REMARK VINA RESULT:      -6.4      3.824      5.997
REMARK  Name = 
REMARK  16 active torsions:
REMARK  status: ('A' for Active; 'I' for Inactive)
REMARK    1  A    between atoms: C_1  and  O_2
REMARK    2  A    between atoms: O_2  and  C_3
REMARK    3  A    between atoms: C_6  and  C_7
REMARK    4  A    between atoms: C_7  and  N_8
REMARK    5  A    between atoms: C_9  and  C_11
REMARK    6  A    between atoms: C_11  and  N_12
REMARK    7  A    between atoms: C_11  and  C_29
REMARK    8  A    between atoms: C_13  and  C_15
REMARK    9  A    between atoms: C_19  and  C_21
REMARK   10  A    between atoms: C_21  and  N_22
REMARK   11  A    between atoms: C_21  and  C_23
REMARK   12  A    between atoms: C_23  and  C_24
REMARK   13  A    between atoms: C_24  and  S_25
REMARK   14  A    between atoms: S_25  and  C_26
REMARK   15  A    between atoms: C_29  and  C_30
REMARK   16  A    between atoms: C_29  and  C_31
REMARK                            x       y       z     vdW  Elec       q    Type
REMARK                         _______ _______ _______ _____ _____    ______ ____
ROOT
ATOM      1  N   UNL     1       2.471   6.744  19.918  0.00  0.00    +0.000 N 
ATOM      2  C   UNL     1       1.542   7.625  20.414  0.00  0.00    +0.000 C 
ATOM      3  O   UNL     1       0.568   7.263  21.072  0.00  0.00    +0.000 OA
ATOM      4  H   UNL     1       3.213   7.076  19.302  0.00  0.00    +0.000 HD
ENDROOT
BRANCH   2   5
ATOM      5  C   UNL     1       1.827   9.092  20.080  0.00  0.00    +0.000 C 
ATOM      6  C   UNL     1       1.211  10.026  21.127  0.00  0.00    +0.000 C 
ATOM      7  C   UNL     1      -0.301  10.120  20.965  0.00  0.00    +0.000 C 
ATOM      8  N   UNL     1      -0.644  10.589  19.624  0.00  0.00    +0.000 N 
ATOM      9  C   UNL     1      -1.628  11.569  19.507  0.00  0.00    +0.000 C 
ATOM     10  O   UNL     1      -2.187  12.044  20.499  0.00  0.00    +0.000 OA
ATOM     11  C   UNL     1      -0.124   9.769  18.527  0.00  0.00    +0.000 C 
ATOM     12  C   UNL     1       1.374   9.496  18.667  0.00  0.00    +0.000 C 
BRANCH   9  13
ATOM     13  C   UNL     1      -2.034  12.048  18.088  0.00  0.00    +0.000 C 
BRANCH  13  14
ATOM     14  N   UNL     1      -0.887  12.749  17.473  0.00  0.00    +0.000 NA
ATOM     15  H   UNL     1      -0.153  12.058  17.294  0.00  0.00    +0.000 HD
ATOM     16  H   UNL     1      -0.485  13.403  18.142  0.00  0.00    +0.000 HD
ENDBRANCH  13  14
BRANCH  13  17
ATOM     17  C   UNL     1      -2.432  10.863  17.191  0.00  0.00    +0.000 C 
BRANCH  17  18
ATOM     18  C   UNL     1      -3.755  10.238  17.644  0.00  0.00    +0.000 C 
BRANCH  18  19
ATOM     19  S   UNL     1      -5.119  11.406  17.350  0.00  0.00    +0.000 S 
ATOM     20  C   UNL     1      -5.579  11.728  19.067  0.00  0.00    +0.000 C 
ENDBRANCH  18  19
ENDBRANCH  17  18
ENDBRANCH  13  17
ENDBRANCH   9  13
ENDBRANCH   2   5
BRANCH   1  21
ATOM     21  C   UNL     1       2.397   5.285  20.086  0.00  0.00    +0.000 C 
BRANCH  21  23
ATOM     22  N   UNL     1       4.711   5.596  19.252  0.00  0.00    +0.000 N 
ATOM     23  C   UNL     1       3.810   4.709  19.807  0.00  0.00    +0.000 C 
ATOM     24  O   UNL     1       4.108   3.555  20.117  0.00  0.00    +0.000 OA
ATOM     25  H   UNL     1       4.360   6.441  18.819  0.00  0.00    +0.000 HD
BRANCH  22  26
ATOM     26  C   UNL     1       6.065   5.191  18.925  0.00  0.00    +0.000 C 
BRANCH  26  30
ATOM     27  C   UNL     1       6.408   4.238  14.707  0.00  0.00    +0.000 A 
ATOM     28  C   UNL     1       5.483   3.578  15.514  0.00  0.00    +0.000 A 
ATOM     29  C   UNL     1       5.383   3.880  16.877  0.00  0.00    +0.000 A 
ATOM     30  C   UNL     1       6.227   4.831  17.466  0.00  0.00    +0.000 A 
ATOM     31  C   UNL     1       7.166   5.483  16.652  0.00  0.00    +0.000 A 
ATOM     32  C   UNL     1       7.257   5.186  15.282  0.00  0.00    +0.000 A 
BRANCH  27  34
ATOM     33  C   UNL     1       5.143   3.667  12.789  0.00  0.00    +0.000 C 
ATOM     34  O   UNL     1       6.418   3.856  13.395  0.00  0.00    +0.000 OA
ENDBRANCH  27  34
ENDBRANCH  26  30
ENDBRANCH  22  26
ENDBRANCH  21  23
BRANCH  21  35
ATOM     35  C   UNL     1       1.312   4.683  19.156  0.00  0.00    +0.000 C 
ATOM     36  C   UNL     1       1.815   4.488  17.720  0.00  0.00    +0.000 C 
ATOM     37  C   UNL     1       0.740   3.359  19.670  0.00  0.00    +0.000 C 
ENDBRANCH  21  35
ENDBRANCH   1  21
TORSDOF 12
ENDMDL
MODEL 3
REMARK VINA RESULT:      -6.3      3.750      5.831
REMARK  Name = 
REMARK  16 active torsions:
REMARK  status: ('A' for Active; 'I' for Inactive)
REMARK    1  A    between atoms: C_1  and  O_2
REMARK    2  A    between atoms: O_2  and  C_3
REMARK    3  A    between atoms: C_6  and  C_7
REMARK    4  A    between atoms: C_7  and  N_8
REMARK    5  A    between atoms: C_9  and  C_11
REMARK    6  A    between atoms: C_11  and  N_12
REMARK    7  A    between atoms: C_11  and  C_29
REMARK    8  A    between atoms: C_13  and  C_15
REMARK    9  A    between atoms: C_19  and  C_21
REMARK   10  A    between atoms: C_21  and  N_22
REMARK   11  A    between atoms: C_21  and  C_23
REMARK   12  A    between atoms: C_23  and  C_24
REMARK   13  A    between atoms: C_24  and  S_25
REMARK   14  A    between atoms: S_25  and  C_26
REMARK   15  A    between atoms: C_29  and  C_30
REMARK   16  A    between atoms: C_29  and  C_31
REMARK                            x       y       z     vdW  Elec       q    Type
REMARK                         _______ _______ _______ _____ _____    ______ ____
ROOT
ATOM      1  N   UNL     1       2.405   6.315  20.237  0.00  0.00    +0.000 N 
ATOM      2  C   UNL     1       1.449   7.184  20.702  0.00  0.00    +0.000 C 
ATOM      3  O   UNL     1       0.382   6.805  21.180  0.00  0.00    +0.000 OA
ATOM      4  H   UNL     1       3.236   6.672  19.765  0.00  0.00    +0.000 HD
ENDROOT
BRANCH   2   5
ATOM      5  C   UNL     1       1.830   8.662  20.574  0.00  0.00    +0.000 C 
ATOM      6  C   UNL     1       1.577   9.411  21.886  0.00  0.00    +0.000 C 
ATOM      7  C   UNL     1       0.089   9.654  22.109  0.00  0.00    +0.000 C 
ATOM      8  N   UNL     1      -0.479  10.407  20.993  0.00  0.00    +0.000 N 
ATOM      9  C   UNL     1      -1.338  11.464  21.289  0.00  0.00    +0.000 C 
ATOM     10  O   UNL     1      -1.604  11.772  22.454  0.00  0.00    +0.000 OA
ATOM     11  C   UNL     1      -0.316   9.786  19.677  0.00  0.00    +0.000 C 
ATOM     12  C   UNL     1       1.132   9.375  19.405  0.00  0.00    +0.000 C 
BRANCH   9  13
ATOM     13  C   UNL     1      -1.983  12.247  20.116  0.00  0.00    +0.000 C 
BRANCH  13  14
ATOM     14  N   UNL     1      -3.331  12.694  20.523  0.00  0.00    +0.000 NA
ATOM     15  H   UNL     1      -3.649  13.395  19.847  0.00  0.00    +0.000 HD
ATOM     16  H   UNL     1      -3.277  13.186  21.414  0.00  0.00    +0.000 HD
ENDBRANCH  13  14
BRANCH  13  17
ATOM     17  C   UNL     1      -1.142  13.479  19.737  0.00  0.00    +0.000 C 
BRANCH  17  18
ATOM     18  C   UNL     1      -0.412  13.272  18.407  0.00  0.00    +0.000 C 
BRANCH  18  19
ATOM     19  S   UNL     1       1.383  13.196  18.698  0.00  0.00    +0.000 S 
ATOM     20  C   UNL     1       1.720  14.968  18.796  0.00  0.00    +0.000 C 
ENDBRANCH  18  19
ENDBRANCH  17  18
ENDBRANCH  13  17
ENDBRANCH   9  13
ENDBRANCH   2   5
BRANCH   1  21
ATOM     21  C   UNL     1       2.255   4.851  20.228  0.00  0.00    +0.000 C 
BRANCH  21  23
ATOM     22  N   UNL     1       4.585   5.114  19.424  0.00  0.00    +0.000 N 
ATOM     23  C   UNL     1       3.651   4.239  19.944  0.00  0.00    +0.000 C 
ATOM     24  O   UNL     1       3.910   3.067  20.221  0.00  0.00    +0.000 OA
ATOM     25  H   UNL     1       4.265   5.982  19.014  0.00  0.00    +0.000 HD
BRANCH  22  26
ATOM     26  C   UNL     1       5.929   4.676  19.096  0.00  0.00    +0.000 C 
BRANCH  26  30
ATOM     27  C   UNL     1       6.529   4.573  14.801  0.00  0.00    +0.000 A 
ATOM     28  C   UNL     1       5.324   4.154  15.362  0.00  0.00    +0.000 A 
ATOM     29  C   UNL     1       5.138   4.178  16.749  0.00  0.00    +0.000 A 
ATOM     30  C   UNL     1       6.166   4.597  17.605  0.00  0.00    +0.000 A 
ATOM     31  C   UNL     1       7.382   5.005  17.035  0.00  0.00    +0.000 A 
ATOM     32  C   UNL     1       7.563   4.990  15.642  0.00  0.00    +0.000 A 
BRANCH  27  34
ATOM     33  C   UNL     1       5.840   3.458  12.829  0.00  0.00    +0.000 C 
ATOM     34  O   UNL     1       6.596   4.501  13.437  0.00  0.00    +0.000 OA
ENDBRANCH  27  34
ENDBRANCH  26  30
ENDBRANCH  22  26
ENDBRANCH  21  23
BRANCH  21  35
ATOM     35  C   UNL     1       1.190   4.418  19.190  0.00  0.00    +0.000 C 
ATOM     36  C   UNL     1       1.696   4.537  17.746  0.00  0.00    +0.000 C 
ATOM     37  C   UNL     1       0.663   2.998  19.417  0.00  0.00    +0.000 C 
ENDBRANCH  21  35
ENDBRANCH   1  21
TORSDOF 12
ENDMDL
MODEL 4
REMARK VINA RESULT:      -6.2      3.713      6.254
REMARK  Name = 
REMARK  16 active torsions:
REMARK  status: ('A' for Active; 'I' for Inactive)
REMARK    1  A    between atoms: C_1  and  O_2
REMARK    2  A    between atoms: O_2  and  C_3
REMARK    3  A    between atoms: C_6  and  C_7
REMARK    4  A    between atoms: C_7  and  N_8
REMARK    5  A    between atoms: C_9  and  C_11
REMARK    6  A    between atoms: C_11  and  N_12
REMARK    7  A    between atoms: C_11  and  C_29
REMARK    8  A    between atoms: C_13  and  C_15
REMARK    9  A    between atoms: C_19  and  C_21
REMARK   10  A    between atoms: C_21  and  N_22
REMARK   11  A    between atoms: C_21  and  C_23
REMARK   12  A    between atoms: C_23  and  C_24
REMARK   13  A    between atoms: C_24  and  S_25
REMARK   14  A    between atoms: S_25  and  C_26
REMARK   15  A    between atoms: C_29  and  C_30
REMARK   16  A    between atoms: C_29  and  C_31
REMARK                            x       y       z     vdW  Elec       q    Type
REMARK                         _______ _______ _______ _____ _____    ______ ____
ROOT
ATOM      1  N   UNL     1       1.973   7.040  18.977  0.00  0.00    +0.000 N 
ATOM      2  C   UNL     1       1.522   8.076  19.756  0.00  0.00    +0.000 C 
ATOM      3  O   UNL     1       1.849   8.214  20.933  0.00  0.00    +0.000 OA
ATOM      4  H   UNL     1       1.607   6.912  18.034  0.00  0.00    +0.000 HD
ENDROOT
BRANCH   2   5
ATOM      5  C   UNL     1       0.582   9.043  19.031  0.00  0.00    +0.000 C 
ATOM      6  C   UNL     1       1.281   9.702  17.838  0.00  0.00    +0.000 C 
ATOM      7  C   UNL     1       2.274  10.764  18.293  0.00  0.00    +0.000 C 
ATOM      8  N   UNL     1       1.601  11.784  19.095  0.00  0.00    +0.000 N 
ATOM      9  C   UNL     1       1.901  13.120  18.837  0.00  0.00    +0.000 C 
ATOM     10  O   UNL     1       2.697  13.443  17.951  0.00  0.00    +0.000 OA
ATOM     11  C   UNL     1       0.903  11.282  20.281  0.00  0.00    +0.000 C 
ATOM     12  C   UNL     1      -0.026  10.112  19.954  0.00  0.00    +0.000 C 
BRANCH   9  13
ATOM     13  C   UNL     1       1.227  14.214  19.707  0.00  0.00    +0.000 C 
BRANCH  13  14
ATOM     14  N   UNL     1       2.266  15.140  20.202  0.00  0.00    +0.000 NA
ATOM     15  H   UNL     1       2.936  14.598  20.755  0.00  0.00    +0.000 HD
ATOM     16  H   UNL     1       1.853  15.804  20.855  0.00  0.00    +0.000 HD
ENDBRANCH  13  14
BRANCH  13  17
ATOM     17  C   UNL     1       0.192  15.013  18.896  0.00  0.00    +0.000 C 
BRANCH  17  18
ATOM     18  C   UNL     1      -0.749  15.802  19.811  0.00  0.00    +0.000 C 
BRANCH  18  19
ATOM     19  S   UNL     1      -1.166  17.395  19.037  0.00  0.00    +0.000 S 
ATOM     20  C   UNL     1       0.256  18.355  19.603  0.00  0.00    +0.000 C 
ENDBRANCH  18  19
ENDBRANCH  17  18
ENDBRANCH  13  17
ENDBRANCH   9  13
ENDBRANCH   2   5
BRANCH   1  21
ATOM     21  C   UNL     1       2.863   5.972  19.458  0.00  0.00    +0.000 C 
BRANCH  21  23
ATOM     22  N   UNL     1       5.084   5.044  18.863  0.00  0.00    +0.000 N 
ATOM     23  C   UNL     1       4.201   6.091  18.684  0.00  0.00    +0.000 C 
ATOM     24  O   UNL     1       4.424   7.033  17.922  0.00  0.00    +0.000 OA
ATOM     25  H   UNL     1       4.952   4.426  19.653  0.00  0.00    +0.000 HD
BRANCH  22  26
ATOM     26  C   UNL     1       6.380   5.029  18.212  0.00  0.00    +0.000 C 
BRANCH  26  30
ATOM     27  C   UNL     1       6.208   4.123  13.973  0.00  0.00    +0.000 A 
ATOM     28  C   UNL     1       7.224   4.926  14.490  0.00  0.00    +0.000 A 
ATOM     29  C   UNL     1       7.269   5.225  15.857  0.00  0.00    +0.000 A 
ATOM     30  C   UNL     1       6.282   4.749  16.730  0.00  0.00    +0.000 A 
ATOM     31  C   UNL     1       5.255   3.953  16.202  0.00  0.00    +0.000 A 
ATOM     32  C   UNL     1       5.217   3.644  14.832  0.00  0.00    +0.000 A 
BRANCH  27  34
ATOM     33  C   UNL     1       5.266   3.039  12.090  0.00  0.00    +0.000 C 
ATOM     34  O   UNL     1       6.264   3.904  12.625  0.00  0.00    +0.000 OA
ENDBRANCH  27  34
ENDBRANCH  26  30
ENDBRANCH  22  26
ENDBRANCH  21  23
BRANCH  21  35
ATOM     35  C   UNL     1       2.194   4.585  19.284  0.00  0.00    +0.000 C 
ATOM     36  C   UNL     1       1.069   4.345  20.300  0.00  0.00    +0.000 C 
ATOM     37  C   UNL     1       1.651   4.345  17.873  0.00  0.00    +0.000 C 
ENDBRANCH  21  35
ENDBRANCH   1  21
TORSDOF 12
ENDMDL
MODEL 5
REMARK VINA RESULT:      -6.1      3.868      6.227
REMARK  Name = 
REMARK  16 active torsions:
REMARK  status: ('A' for Active; 'I' for Inactive)
REMARK    1  A    between atoms: C_1  and  O_2
REMARK    2  A    between atoms: O_2  and  C_3
REMARK    3  A    between atoms: C_6  and  C_7
REMARK    4  A    between atoms: C_7  and  N_8
REMARK    5  A    between atoms: C_9  and  C_11
REMARK    6  A    between atoms: C_11  and  N_12
REMARK    7  A    between atoms: C_11  and  C_29
REMARK    8  A    between atoms: C_13  and  C_15
REMARK    9  A    between atoms: C_19  and  C_21
REMARK   10  A    between atoms: C_21  and  N_22
REMARK   11  A    between atoms: C_21  and  C_23
REMARK   12  A    between atoms: C_23  and  C_24
REMARK   13  A    between atoms: C_24  and  S_25
REMARK   14  A    between atoms: S_25  and  C_26
REMARK   15  A    between atoms: C_29  and  C_30
REMARK   16  A    between atoms: C_29  and  C_31
REMARK                            x       y       z     vdW  Elec       q    Type
REMARK                         _______ _______ _______ _____ _____    ______ ____
ROOT
ATOM      1  N   UNL     1       2.464   6.878  19.389  0.00  0.00    +0.000 N 
ATOM      2  C   UNL     1       1.832   7.893  20.063  0.00  0.00    +0.000 C 
ATOM      3  O   UNL     1       1.295   7.731  21.157  0.00  0.00    +0.000 OA
ATOM      4  H   UNL     1       2.817   7.033  18.444  0.00  0.00    +0.000 HD
ENDROOT
BRANCH   2   5
ATOM      5  C   UNL     1       1.857   9.241  19.335  0.00  0.00    +0.000 C 
ATOM      6  C   UNL     1       1.084  10.305  20.120  0.00  0.00    +0.000 C 
ATOM      7  C   UNL     1      -0.421  10.095  20.004  0.00  0.00    +0.000 C 
ATOM      8  N   UNL     1      -0.835  10.117  18.603  0.00  0.00    +0.000 N 
ATOM      9  C   UNL     1      -1.974  10.847  18.270  0.00  0.00    +0.000 C 
ATOM     10  O   UNL     1      -2.612  11.472  19.122  0.00  0.00    +0.000 OA
ATOM     11  C   UNL     1      -0.175   9.130  17.745  0.00  0.00    +0.000 C 
ATOM     12  C   UNL     1       1.347   9.163  17.887  0.00  0.00    +0.000 C 
BRANCH   9  13
ATOM     13  C   UNL     1      -2.451  10.847  16.794  0.00  0.00    +0.000 C 
BRANCH  13  14
ATOM     14  N   UNL     1      -2.941   9.496  16.449  0.00  0.00    +0.000 NA
ATOM     15  H   UNL     1      -3.931   9.444  16.704  0.00  0.00    +0.000 HD
ATOM     16  H   UNL     1      -2.476   8.802  17.033  0.00  0.00    +0.000 HD
ENDBRANCH  13  14
BRANCH  13  17
ATOM     17  C   UNL     1      -3.588  11.860  16.574  0.00  0.00    +0.000 C 
BRANCH  17  18
ATOM     18  C   UNL     1      -4.962  11.205  16.740  0.00  0.00    +0.000 C 
BRANCH  18  19
ATOM     19  S   UNL     1      -5.880  12.034  18.076  0.00  0.00    +0.000 S 
ATOM     20  C   UNL     1      -6.950  13.081  17.064  0.00  0.00    +0.000 C 
ENDBRANCH  18  19
ENDBRANCH  17  18
ENDBRANCH  13  17
ENDBRANCH   9  13
ENDBRANCH   2   5
BRANCH   1  21
ATOM     21  C   UNL     1       2.546   5.491  19.873  0.00  0.00    +0.000 C 
BRANCH  21  23
ATOM     22  N   UNL     1       4.736   5.805  18.753  0.00  0.00    +0.000 N 
ATOM     23  C   UNL     1       3.941   4.940  19.480  0.00  0.00    +0.000 C 
ATOM     24  O   UNL     1       4.321   3.826  19.844  0.00  0.00    +0.000 OA
ATOM     25  H   UNL     1       4.302   6.598  18.298  0.00  0.00    +0.000 HD
BRANCH  22  26
ATOM     26  C   UNL     1       6.060   5.418  18.304  0.00  0.00    +0.000 C 
BRANCH  26  30
ATOM     27  C   UNL     1       6.225   4.129  14.166  0.00  0.00    +0.000 A 
ATOM     28  C   UNL     1       7.241   4.915  14.709  0.00  0.00    +0.000 A 
ATOM     29  C   UNL     1       7.178   5.338  16.041  0.00  0.00    +0.000 A 
ATOM     30  C   UNL     1       6.083   5.006  16.850  0.00  0.00    +0.000 A 
ATOM     31  C   UNL     1       5.057   4.227  16.294  0.00  0.00    +0.000 A 
ATOM     32  C   UNL     1       5.127   3.794  14.960  0.00  0.00    +0.000 A 
BRANCH  27  34
ATOM     33  C   UNL     1       7.381   4.511  12.134  0.00  0.00    +0.000 C 
ATOM     34  O   UNL     1       6.392   3.781  12.854  0.00  0.00    +0.000 OA
ENDBRANCH  27  34
ENDBRANCH  26  30
ENDBRANCH  22  26
ENDBRANCH  21  23
BRANCH  21  35
ATOM     35  C   UNL     1       1.384   4.642  19.299  0.00  0.00    +0.000 C 
ATOM     36  C   UNL     1       1.650   4.183  17.860  0.00  0.00    +0.000 C 
ATOM     37  C   UNL     1       1.043   3.421  20.158  0.00  0.00    +0.000 C 
ENDBRANCH  21  35
ENDBRANCH   1  21
TORSDOF 12
ENDMDL
MODEL 6
REMARK VINA RESULT:      -6.1      3.639      6.379
REMARK  Name = 
REMARK  16 active torsions:
REMARK  status: ('A' for Active; 'I' for Inactive)
REMARK    1  A    between atoms: C_1  and  O_2
REMARK    2  A    between atoms: O_2  and  C_3
REMARK    3  A    between atoms: C_6  and  C_7
REMARK    4  A    between atoms: C_7  and  N_8
REMARK    5  A    between atoms: C_9  and  C_11
REMARK    6  A    between atoms: C_11  and  N_12
REMARK    7  A    between atoms: C_11  and  C_29
REMARK    8  A    between atoms: C_13  and  C_15
REMARK    9  A    between atoms: C_19  and  C_21
REMARK   10  A    between atoms: C_21  and  N_22
REMARK   11  A    between atoms: C_21  and  C_23
REMARK   12  A    between atoms: C_23  and  C_24
REMARK   13  A    between atoms: C_24  and  S_25
REMARK   14  A    between atoms: S_25  and  C_26
REMARK   15  A    between atoms: C_29  and  C_30
REMARK   16  A    between atoms: C_29  and  C_31
REMARK                            x       y       z     vdW  Elec       q    Type
REMARK                         _______ _______ _______ _____ _____    ______ ____
ROOT
ATOM      1  N   UNL     1       2.261   7.352  18.996  0.00  0.00    +0.000 N 
ATOM      2  C   UNL     1       1.746   8.441  19.654  0.00  0.00    +0.000 C 
ATOM      3  O   UNL     1       1.545   8.451  20.867  0.00  0.00    +0.000 OA
ATOM      4  H   UNL     1       2.328   7.353  17.979  0.00  0.00    +0.000 HD
ENDROOT
BRANCH   2   5
ATOM      5  C   UNL     1       1.449   9.639  18.748  0.00  0.00    +0.000 C 
ATOM      6  C   UNL     1       1.289  10.924  19.567  0.00  0.00    +0.000 C 
ATOM      7  C   UNL     1      -0.047  10.950  20.301  0.00  0.00    +0.000 C 
ATOM      8  N   UNL     1      -1.153  10.827  19.355  0.00  0.00    +0.000 N 
ATOM      9  C   UNL     1      -2.247  11.675  19.515  0.00  0.00    +0.000 C 
ATOM     10  O   UNL     1      -2.282  12.520  20.415  0.00  0.00    +0.000 OA
ATOM     11  C   UNL     1      -1.124   9.625  18.517  0.00  0.00    +0.000 C 
ATOM     12  C   UNL     1       0.230   9.427  17.835  0.00  0.00    +0.000 C 
BRANCH   9  13
ATOM     13  C   UNL     1      -3.449  11.529  18.545  0.00  0.00    +0.000 C 
BRANCH  13  14
ATOM     14  N   UNL     1      -4.420  12.609  18.819  0.00  0.00    +0.000 NA
ATOM     15  H   UNL     1      -4.805  12.457  19.755  0.00  0.00    +0.000 HD
ATOM     16  H   UNL     1      -5.213  12.528  18.185  0.00  0.00    +0.000 HD
ENDBRANCH  13  14
BRANCH  13  17
ATOM     17  C   UNL     1      -2.998  11.626  17.078  0.00  0.00    +0.000 C 
BRANCH  17  18
ATOM     18  C   UNL     1      -3.881  10.773  16.162  0.00  0.00    +0.000 C 
BRANCH  18  19
ATOM     19  S   UNL     1      -2.841   9.858  14.982  0.00  0.00    +0.000 S 
ATOM     20  C   UNL     1      -3.839  10.096  13.495  0.00  0.00    +0.000 C 
ENDBRANCH  18  19
ENDBRANCH  17  18
ENDBRANCH  13  17
ENDBRANCH   9  13
ENDBRANCH   2   5
BRANCH   1  21
ATOM     21  C   UNL     1       2.600   6.077  19.649  0.00  0.00    +0.000 C 
BRANCH  21  23
ATOM     22  N   UNL     1       4.680   6.622  18.415  0.00  0.00    +0.000 N 
ATOM     23  C   UNL     1       4.038   5.695  19.214  0.00  0.00    +0.000 C 
ATOM     24  O   UNL     1       4.578   4.661  19.607  0.00  0.00    +0.000 OA
ATOM     25  H   UNL     1       4.126   7.329  17.947  0.00  0.00    +0.000 HD
BRANCH  22  26
ATOM     26  C   UNL     1       6.024   6.392  17.922  0.00  0.00    +0.000 C 
BRANCH  26  30
ATOM     27  C   UNL     1       5.977   4.242  14.155  0.00  0.00    +0.000 A 
ATOM     28  C   UNL     1       6.758   3.796  15.220  0.00  0.00    +0.000 A 
ATOM     29  C   UNL     1       6.779   4.499  16.430  0.00  0.00    +0.000 A 
ATOM     30  C   UNL     1       6.040   5.679  16.589  0.00  0.00    +0.000 A 
ATOM     31  C   UNL     1       5.267   6.130  15.509  0.00  0.00    +0.000 A 
ATOM     32  C   UNL     1       5.238   5.417  14.299  0.00  0.00    +0.000 A 
BRANCH  27  34
ATOM     33  C   UNL     1       7.006   3.874  12.053  0.00  0.00    +0.000 C 
ATOM     34  O   UNL     1       6.040   3.478  13.023  0.00  0.00    +0.000 OA
ENDBRANCH  27  34
ENDBRANCH  26  30
ENDBRANCH  22  26
ENDBRANCH  21  23
BRANCH  21  35
ATOM     35  C   UNL     1       1.558   4.987  19.290  0.00  0.00    +0.000 C 
ATOM     36  C   UNL     1       1.800   4.379  17.903  0.00  0.00    +0.000 C 
ATOM     37  C   UNL     1       1.480   3.859  20.322  0.00  0.00    +0.000 C 
ENDBRANCH  21  35
ENDBRANCH   1  21
TORSDOF 12
ENDMDL
MODEL 7
REMARK VINA RESULT:      -6.1      4.251      8.639
REMARK  Name = 
REMARK  16 active torsions:
REMARK  status: ('A' for Active; 'I' for Inactive)
REMARK    1  A    between atoms: C_1  and  O_2
REMARK    2  A    between atoms: O_2  and  C_3
REMARK    3  A    between atoms: C_6  and  C_7
REMARK    4  A    between atoms: C_7  and  N_8
REMARK    5  A    between atoms: C_9  and  C_11
REMARK    6  A    between atoms: C_11  and  N_12
REMARK    7  A    between atoms: C_11  and  C_29
REMARK    8  A    between atoms: C_13  and  C_15
REMARK    9  A    between atoms: C_19  and  C_21
REMARK   10  A    between atoms: C_21  and  N_22
REMARK   11  A    between atoms: C_21  and  C_23
REMARK   12  A    between atoms: C_23  and  C_24
REMARK   13  A    between atoms: C_24  and  S_25
REMARK   14  A    between atoms: S_25  and  C_26
REMARK   15  A    between atoms: C_29  and  C_30
REMARK   16  A    between atoms: C_29  and  C_31
REMARK                            x       y       z     vdW  Elec       q    Type
REMARK                         _______ _______ _______ _____ _____    ______ ____
ROOT
ATOM      1  N   UNL     1       0.264  11.369  21.147  0.00  0.00    +0.000 N 
ATOM      2  C   UNL     1       0.819  12.622  21.232  0.00  0.00    +0.000 C 
ATOM      3  O   UNL     1       2.033  12.813  21.224  0.00  0.00    +0.000 OA
ATOM      4  H   UNL     1      -0.743  11.247  21.248  0.00  0.00    +0.000 HD
ENDROOT
BRANCH   2   5
ATOM      5  C   UNL     1      -0.205  13.756  21.335  0.00  0.00    +0.000 C 
ATOM      6  C   UNL     1      -0.833  13.806  22.731  0.00  0.00    +0.000 C 
ATOM      7  C   UNL     1      -1.835  12.674  22.931  0.00  0.00    +0.000 C 
ATOM      8  N   UNL     1      -2.884  12.735  21.915  0.00  0.00    +0.000 N 
ATOM      9  C   UNL     1      -4.203  12.562  22.329  0.00  0.00    +0.000 C 
ATOM     10  O   UNL     1      -4.489  12.377  23.515  0.00  0.00    +0.000 OA
ATOM     11  C   UNL     1      -2.412  12.680  20.530  0.00  0.00    +0.000 C 
ATOM     12  C   UNL     1      -1.298  13.692  20.256  0.00  0.00    +0.000 C 
BRANCH   9  13
ATOM     13  C   UNL     1      -5.326  12.581  21.258  0.00  0.00    +0.000 C 
BRANCH  13  14
ATOM     14  N   UNL     1      -6.506  11.868  21.789  0.00  0.00    +0.000 NA
ATOM     15  H   UNL     1      -6.176  11.037  22.287  0.00  0.00    +0.000 HD
ATOM     16  H   UNL     1      -7.070  11.514  21.018  0.00  0.00    +0.000 HD
ENDBRANCH  13  14
BRANCH  13  17
ATOM     17  C   UNL     1      -5.732  14.021  20.901  0.00  0.00    +0.000 C 
BRANCH  17  18
ATOM     18  C   UNL     1      -6.616  14.640  21.987  0.00  0.00    +0.000 C 
BRANCH  18  19
ATOM     19  S   UNL     1      -7.914  15.658  21.217  0.00  0.00    +0.000 S 
ATOM     20  C   UNL     1      -7.764  15.055  19.521  0.00  0.00    +0.000 C 
ENDBRANCH  18  19
ENDBRANCH  17  18
ENDBRANCH  13  17
ENDBRANCH   9  13
ENDBRANCH   2   5
BRANCH   1  21
ATOM     21  C   UNL     1       1.045  10.124  21.067  0.00  0.00    +0.000 C 
BRANCH  21  23
ATOM     22  N   UNL     1       1.955   8.661  19.285  0.00  0.00    +0.000 N 
ATOM     23  C   UNL     1       1.078   9.686  19.579  0.00  0.00    +0.000 C 
ATOM     24  O   UNL     1       0.328  10.189  18.742  0.00  0.00    +0.000 OA
ATOM     25  H   UNL     1       2.691   8.445  19.945  0.00  0.00    +0.000 HD
BRANCH  22  26
ATOM     26  C   UNL     1       2.102   8.158  17.932  0.00  0.00    +0.000 C 
BRANCH  26  30
ATOM     27  C   UNL     1       3.739   4.149  17.679  0.00  0.00    +0.000 A 
ATOM     28  C   UNL     1       2.412   4.355  18.053  0.00  0.00    +0.000 A 
ATOM     29  C   UNL     1       1.891   5.651  18.145  0.00  0.00    +0.000 A 
ATOM     30  C   UNL     1       2.696   6.769  17.889  0.00  0.00    +0.000 A 
ATOM     31  C   UNL     1       4.034   6.556  17.526  0.00  0.00    +0.000 A 
ATOM     32  C   UNL     1       4.553   5.254  17.424  0.00  0.00    +0.000 A 
BRANCH  27  34
ATOM     33  C   UNL     1       3.322   1.913  18.337  0.00  0.00    +0.000 C 
ATOM     34  O   UNL     1       4.137   2.842  17.629  0.00  0.00    +0.000 OA
ENDBRANCH  27  34
ENDBRANCH  26  30
ENDBRANCH  22  26
ENDBRANCH  21  23
BRANCH  21  35
ATOM     35  C   UNL     1       0.441   9.041  21.995  0.00  0.00    +0.000 C 
ATOM     36  C   UNL     1      -0.006   9.612  23.347  0.00  0.00    +0.000 C 
ATOM     37  C   UNL     1      -0.728   8.282  21.362  0.00  0.00    +0.000 C 
ENDBRANCH  21  35
ENDBRANCH   1  21
TORSDOF 12
ENDMDL
MODEL 8
REMARK VINA RESULT:      -6.0      3.358      5.883
REMARK  Name = 
REMARK  16 active torsions:
REMARK  status: ('A' for Active; 'I' for Inactive)
REMARK    1  A    between atoms: C_1  and  O_2
REMARK    2  A    between atoms: O_2  and  C_3
REMARK    3  A    between atoms: C_6  and  C_7
REMARK    4  A    between atoms: C_7  and  N_8
REMARK    5  A    between atoms: C_9  and  C_11
REMARK    6  A    between atoms: C_11  and  N_12
REMARK    7  A    between atoms: C_11  and  C_29
REMARK    8  A    between atoms: C_13  and  C_15
REMARK    9  A    between atoms: C_19  and  C_21
REMARK   10  A    between atoms: C_21  and  N_22
REMARK   11  A    between atoms: C_21  and  C_23
REMARK   12  A    between atoms: C_23  and  C_24
REMARK   13  A    between atoms: C_24  and  S_25
REMARK   14  A    between atoms: S_25  and  C_26
REMARK   15  A    between atoms: C_29  and  C_30
REMARK   16  A    between atoms: C_29  and  C_31
REMARK                            x       y       z     vdW  Elec       q    Type
REMARK                         _______ _______ _______ _____ _____    ______ ____
ROOT
ATOM      1  N   UNL     1       2.661   7.071  18.585  0.00  0.00    +0.000 N 
ATOM      2  C   UNL     1       1.918   8.133  19.038  0.00  0.00    +0.000 C 
ATOM      3  O   UNL     1       1.630   8.285  20.224  0.00  0.00    +0.000 OA
ATOM      4  H   UNL     1       2.800   6.933  17.584  0.00  0.00    +0.000 HD
ENDROOT
BRANCH   2   5
ATOM      5  C   UNL     1       1.483   9.108  17.940  0.00  0.00    +0.000 C 
ATOM      6  C   UNL     1       2.296  10.405  18.002  0.00  0.00    +0.000 C 
ATOM      7  C   UNL     1       1.855  11.280  19.170  0.00  0.00    +0.000 C 
ATOM      8  N   UNL     1       0.432  11.594  19.066  0.00  0.00    +0.000 N 
ATOM      9  C   UNL     1       0.034  12.908  19.301  0.00  0.00    +0.000 C 
ATOM     10  O   UNL     1       0.852  13.791  19.574  0.00  0.00    +0.000 OA
ATOM     11  C   UNL     1      -0.459  10.431  19.012  0.00  0.00    +0.000 C 
ATOM     12  C   UNL     1      -0.023   9.415  17.956  0.00  0.00    +0.000 C 
BRANCH   9  13
ATOM     13  C   UNL     1      -1.479  13.250  19.235  0.00  0.00    +0.000 C 
BRANCH  13  14
ATOM     14  N   UNL     1      -2.077  12.555  18.077  0.00  0.00    +0.000 NA
ATOM     15  H   UNL     1      -2.220  13.245  17.334  0.00  0.00    +0.000 HD
ATOM     16  H   UNL     1      -3.009  12.222  18.319  0.00  0.00    +0.000 HD
ENDBRANCH  13  14
BRANCH  13  17
ATOM     17  C   UNL     1      -2.207  12.804  20.515  0.00  0.00    +0.000 C 
BRANCH  17  18
ATOM     18  C   UNL     1      -1.278  12.844  21.732  0.00  0.00    +0.000 C 
BRANCH  18  19
ATOM     19  S   UNL     1      -1.894  11.707  23.013  0.00  0.00    +0.000 S 
ATOM     20  C   UNL     1      -0.619  10.434  22.885  0.00  0.00    +0.000 C 
ENDBRANCH  18  19
ENDBRANCH  17  18
ENDBRANCH  13  17
ENDBRANCH   9  13
ENDBRANCH   2   5
BRANCH   1  21
ATOM     21  C   UNL     1       3.167   5.991  19.446  0.00  0.00    +0.000 C 
BRANCH  21  23
ATOM     22  N   UNL     1       5.001   6.233  17.797  0.00  0.00    +0.000 N 
ATOM     23  C   UNL     1       4.621   5.681  19.005  0.00  0.00    +0.000 C 
ATOM     24  O   UNL     1       5.388   5.035  19.718  0.00  0.00    +0.000 OA
ATOM     25  H   UNL     1       4.283   6.555  17.160  0.00  0.00    +0.000 HD
BRANCH  22  26
ATOM     26  C   UNL     1       6.328   6.015  17.252  0.00  0.00    +0.000 C 
BRANCH  26  30
ATOM     27  C   UNL     1       6.153   3.949  13.442  0.00  0.00    +0.000 A 
ATOM     28  C   UNL     1       5.137   3.793  14.384  0.00  0.00    +0.000 A 
ATOM     29  C   UNL     1       5.203   4.453  15.617  0.00  0.00    +0.000 A 
ATOM     30  C   UNL     1       6.302   5.261  15.942  0.00  0.00    +0.000 A 
ATOM     31  C   UNL     1       7.327   5.402  14.995  0.00  0.00    +0.000 A 
ATOM     32  C   UNL     1       7.254   4.748  13.754  0.00  0.00    +0.000 A 
BRANCH  27  34
ATOM     33  C   UNL     1       4.651   3.192  11.774  0.00  0.00    +0.000 C 
ATOM     34  O   UNL     1       5.982   3.252  12.277  0.00  0.00    +0.000 OA
ENDBRANCH  27  34
ENDBRANCH  26  30
ENDBRANCH  22  26
ENDBRANCH  21  23
BRANCH  21  35
ATOM     35  C   UNL     1       2.242   4.750  19.367  0.00  0.00    +0.000 C 
ATOM     36  C   UNL     1       2.490   3.914  18.105  0.00  0.00    +0.000 C 
ATOM     37  C   UNL     1       2.339   3.841  20.595  0.00  0.00    +0.000 C 
ENDBRANCH  21  35
ENDBRANCH   1  21
TORSDOF 12
ENDMDL
MODEL 9
REMARK VINA RESULT:      -5.9      4.656     10.735
REMARK  Name = 
REMARK  16 active torsions:
REMARK  status: ('A' for Active; 'I' for Inactive)
REMARK    1  A    between atoms: C_1  and  O_2
REMARK    2  A    between atoms: O_2  and  C_3
REMARK    3  A    between atoms: C_6  and  C_7
REMARK    4  A    between atoms: C_7  and  N_8
REMARK    5  A    between atoms: C_9  and  C_11
REMARK    6  A    between atoms: C_11  and  N_12
REMARK    7  A    between atoms: C_11  and  C_29
REMARK    8  A    between atoms: C_13  and  C_15
REMARK    9  A    between atoms: C_19  and  C_21
REMARK   10  A    between atoms: C_21  and  N_22
REMARK   11  A    between atoms: C_21  and  C_23
REMARK   12  A    between atoms: C_23  and  C_24
REMARK   13  A    between atoms: C_24  and  S_25
REMARK   14  A    between atoms: S_25  and  C_26
REMARK   15  A    between atoms: C_29  and  C_30
REMARK   16  A    between atoms: C_29  and  C_31
REMARK                            x       y       z     vdW  Elec       q    Type
REMARK                         _______ _______ _______ _____ _____    ______ ____
ROOT
ATOM      1  N   UNL     1       0.148  12.459  20.524  0.00  0.00    +0.000 N 
ATOM      2  C   UNL     1       0.675  11.232  20.841  0.00  0.00    +0.000 C 
ATOM      3  O   UNL     1       1.635  11.096  21.597  0.00  0.00    +0.000 OA
ATOM      4  H   UNL     1      -0.590  12.534  19.823  0.00  0.00    +0.000 HD
ENDROOT
BRANCH   2   5
ATOM      5  C   UNL     1      -0.038  10.052  20.176  0.00  0.00    +0.000 C 
ATOM      6  C   UNL     1       0.031   8.799  21.054  0.00  0.00    +0.000 C 
ATOM      7  C   UNL     1       1.422   8.176  21.025  0.00  0.00    +0.000 C 
ATOM      8  N   UNL     1       1.802   7.839  19.655  0.00  0.00    +0.000 N 
ATOM      9  C   UNL     1       2.392   6.597  19.427  0.00  0.00    +0.000 C 
ATOM     10  O   UNL     1       2.577   5.793  20.346  0.00  0.00    +0.000 OA
ATOM     11  C   UNL     1       1.790   8.961  18.713  0.00  0.00    +0.000 C 
ATOM     12  C   UNL     1       0.478   9.745  18.761  0.00  0.00    +0.000 C 
BRANCH   9  13
ATOM     13  C   UNL     1       2.840   6.241  17.985  0.00  0.00    +0.000 C 
BRANCH  13  14
ATOM     14  N   UNL     1       4.204   6.765  17.765  0.00  0.00    +0.000 NA
ATOM     15  H   UNL     1       4.124   7.651  17.259  0.00  0.00    +0.000 HD
ATOM     16  H   UNL     1       4.715   6.143  17.140  0.00  0.00    +0.000 HD
ENDBRANCH  13  14
BRANCH  13  17
ATOM     17  C   UNL     1       2.849   4.718  17.764  0.00  0.00    +0.000 C 
BRANCH  17  18
ATOM     18  C   UNL     1       1.427   4.160  17.651  0.00  0.00    +0.000 C 
BRANCH  18  19
ATOM     19  S   UNL     1       1.264   2.679  18.696  0.00  0.00    +0.000 S 
ATOM     20  C   UNL     1       2.896   1.960  18.410  0.00  0.00    +0.000 C 
ENDBRANCH  18  19
ENDBRANCH  17  18
ENDBRANCH  13  17
ENDBRANCH   9  13
ENDBRANCH   2   5
BRANCH   1  21
ATOM     21  C   UNL     1       0.680  13.739  21.018  0.00  0.00    +0.000 C 
BRANCH  21  23
ATOM     22  N   UNL     1      -1.626  13.879  21.918  0.00  0.00    +0.000 N 
ATOM     23  C   UNL     1      -0.314  14.281  22.078  0.00  0.00    +0.000 C 
ATOM     24  O   UNL     1       0.064  14.975  23.022  0.00  0.00    +0.000 OA
ATOM     25  H   UNL     1      -1.916  13.507  21.022  0.00  0.00    +0.000 HD
BRANCH  22  26
ATOM     26  C   UNL     1      -2.667  14.321  22.826  0.00  0.00    +0.000 C 
BRANCH  26  30
ATOM     27  C   UNL     1      -6.488  12.482  21.914  0.00  0.00    +0.000 A 
ATOM     28  C   UNL     1      -5.421  12.389  21.022  0.00  0.00    +0.000 A 
ATOM     29  C   UNL     1      -4.194  12.994  21.315  0.00  0.00    +0.000 A 
ATOM     30  C   UNL     1      -4.017  13.727  22.496  0.00  0.00    +0.000 A 
ATOM     31  C   UNL     1      -5.099  13.828  23.383  0.00  0.00    +0.000 A 
ATOM     32  C   UNL     1      -6.327  13.212  23.093  0.00  0.00    +0.000 A 
BRANCH  27  34
ATOM     33  C   UNL     1      -7.539  11.041  20.355  0.00  0.00    +0.000 C 
ATOM     34  O   UNL     1      -7.638  11.856  21.519  0.00  0.00    +0.000 OA
ENDBRANCH  27  34
ENDBRANCH  26  30
ENDBRANCH  22  26
ENDBRANCH  21  23
BRANCH  21  35
ATOM     35  C   UNL     1       0.901  14.727  19.845  0.00  0.00    +0.000 C 
ATOM     36  C   UNL     1       2.097  14.336  18.968  0.00  0.00    +0.000 C 
ATOM     37  C   UNL     1      -0.334  14.901  18.957  0.00  0.00    +0.000 C 
ENDBRANCH  21  35
ENDBRANCH   1  21
TORSDOF 12
ENDMDL
