MODEL 1
REMARK VINA RESULT:      -7.0      0.000      0.000
REMARK  Name = 
REMARK  9 active torsions:
REMARK  status: ('A' for Active; 'I' for Inactive)
REMARK    1  A    between atoms: C_1  and  S_2
REMARK    2  A    between atoms: S_2  and  N_5
REMARK    3  A    between atoms: C_8  and  C_9
REMARK    4  A    between atoms: C_9  and  N_10
REMARK    5  A    between atoms: N_10  and  C_11
REMARK    6  A    between atoms: N_10  and  C_19
REMARK    7  A    between atoms: C_11  and  C_12
REMARK    8  A    between atoms: C_19  and  C_20
REMARK    9  A    between atoms: C_23  and  N_24
REMARK                            x       y       z     vdW  Elec       q    Type
REMARK                         _______ _______ _______ _____ _____    ______ ____
ROOT
ATOM      1  N   UNL     1       3.302   7.002  18.256  0.00  0.00    +0.000 NA
ENDROOT
BRANCH   1   2
ATOM      2  C   UNL     1       2.807   8.207  17.569  0.00  0.00    +0.000 C 
BRANCH   2   6
ATOM      3  N   UNL     1       0.076  10.324  18.942  0.00  0.00    +0.000 N 
ATOM      4  C   UNL     1       0.466   9.679  20.085  0.00  0.00    +0.000 A 
ATOM      5  C   UNL     1       1.489   8.825  19.734  0.00  0.00    +0.000 A 
ATOM      6  C   UNL     1       1.718   8.942  18.325  0.00  0.00    +0.000 A 
ATOM      7  C   UNL     1       0.728   9.799  17.852  0.00  0.00    +0.000 A 
BRANCH   3   9
ATOM      8  C   UNL     1      -0.071  13.182  18.748  0.00  0.00    +0.000 C 
ATOM      9  S   UNL     1      -0.979  11.674  18.924  0.00  0.00    +0.000 S 
ATOM     10  O   UNL     1      -1.592  11.685  20.239  0.00  0.00    +0.000 OA
ATOM     11  O   UNL     1      -1.773  11.499  17.727  0.00  0.00    +0.000 OA
ENDBRANCH   3   9
ENDBRANCH   2   6
ENDBRANCH   1   2
BRANCH   1  12
ATOM     12  C   UNL     1       2.596   5.752  17.914  0.00  0.00    +0.000 C 
BRANCH  12  13
ATOM     13  C   UNL     1       2.060   4.872  19.037  0.00  0.00    +0.000 A 
ATOM     14  C   UNL     1       1.359   3.683  18.769  0.00  0.00    +0.000 A 
ATOM     15  C   UNL     1       1.043   2.790  19.799  0.00  0.00    +0.000 A 
ATOM     16  C   UNL     1       1.416   3.082  21.108  0.00  0.00    +0.000 A 
ATOM     17 CL   UNL     1       1.145   1.930  22.357  0.00  0.00    +0.000 Cl
ATOM     18  C   UNL     1       2.054   4.283  21.402  0.00  0.00    +0.000 A 
ATOM     19  C   UNL     1       2.373   5.170  20.371  0.00  0.00    +0.000 A 
ENDBRANCH  12  13
ENDBRANCH   1  12
BRANCH   1  20
ATOM     20  C   UNL     1       4.757   6.813  18.092  0.00  0.00    +0.000 C 
BRANCH  20  21
ATOM     21  C   UNL     1       5.120   5.778  17.065  0.00  0.00    +0.000 A 
ATOM     22  C   UNL     1       5.210   4.405  17.200  0.00  0.00    +0.000 A 
ATOM     23  C   UNL     1       5.708   3.780  16.014  0.00  0.00    +0.000 A 
ATOM     24  C   UNL     1       5.948   4.706  15.020  0.00  0.00    +0.000 A 
ATOM     25  S   UNL     1       5.499   6.280  15.467  0.00  0.00    +0.000 S 
BRANCH  24  26
ATOM     26  N   UNL     1       6.532   4.461  13.733  0.00  0.00    +0.000 N 
ATOM     27  O   UNL     1       7.447   5.227  13.384  0.00  0.00    +0.000 OA
ATOM     28  O   UNL     1       6.084   3.529  13.046  0.00  0.00    +0.000 OA
ENDBRANCH  24  26
ENDBRANCH  20  21
ENDBRANCH   1  20
TORSDOF 8
ENDMDL
MODEL 2
REMARK VINA RESULT:      -7.0      1.668      2.101
REMARK  Name = 
REMARK  9 active torsions:
REMARK  status: ('A' for Active; 'I' for Inactive)
REMARK    1  A    between atoms: C_1  and  S_2
REMARK    2  A    between atoms: S_2  and  N_5
REMARK    3  A    between atoms: C_8  and  C_9
REMARK    4  A    between atoms: C_9  and  N_10
REMARK    5  A    between atoms: N_10  and  C_11
REMARK    6  A    between atoms: N_10  and  C_19
REMARK    7  A    between atoms: C_11  and  C_12
REMARK    8  A    between atoms: C_19  and  C_20
REMARK    9  A    between atoms: C_23  and  N_24
REMARK                            x       y       z     vdW  Elec       q    Type
REMARK                         _______ _______ _______ _____ _____    ______ ____
ROOT
ATOM      1  N   UNL     1       3.420   6.841  18.025  0.00  0.00    +0.000 NA
ENDROOT
BRANCH   1   2
ATOM      2  C   UNL     1       2.645   7.954  17.449  0.00  0.00    +0.000 C 
BRANCH   2   6
ATOM      3  N   UNL     1       0.761   9.398  20.311  0.00  0.00    +0.000 N 
ATOM      4  C   UNL     1       0.174  10.080  19.280  0.00  0.00    +0.000 A 
ATOM      5  C   UNL     1       0.786   9.658  18.120  0.00  0.00    +0.000 A 
ATOM      6  C   UNL     1       1.793   8.697  18.459  0.00  0.00    +0.000 A 
ATOM      7  C   UNL     1       1.824   8.659  19.850  0.00  0.00    +0.000 A 
BRANCH   3   9
ATOM      8  C   UNL     1      -0.727  10.881  22.265  0.00  0.00    +0.000 C 
ATOM      9  S   UNL     1       0.152   9.387  21.913  0.00  0.00    +0.000 S 
ATOM     10  O   UNL     1       1.331   9.365  22.758  0.00  0.00    +0.000 OA
ATOM     11  O   UNL     1      -0.805   8.302  21.930  0.00  0.00    +0.000 OA
ENDBRANCH   3   9
ENDBRANCH   2   6
ENDBRANCH   1   2
BRANCH   1  12
ATOM     12  C   UNL     1       2.859   5.498  17.782  0.00  0.00    +0.000 C 
BRANCH  12  13
ATOM     13  C   UNL     1       2.588   4.582  18.969  0.00  0.00    +0.000 A 
ATOM     14  C   UNL     1       2.581   5.070  20.289  0.00  0.00    +0.000 A 
ATOM     15  C   UNL     1       2.141   4.266  21.347  0.00  0.00    +0.000 A 
ATOM     16  C   UNL     1       1.714   2.965  21.098  0.00  0.00    +0.000 A 
ATOM     17 CL   UNL     1       1.054   2.017  22.373  0.00  0.00    +0.000 Cl
ATOM     18  C   UNL     1       1.774   2.444  19.810  0.00  0.00    +0.000 A 
ATOM     19  C   UNL     1       2.207   3.250  18.754  0.00  0.00    +0.000 A 
ENDBRANCH  12  13
ENDBRANCH   1  12
BRANCH   1  20
ATOM     20  C   UNL     1       4.839   6.869  17.620  0.00  0.00    +0.000 C 
BRANCH  20  21
ATOM     21  C   UNL     1       5.224   5.754  16.688  0.00  0.00    +0.000 A 
ATOM     22  C   UNL     1       5.510   4.434  16.976  0.00  0.00    +0.000 A 
ATOM     23  C   UNL     1       5.957   3.717  15.821  0.00  0.00    +0.000 A 
ATOM     24  C   UNL     1       5.962   4.521  14.701  0.00  0.00    +0.000 A 
ATOM     25  S   UNL     1       5.357   6.076  15.006  0.00  0.00    +0.000 S 
BRANCH  24  26
ATOM     26  N   UNL     1       6.430   4.174  13.390  0.00  0.00    +0.000 N 
ATOM     27  O   UNL     1       7.481   4.721  13.014  0.00  0.00    +0.000 OA
ATOM     28  O   UNL     1       5.761   3.378  12.712  0.00  0.00    +0.000 OA
ENDBRANCH  24  26
ENDBRANCH  20  21
ENDBRANCH   1  20
TORSDOF 8
ENDMDL
MODEL 3
REMARK VINA RESULT:      -6.8      1.054      1.867
REMARK  Name = 
REMARK  9 active torsions:
REMARK  status: ('A' for Active; 'I' for Inactive)
REMARK    1  A    between atoms: C_1  and  S_2
REMARK    2  A    between atoms: S_2  and  N_5
REMARK    3  A    between atoms: C_8  and  C_9
REMARK    4  A    between atoms: C_9  and  N_10
REMARK    5  A    between atoms: N_10  and  C_11
REMARK    6  A    between atoms: N_10  and  C_19
REMARK    7  A    between atoms: C_11  and  C_12
REMARK    8  A    between atoms: C_19  and  C_20
REMARK    9  A    between atoms: C_23  and  N_24
REMARK                            x       y       z     vdW  Elec       q    Type
REMARK                         _______ _______ _______ _____ _____    ______ ____
ROOT
ATOM      1  N   UNL     1       3.021   7.035  18.247  0.00  0.00    +0.000 NA
ENDROOT
BRANCH   1   2
ATOM      2  C   UNL     1       2.353   8.102  17.482  0.00  0.00    +0.000 C 
BRANCH   2   6
ATOM      3  N   UNL     1       0.887  10.537  19.879  0.00  0.00    +0.000 N 
ATOM      4  C   UNL     1       1.389  11.404  18.947  0.00  0.00    +0.000 A 
ATOM      5  C   UNL     1       1.993  10.639  17.973  0.00  0.00    +0.000 A 
ATOM      6  C   UNL     1       1.868   9.258  18.333  0.00  0.00    +0.000 A 
ATOM      7  C   UNL     1       1.278   9.250  19.594  0.00  0.00    +0.000 A 
BRANCH   3   9
ATOM      8  C   UNL     1      -0.464   9.664  22.254  0.00  0.00    +0.000 C 
ATOM      9  S   UNL     1      -0.181  11.005  21.136  0.00  0.00    +0.000 S 
ATOM     10  O   UNL     1      -1.436  11.289  20.469  0.00  0.00    +0.000 OA
ATOM     11  O   UNL     1       0.536  12.033  21.858  0.00  0.00    +0.000 OA
ENDBRANCH   3   9
ENDBRANCH   2   6
ENDBRANCH   1   2
BRANCH   1  12
ATOM     12  C   UNL     1       2.588   5.664  17.916  0.00  0.00    +0.000 C 
BRANCH  12  13
ATOM     13  C   UNL     1       2.330   4.675  19.045  0.00  0.00    +0.000 A 
ATOM     14  C   UNL     1       2.700   4.959  20.371  0.00  0.00    +0.000 A 
ATOM     15  C   UNL     1       2.285   4.134  21.423  0.00  0.00    +0.000 A 
ATOM     16  C   UNL     1       1.504   3.012  21.157  0.00  0.00    +0.000 A 
ATOM     17 CL   UNL     1       0.885   2.068  22.456  0.00  0.00    +0.000 Cl
ATOM     18  C   UNL     1       1.181   2.680  19.846  0.00  0.00    +0.000 A 
ATOM     19  C   UNL     1       1.592   3.508  18.799  0.00  0.00    +0.000 A 
ENDBRANCH  12  13
ENDBRANCH   1  12
BRANCH   1  20
ATOM     20  C   UNL     1       4.493   7.124  18.178  0.00  0.00    +0.000 C 
BRANCH  20  21
ATOM     21  C   UNL     1       5.120   6.090  17.285  0.00  0.00    +0.000 A 
ATOM     22  C   UNL     1       5.612   4.839  17.608  0.00  0.00    +0.000 A 
ATOM     23  C   UNL     1       6.244   4.207  16.491  0.00  0.00    +0.000 A 
ATOM     24  C   UNL     1       6.177   4.996  15.362  0.00  0.00    +0.000 A 
ATOM     25  S   UNL     1       5.296   6.425  15.610  0.00  0.00    +0.000 S 
BRANCH  24  26
ATOM     26  N   UNL     1       6.776   4.732  14.086  0.00  0.00    +0.000 N 
ATOM     27  O   UNL     1       7.784   5.400  13.797  0.00  0.00    +0.000 OA
ATOM     28  O   UNL     1       6.252   3.881  13.349  0.00  0.00    +0.000 OA
ENDBRANCH  24  26
ENDBRANCH  20  21
ENDBRANCH   1  20
TORSDOF 8
ENDMDL
MODEL 4
REMARK VINA RESULT:      -6.7      4.189      6.043
REMARK  Name = 
REMARK  9 active torsions:
REMARK  status: ('A' for Active; 'I' for Inactive)
REMARK    1  A    between atoms: C_1  and  S_2
REMARK    2  A    between atoms: S_2  and  N_5
REMARK    3  A    between atoms: C_8  and  C_9
REMARK    4  A    between atoms: C_9  and  N_10
REMARK    5  A    between atoms: N_10  and  C_11
REMARK    6  A    between atoms: N_10  and  C_19
REMARK    7  A    between atoms: C_11  and  C_12
REMARK    8  A    between atoms: C_19  and  C_20
REMARK    9  A    between atoms: C_23  and  N_24
REMARK                            x       y       z     vdW  Elec       q    Type
REMARK                         _______ _______ _______ _____ _____    ______ ____
ROOT
ATOM      1  N   UNL     1       4.014   5.442  17.249  0.00  0.00    +0.000 NA
ENDROOT
BRANCH   1   2
ATOM      2  C   UNL     1       3.652   5.928  18.591  0.00  0.00    +0.000 C 
BRANCH   2   6
ATOM      3  N   UNL     1       1.548   8.952  19.092  0.00  0.00    +0.000 N 
ATOM      4  C   UNL     1       1.896   9.127  17.781  0.00  0.00    +0.000 A 
ATOM      5  C   UNL     1       2.709   8.069  17.437  0.00  0.00    +0.000 A 
ATOM      6  C   UNL     1       2.875   7.229  18.585  0.00  0.00    +0.000 A 
ATOM      7  C   UNL     1       2.231   7.887  19.629  0.00  0.00    +0.000 A 
BRANCH   3   9
ATOM      8  C   UNL     1      -0.246   9.026  21.330  0.00  0.00    +0.000 C 
ATOM      9  S   UNL     1       0.333   9.866  19.885  0.00  0.00    +0.000 S 
ATOM     10  O   UNL     1      -0.766   9.920  18.941  0.00  0.00    +0.000 OA
ATOM     11  O   UNL     1       1.010  11.068  20.320  0.00  0.00    +0.000 OA
ENDBRANCH   3   9
ENDBRANCH   2   6
ENDBRANCH   1   2
BRANCH   1  12
ATOM     12  C   UNL     1       5.462   5.412  16.964  0.00  0.00    +0.000 C 
BRANCH  12  13
ATOM     13  C   UNL     1       6.357   6.492  17.558  0.00  0.00    +0.000 A 
ATOM     14  C   UNL     1       7.390   6.178  18.460  0.00  0.00    +0.000 A 
ATOM     15  C   UNL     1       8.323   7.147  18.846  0.00  0.00    +0.000 A 
ATOM     16  C   UNL     1       8.228   8.441  18.341  0.00  0.00    +0.000 A 
ATOM     17 CL   UNL     1       9.445   9.600  18.710  0.00  0.00    +0.000 Cl
ATOM     18  C   UNL     1       7.177   8.786  17.498  0.00  0.00    +0.000 A 
ATOM     19  C   UNL     1       6.250   7.816  17.110  0.00  0.00    +0.000 A 
ENDBRANCH  12  13
ENDBRANCH   1  12
BRANCH   1  20
ATOM     20  C   UNL     1       3.419   4.127  16.941  0.00  0.00    +0.000 C 
BRANCH  20  21
ATOM     21  C   UNL     1       2.638   3.535  18.082  0.00  0.00    +0.000 A 
ATOM     22  C   UNL     1       1.278   3.315  18.189  0.00  0.00    +0.000 A 
ATOM     23  C   UNL     1       0.911   2.847  19.490  0.00  0.00    +0.000 A 
ATOM     24  C   UNL     1       2.015   2.705  20.303  0.00  0.00    +0.000 A 
ATOM     25  S   UNL     1       3.471   3.038  19.499  0.00  0.00    +0.000 S 
BRANCH  24  26
ATOM     26  N   UNL     1       2.025   2.345  21.692  0.00  0.00    +0.000 N 
ATOM     27  O   UNL     1       3.106   1.938  22.152  0.00  0.00    +0.000 OA
ATOM     28  O   UNL     1       0.969   2.440  22.338  0.00  0.00    +0.000 OA
ENDBRANCH  24  26
ENDBRANCH  20  21
ENDBRANCH   1  20
TORSDOF 8
ENDMDL
MODEL 5
REMARK VINA RESULT:      -6.6      3.393      5.005
REMARK  Name = 
REMARK  9 active torsions:
REMARK  status: ('A' for Active; 'I' for Inactive)
REMARK    1  A    between atoms: C_1  and  S_2
REMARK    2  A    between atoms: S_2  and  N_5
REMARK    3  A    between atoms: C_8  and  C_9
REMARK    4  A    between atoms: C_9  and  N_10
REMARK    5  A    between atoms: N_10  and  C_11
REMARK    6  A    between atoms: N_10  and  C_19
REMARK    7  A    between atoms: C_11  and  C_12
REMARK    8  A    between atoms: C_19  and  C_20
REMARK    9  A    between atoms: C_23  and  N_24
REMARK                            x       y       z     vdW  Elec       q    Type
REMARK                         _______ _______ _______ _____ _____    ______ ____
ROOT
ATOM      1  N   UNL     1       2.738   7.696  18.235  0.00  0.00    +0.000 NA
ENDROOT
BRANCH   1   2
ATOM      2  C   UNL     1       2.470   9.101  17.885  0.00  0.00    +0.000 C 
BRANCH   2   6
ATOM      3  N   UNL     1      -1.101  10.090  18.190  0.00  0.00    +0.000 N 
ATOM      4  C   UNL     1      -0.616  10.613  19.357  0.00  0.00    +0.000 A 
ATOM      5  C   UNL     1       0.728  10.312  19.403  0.00  0.00    +0.000 A 
ATOM      6  C   UNL     1       1.069   9.564  18.230  0.00  0.00    +0.000 A 
ATOM      7  C   UNL     1      -0.132   9.344  17.561  0.00  0.00    +0.000 A 
BRANCH   3   9
ATOM      8  C   UNL     1      -2.605  10.623  15.806  0.00  0.00    +0.000 C 
ATOM      9  S   UNL     1      -2.658  10.440  17.564  0.00  0.00    +0.000 S 
ATOM     10  O   UNL     1      -3.002  11.732  18.127  0.00  0.00    +0.000 OA
ATOM     11  O   UNL     1      -3.441   9.260  17.857  0.00  0.00    +0.000 OA
ENDBRANCH   3   9
ENDBRANCH   2   6
ENDBRANCH   1   2
BRANCH   1  12
ATOM     12  C   UNL     1       4.144   7.272  18.091  0.00  0.00    +0.000 C 
BRANCH  12  13
ATOM     13  C   UNL     1       4.521   6.325  16.959  0.00  0.00    +0.000 A 
ATOM     14  C   UNL     1       4.993   6.806  15.724  0.00  0.00    +0.000 A 
ATOM     15  C   UNL     1       5.518   5.929  14.768  0.00  0.00    +0.000 A 
ATOM     16  C   UNL     1       5.566   4.563  15.033  0.00  0.00    +0.000 A 
ATOM     17 CL   UNL     1       6.325   3.496  13.916  0.00  0.00    +0.000 Cl
ATOM     18  C   UNL     1       5.046   4.062  16.221  0.00  0.00    +0.000 A 
ATOM     19  C   UNL     1       4.529   4.940  17.177  0.00  0.00    +0.000 A 
ENDBRANCH  12  13
ENDBRANCH   1  12
BRANCH   1  20
ATOM     20  C   UNL     1       2.247   7.343  19.582  0.00  0.00    +0.000 C 
BRANCH  20  21
ATOM     21  C   UNL     1       1.990   5.874  19.766  0.00  0.00    +0.000 A 
ATOM     22  C   UNL     1       2.109   5.101  20.906  0.00  0.00    +0.000 A 
ATOM     23  C   UNL     1       1.891   3.713  20.639  0.00  0.00    +0.000 A 
ATOM     24  C   UNL     1       1.587   3.498  19.311  0.00  0.00    +0.000 A 
ATOM     25  S   UNL     1       1.475   4.938  18.421  0.00  0.00    +0.000 S 
BRANCH  24  26
ATOM     26  N   UNL     1       1.395   2.234  18.662  0.00  0.00    +0.000 N 
ATOM     27  O   UNL     1       2.423   1.612  18.342  0.00  0.00    +0.000 OA
ATOM     28  O   UNL     1       0.235   1.849  18.443  0.00  0.00    +0.000 OA
ENDBRANCH  24  26
ENDBRANCH  20  21
ENDBRANCH   1  20
TORSDOF 8
ENDMDL
MODEL 6
REMARK VINA RESULT:      -6.6      1.147      1.216
REMARK  Name = 
REMARK  9 active torsions:
REMARK  status: ('A' for Active; 'I' for Inactive)
REMARK    1  A    between atoms: C_1  and  S_2
REMARK    2  A    between atoms: S_2  and  N_5
REMARK    3  A    between atoms: C_8  and  C_9
REMARK    4  A    between atoms: C_9  and  N_10
REMARK    5  A    between atoms: N_10  and  C_11
REMARK    6  A    between atoms: N_10  and  C_19
REMARK    7  A    between atoms: C_11  and  C_12
REMARK    8  A    between atoms: C_19  and  C_20
REMARK    9  A    between atoms: C_23  and  N_24
REMARK                            x       y       z     vdW  Elec       q    Type
REMARK                         _______ _______ _______ _____ _____    ______ ____
ROOT
ATOM      1  N   UNL     1       3.045   7.486  18.222  0.00  0.00    +0.000 NA
ENDROOT
BRANCH   1   2
ATOM      2  C   UNL     1       2.530   8.671  17.513  0.00  0.00    +0.000 C 
BRANCH   2   6
ATOM      3  N   UNL     1      -0.892   9.904  18.281  0.00  0.00    +0.000 N 
ATOM      4  C   UNL     1      -0.289  10.131  19.488  0.00  0.00    +0.000 A 
ATOM      5  C   UNL     1       1.017   9.703  19.370  0.00  0.00    +0.000 A 
ATOM      6  C   UNL     1       1.209   9.182  18.050  0.00  0.00    +0.000 A 
ATOM      7  C   UNL     1      -0.045   9.214  17.446  0.00  0.00    +0.000 A 
BRANCH   3   9
ATOM      8  C   UNL     1      -2.469  11.031  16.167  0.00  0.00    +0.000 C 
ATOM      9  S   UNL     1      -2.436  10.517  17.859  0.00  0.00    +0.000 S 
ATOM     10  O   UNL     1      -2.602  11.702  18.679  0.00  0.00    +0.000 OA
ATOM     11  O   UNL     1      -3.325   9.383  17.989  0.00  0.00    +0.000 OA
ENDBRANCH   3   9
ENDBRANCH   2   6
ENDBRANCH   1   2
BRANCH   1  12
ATOM     12  C   UNL     1       2.423   6.206  17.833  0.00  0.00    +0.000 C 
BRANCH  12  13
ATOM     13  C   UNL     1       1.968   5.242  18.922  0.00  0.00    +0.000 A 
ATOM     14  C   UNL     1       1.375   4.005  18.609  0.00  0.00    +0.000 A 
ATOM     15  C   UNL     1       1.142   3.051  19.605  0.00  0.00    +0.000 A 
ATOM     16  C   UNL     1       1.489   3.327  20.925  0.00  0.00    +0.000 A 
ATOM     17 CL   UNL     1       1.322   2.111  22.131  0.00  0.00    +0.000 Cl
ATOM     18  C   UNL     1       2.017   4.568  21.264  0.00  0.00    +0.000 A 
ATOM     19  C   UNL     1       2.255   5.517  20.266  0.00  0.00    +0.000 A 
ENDBRANCH  12  13
ENDBRANCH   1  12
BRANCH   1  20
ATOM     20  C   UNL     1       4.515   7.371  18.142  0.00  0.00    +0.000 C 
BRANCH  20  21
ATOM     21  C   UNL     1       4.985   6.246  17.263  0.00  0.00    +0.000 A 
ATOM     22  C   UNL     1       5.271   4.936  17.598  0.00  0.00    +0.000 A 
ATOM     23  C   UNL     1       5.813   4.205  16.494  0.00  0.00    +0.000 A 
ATOM     24  C   UNL     1       5.888   4.988  15.361  0.00  0.00    +0.000 A 
ATOM     25  S   UNL     1       5.237   6.538  15.590  0.00  0.00    +0.000 S 
BRANCH  24  26
ATOM     26  N   UNL     1       6.457   4.625  14.096  0.00  0.00    +0.000 N 
ATOM     27  O   UNL     1       7.464   5.260  13.738  0.00  0.00    +0.000 OA
ATOM     28  O   UNL     1       5.911   3.727  13.435  0.00  0.00    +0.000 OA
ENDBRANCH  24  26
ENDBRANCH  20  21
ENDBRANCH   1  20
TORSDOF 8
ENDMDL
MODEL 7
REMARK VINA RESULT:      -6.6      1.260      1.771
REMARK  Name = 
REMARK  9 active torsions:
REMARK  status: ('A' for Active; 'I' for Inactive)
REMARK    1  A    between atoms: C_1  and  S_2
REMARK    2  A    between atoms: S_2  and  N_5
REMARK    3  A    between atoms: C_8  and  C_9
REMARK    4  A    between atoms: C_9  and  N_10
REMARK    5  A    between atoms: N_10  and  C_11
REMARK    6  A    between atoms: N_10  and  C_19
REMARK    7  A    between atoms: C_11  and  C_12
REMARK    8  A    between atoms: C_19  and  C_20
REMARK    9  A    between atoms: C_23  and  N_24
REMARK                            x       y       z     vdW  Elec       q    Type
REMARK                         _______ _______ _______ _____ _____    ______ ____
ROOT
ATOM      1  N   UNL     1       2.713   7.426  18.143  0.00  0.00    +0.000 NA
ENDROOT
BRANCH   1   2
ATOM      2  C   UNL     1       1.719   8.371  17.607  0.00  0.00    +0.000 C 
BRANCH   2   6
ATOM      3  N   UNL     1       0.757  11.029  20.022  0.00  0.00    +0.000 N 
ATOM      4  C   UNL     1       1.550  11.759  19.180  0.00  0.00    +0.000 A 
ATOM      5  C   UNL     1       2.009  10.892  18.211  0.00  0.00    +0.000 A 
ATOM      6  C   UNL     1       1.489   9.586  18.483  0.00  0.00    +0.000 A 
ATOM      7  C   UNL     1       0.813   9.695  19.695  0.00  0.00    +0.000 A 
BRANCH   3   9
ATOM      8  C   UNL     1       0.126  13.438  21.446  0.00  0.00    +0.000 C 
ATOM      9  S   UNL     1      -0.251  11.725  21.221  0.00  0.00    +0.000 S 
ATOM     10  O   UNL     1       0.101  11.036  22.448  0.00  0.00    +0.000 OA
ATOM     11  O   UNL     1      -1.585  11.639  20.668  0.00  0.00    +0.000 OA
ENDBRANCH   3   9
ENDBRANCH   2   6
ENDBRANCH   1   2
BRANCH   1  12
ATOM     12  C   UNL     1       2.498   6.014  17.772  0.00  0.00    +0.000 C 
BRANCH  12  13
ATOM     13  C   UNL     1       2.287   4.982  18.873  0.00  0.00    +0.000 A 
ATOM     14  C   UNL     1       2.811   5.166  20.165  0.00  0.00    +0.000 A 
ATOM     15  C   UNL     1       2.449   4.313  21.213  0.00  0.00    +0.000 A 
ATOM     16  C   UNL     1       1.567   3.262  20.978  0.00  0.00    +0.000 A 
ATOM     17 CL   UNL     1       1.020   2.289  22.287  0.00  0.00    +0.000 Cl
ATOM     18  C   UNL     1       1.087   3.026  19.694  0.00  0.00    +0.000 A 
ATOM     19  C   UNL     1       1.446   3.883  18.651  0.00  0.00    +0.000 A 
ENDBRANCH  12  13
ENDBRANCH   1  12
BRANCH   1  20
ATOM     20  C   UNL     1       4.100   7.819  17.823  0.00  0.00    +0.000 C 
BRANCH  20  21
ATOM     21  C   UNL     1       4.944   6.689  17.304  0.00  0.00    +0.000 A 
ATOM     22  C   UNL     1       5.684   5.756  18.007  0.00  0.00    +0.000 A 
ATOM     23  C   UNL     1       6.452   4.917  17.140  0.00  0.00    +0.000 A 
ATOM     24  C   UNL     1       6.237   5.232  15.814  0.00  0.00    +0.000 A 
ATOM     25  S   UNL     1       5.071   6.447  15.609  0.00  0.00    +0.000 S 
BRANCH  24  26
ATOM     26  N   UNL     1       6.897   4.666  14.674  0.00  0.00    +0.000 N 
ATOM     27  O   UNL     1       7.884   5.285  14.240  0.00  0.00    +0.000 OA
ATOM     28  O   UNL     1       6.441   3.622  14.181  0.00  0.00    +0.000 OA
ENDBRANCH  24  26
ENDBRANCH  20  21
ENDBRANCH   1  20
TORSDOF 8
ENDMDL
MODEL 8
REMARK VINA RESULT:      -6.5      4.162      6.240
REMARK  Name = 
REMARK  9 active torsions:
REMARK  status: ('A' for Active; 'I' for Inactive)
REMARK    1  A    between atoms: C_1  and  S_2
REMARK    2  A    between atoms: S_2  and  N_5
REMARK    3  A    between atoms: C_8  and  C_9
REMARK    4  A    between atoms: C_9  and  N_10
REMARK    5  A    between atoms: N_10  and  C_11
REMARK    6  A    between atoms: N_10  and  C_19
REMARK    7  A    between atoms: C_11  and  C_12
REMARK    8  A    between atoms: C_19  and  C_20
REMARK    9  A    between atoms: C_23  and  N_24
REMARK                            x       y       z     vdW  Elec       q    Type
REMARK                         _______ _______ _______ _____ _____    ______ ____
ROOT
ATOM      1  N   UNL     1       4.790   5.399  16.688  0.00  0.00    +0.000 NA
ENDROOT
BRANCH   1   2
ATOM      2  C   UNL     1       4.896   6.063  17.998  0.00  0.00    +0.000 C 
BRANCH   2   6
ATOM      3  N   UNL     1       2.055   8.393  18.571  0.00  0.00    +0.000 N 
ATOM      4  C   UNL     1       1.848   7.518  19.602  0.00  0.00    +0.000 A 
ATOM      5  C   UNL     1       2.835   6.559  19.519  0.00  0.00    +0.000 A 
ATOM      6  C   UNL     1       3.663   6.853  18.388  0.00  0.00    +0.000 A 
ATOM      7  C   UNL     1       3.063   7.938  17.754  0.00  0.00    +0.000 A 
BRANCH   3   9
ATOM      8  C   UNL     1       0.749  10.505  20.006  0.00  0.00    +0.000 C 
ATOM      9  S   UNL     1       1.247   9.897  18.422  0.00  0.00    +0.000 S 
ATOM     10  O   UNL     1       0.043   9.598  17.671  0.00  0.00    +0.000 OA
ATOM     11  O   UNL     1       2.252  10.799  17.903  0.00  0.00    +0.000 OA
ENDBRANCH   3   9
ENDBRANCH   2   6
ENDBRANCH   1   2
BRANCH   1  12
ATOM     12  C   UNL     1       5.798   5.815  15.693  0.00  0.00    +0.000 C 
BRANCH  12  13
ATOM     13  C   UNL     1       5.957   5.003  14.414  0.00  0.00    +0.000 A 
ATOM     14  C   UNL     1       7.214   4.813  13.814  0.00  0.00    +0.000 A 
ATOM     15  C   UNL     1       7.374   3.911  12.756  0.00  0.00    +0.000 A 
ATOM     16  C   UNL     1       6.277   3.197  12.282  0.00  0.00    +0.000 A 
ATOM     17 CL   UNL     1       6.491   1.995  11.070  0.00  0.00    +0.000 Cl
ATOM     18  C   UNL     1       5.013   3.418  12.820  0.00  0.00    +0.000 A 
ATOM     19  C   UNL     1       4.858   4.315  13.880  0.00  0.00    +0.000 A 
ENDBRANCH  12  13
ENDBRANCH   1  12
BRANCH   1  20
ATOM     20  C   UNL     1       4.777   3.926  16.797  0.00  0.00    +0.000 C 
BRANCH  20  21
ATOM     21  C   UNL     1       3.826   3.406  17.838  0.00  0.00    +0.000 A 
ATOM     22  C   UNL     1       2.479   3.119  17.726  0.00  0.00    +0.000 A 
ATOM     23  C   UNL     1       1.899   2.761  18.984  0.00  0.00    +0.000 A 
ATOM     24  C   UNL     1       2.842   2.765  19.991  0.00  0.00    +0.000 A 
ATOM     25  S   UNL     1       4.405   3.101  19.426  0.00  0.00    +0.000 S 
BRANCH  24  26
ATOM     26  N   UNL     1       2.613   2.545  21.390  0.00  0.00    +0.000 N 
ATOM     27  O   UNL     1       3.465   1.869  21.991  0.00  0.00    +0.000 OA
ATOM     28  O   UNL     1       1.587   3.017  21.905  0.00  0.00    +0.000 OA
ENDBRANCH  24  26
ENDBRANCH  20  21
ENDBRANCH   1  20
TORSDOF 8
ENDMDL
MODEL 9
REMARK VINA RESULT:      -6.5      3.817      5.330
REMARK  Name = 
REMARK  9 active torsions:
REMARK  status: ('A' for Active; 'I' for Inactive)
REMARK    1  A    between atoms: C_1  and  S_2
REMARK    2  A    between atoms: S_2  and  N_5
REMARK    3  A    between atoms: C_8  and  C_9
REMARK    4  A    between atoms: C_9  and  N_10
REMARK    5  A    between atoms: N_10  and  C_11
REMARK    6  A    between atoms: N_10  and  C_19
REMARK    7  A    between atoms: C_11  and  C_12
REMARK    8  A    between atoms: C_19  and  C_20
REMARK    9  A    between atoms: C_23  and  N_24
REMARK                            x       y       z     vdW  Elec       q    Type
REMARK                         _______ _______ _______ _____ _____    ______ ____
ROOT
ATOM      1  N   UNL     1       2.742   5.305  17.908  0.00  0.00    +0.000 NA
ENDROOT
BRANCH   1   2
ATOM      2  C   UNL     1       2.984   6.200  19.052  0.00  0.00    +0.000 C 
BRANCH   2   6
ATOM      3  N   UNL     1       1.155   9.432  19.231  0.00  0.00    +0.000 N 
ATOM      4  C   UNL     1       1.584   9.480  17.932  0.00  0.00    +0.000 A 
ATOM      5  C   UNL     1       2.309   8.330  17.706  0.00  0.00    +0.000 A 
ATOM      6  C   UNL     1       2.336   7.563  18.916  0.00  0.00    +0.000 A 
ATOM      7  C   UNL     1       1.707   8.350  19.876  0.00  0.00    +0.000 A 
BRANCH   3   9
ATOM      8  C   UNL     1      -0.367  10.092  21.571  0.00  0.00    +0.000 C 
ATOM      9  S   UNL     1      -0.005  10.508  19.891  0.00  0.00    +0.000 S 
ATOM     10  O   UNL     1      -1.208  10.277  19.115  0.00  0.00    +0.000 OA
ATOM     11  O   UNL     1       0.654  11.796  19.891  0.00  0.00    +0.000 OA
ENDBRANCH   3   9
ENDBRANCH   2   6
ENDBRANCH   1   2
BRANCH   1  12
ATOM     12  C   UNL     1       3.950   4.892  17.170  0.00  0.00    +0.000 C 
BRANCH  12  13
ATOM     13  C   UNL     1       5.250   5.656  17.388  0.00  0.00    +0.000 A 
ATOM     14  C   UNL     1       5.503   6.879  16.741  0.00  0.00    +0.000 A 
ATOM     15  C   UNL     1       6.607   7.662  17.096  0.00  0.00    +0.000 A 
ATOM     16  C   UNL     1       7.474   7.226  18.095  0.00  0.00    +0.000 A 
ATOM     17 CL   UNL     1       8.758   8.243  18.624  0.00  0.00    +0.000 Cl
ATOM     18  C   UNL     1       7.276   5.991  18.702  0.00  0.00    +0.000 A 
ATOM     19  C   UNL     1       6.170   5.214  18.350  0.00  0.00    +0.000 A 
ENDBRANCH  12  13
ENDBRANCH   1  12
BRANCH   1  20
ATOM     20  C   UNL     1       1.952   4.113  18.277  0.00  0.00    +0.000 C 
BRANCH  20  21
ATOM     21  C   UNL     1       2.587   3.277  19.353  0.00  0.00    +0.000 A 
ATOM     22  C   UNL     1       2.339   3.266  20.713  0.00  0.00    +0.000 A 
ATOM     23  C   UNL     1       3.244   2.412  21.417  0.00  0.00    +0.000 A 
ATOM     24  C   UNL     1       4.123   1.790  20.555  0.00  0.00    +0.000 A 
ATOM     25  S   UNL     1       3.811   2.150  18.927  0.00  0.00    +0.000 S 
BRANCH  24  26
ATOM     26  N   UNL     1       5.221   0.938  20.906  0.00  0.00    +0.000 N 
ATOM     27  O   UNL     1       5.835   1.226  21.949  0.00  0.00    +0.000 OA
ATOM     28  O   UNL     1       5.504  -0.008  20.154  0.00  0.00    +0.000 OA
ENDBRANCH  24  26
ENDBRANCH  20  21
ENDBRANCH   1  20
TORSDOF 8
ENDMDL
