MODEL 1
REMARK VINA RESULT:      -7.8      0.000      0.000
REMARK  Name = 
REMARK  7 active torsions:
REMARK  status: ('A' for Active; 'I' for Inactive)
REMARK    1  A    between atoms: O_1  and  N_2
REMARK    2  A    between atoms: C_3  and  C_12
REMARK    3  A    between atoms: N_4  and  C_5
REMARK    4  A    between atoms: C_5  and  C_6
REMARK    5  A    between atoms: C_17  and  O_18
REMARK    6  A    between atoms: O_18  and  C_19
REMARK    7  A    between atoms: C_19  and  C_20
REMARK                            x       y       z     vdW  Elec       q    Type
REMARK                         _______ _______ _______ _____ _____    ______ ____
ROOT
ATOM      1  N   UNL     1       7.789   5.360  19.096  0.00  0.00    +0.000 NA
ATOM      2  C   UNL     1       6.558   5.072  18.781  0.00  0.00    +0.000 C 
ATOM      3  N   UNL     1       5.604   4.730  19.731  0.00  0.00    +0.000 N 
ATOM      4  H   UNL     1       5.925   4.819  20.691  0.00  0.00    +0.000 HD
ENDROOT
BRANCH   2   5
ATOM      5  C   UNL     1       6.186   5.146  17.331  0.00  0.00    +0.000 A 
ATOM      6  C   UNL     1       6.657   4.159  16.455  0.00  0.00    +0.000 A 
ATOM      7  C   UNL     1       6.488   4.308  15.082  0.00  0.00    +0.000 A 
ATOM      8  C   UNL     1       5.801   5.419  14.632  0.00  0.00    +0.000 A 
ATOM      9  N   UNL     1       5.290   6.366  15.447  0.00  0.00    +0.000 NA
ATOM     10  C   UNL     1       5.484   6.216  16.783  0.00  0.00    +0.000 A 
BRANCH  10  11
ATOM     11  O   UNL     1       4.969   7.193  17.604  0.00  0.00    +0.000 OA
BRANCH  11  12
ATOM     12  C   UNL     1       3.673   7.665  17.204  0.00  0.00    +0.000 C 
BRANCH  12  13
ATOM     13  C   UNL     1       2.502   7.252  18.098  0.00  0.00    +0.000 C 
ATOM     14  F   UNL     1       2.782   7.276  19.418  0.00  0.00    +0.000 F 
ATOM     15  F   UNL     1       1.457   8.103  17.907  0.00  0.00    +0.000 F 
ATOM     16  F   UNL     1       2.043   6.017  17.786  0.00  0.00    +0.000 F 
ENDBRANCH  12  13
ENDBRANCH  11  12
ENDBRANCH  10  11
ENDBRANCH   2   5
BRANCH   1  17
ATOM     17  O   UNL     1       7.997   5.240  20.483  0.00  0.00    +0.000 OA
ATOM     18  H   UNL     1       8.955   5.408  20.551  0.00  0.00    +0.000 HD
ENDBRANCH   1  17
BRANCH   3  19
ATOM     19  C   UNL     1       4.248   4.305  19.478  0.00  0.00    +0.000 C 
BRANCH  19  20
ATOM     20  C   UNL     1       3.943   2.834  19.793  0.00  0.00    +0.000 C 
ATOM     21  C   UNL     1       2.758   2.783  20.786  0.00  0.00    +0.000 C 
ATOM     22  C   UNL     1       1.433   3.222  20.148  0.00  0.00    +0.000 C 
ATOM     23  C   UNL     1       1.119   2.428  18.875  0.00  0.00    +0.000 C 
ATOM     24  C   UNL     1       2.294   2.387  17.898  0.00  0.00    +0.000 C 
ATOM     25  C   UNL     1       3.601   1.975  18.568  0.00  0.00    +0.000 C 
ENDBRANCH  19  20
ENDBRANCH   3  19
TORSDOF 7
ENDMDL
MODEL 2
REMARK VINA RESULT:      -7.5      0.899      1.712
REMARK  Name = 
REMARK  7 active torsions:
REMARK  status: ('A' for Active; 'I' for Inactive)
REMARK    1  A    between atoms: O_1  and  N_2
REMARK    2  A    between atoms: C_3  and  C_12
REMARK    3  A    between atoms: N_4  and  C_5
REMARK    4  A    between atoms: C_5  and  C_6
REMARK    5  A    between atoms: C_17  and  O_18
REMARK    6  A    between atoms: O_18  and  C_19
REMARK    7  A    between atoms: C_19  and  C_20
REMARK                            x       y       z     vdW  Elec       q    Type
REMARK                         _______ _______ _______ _____ _____    ______ ____
ROOT
ATOM      1  N   UNL     1       7.614   5.566  19.170  0.00  0.00    +0.000 NA
ATOM      2  C   UNL     1       6.472   5.086  18.764  0.00  0.00    +0.000 C 
ATOM      3  N   UNL     1       5.533   4.552  19.638  0.00  0.00    +0.000 N 
ATOM      4  H   UNL     1       5.774   4.658  20.620  0.00  0.00    +0.000 HD
ENDROOT
BRANCH   2   5
ATOM      5  C   UNL     1       6.185   5.149  17.295  0.00  0.00    +0.000 A 
ATOM      6  C   UNL     1       6.823   4.245  16.435  0.00  0.00    +0.000 A 
ATOM      7  C   UNL     1       6.723   4.406  15.057  0.00  0.00    +0.000 A 
ATOM      8  C   UNL     1       5.939   5.439  14.582  0.00  0.00    +0.000 A 
ATOM      9  N   UNL     1       5.270   6.300  15.378  0.00  0.00    +0.000 NA
ATOM     10  C   UNL     1       5.397   6.142  16.721  0.00  0.00    +0.000 A 
BRANCH  10  11
ATOM     11  O   UNL     1       4.721   7.033  17.522  0.00  0.00    +0.000 OA
BRANCH  11  12
ATOM     12  C   UNL     1       3.421   7.391  17.026  0.00  0.00    +0.000 C 
BRANCH  12  13
ATOM     13  C   UNL     1       2.578   8.288  17.933  0.00  0.00    +0.000 C 
ATOM     14  F   UNL     1       1.282   8.379  17.568  0.00  0.00    +0.000 F 
ATOM     15  F   UNL     1       2.591   7.799  19.203  0.00  0.00    +0.000 F 
ATOM     16  F   UNL     1       3.084   9.543  18.009  0.00  0.00    +0.000 F 
ENDBRANCH  12  13
ENDBRANCH  11  12
ENDBRANCH  10  11
ENDBRANCH   2   5
BRANCH   1  17
ATOM     17  O   UNL     1       7.752   5.431  20.565  0.00  0.00    +0.000 OA
ATOM     18  H   UNL     1       7.730   4.462  20.670  0.00  0.00    +0.000 HD
ENDBRANCH   1  17
BRANCH   3  19
ATOM     19  C   UNL     1       4.289   3.913  19.282  0.00  0.00    +0.000 C 
BRANCH  19  20
ATOM     20  C   UNL     1       3.026   4.762  19.485  0.00  0.00    +0.000 C 
ATOM     21  C   UNL     1       2.019   4.412  18.364  0.00  0.00    +0.000 C 
ATOM     22  C   UNL     1       1.442   2.997  18.507  0.00  0.00    +0.000 C 
ATOM     23  C   UNL     1       0.827   2.766  19.892  0.00  0.00    +0.000 C 
ATOM     24  C   UNL     1       1.762   3.173  21.030  0.00  0.00    +0.000 C 
ATOM     25  C   UNL     1       2.340   4.572  20.845  0.00  0.00    +0.000 C 
ENDBRANCH  19  20
ENDBRANCH   3  19
TORSDOF 7
ENDMDL
MODEL 3
REMARK VINA RESULT:      -7.2      0.873      1.288
REMARK  Name = 
REMARK  7 active torsions:
REMARK  status: ('A' for Active; 'I' for Inactive)
REMARK    1  A    between atoms: O_1  and  N_2
REMARK    2  A    between atoms: C_3  and  C_12
REMARK    3  A    between atoms: N_4  and  C_5
REMARK    4  A    between atoms: C_5  and  C_6
REMARK    5  A    between atoms: C_17  and  O_18
REMARK    6  A    between atoms: O_18  and  C_19
REMARK    7  A    between atoms: C_19  and  C_20
REMARK                            x       y       z     vdW  Elec       q    Type
REMARK                         _______ _______ _______ _____ _____    ______ ____
ROOT
ATOM      1  N   UNL     1       7.719   5.589  19.236  0.00  0.00    +0.000 NA
ATOM      2  C   UNL     1       6.635   4.996  18.822  0.00  0.00    +0.000 C 
ATOM      3  N   UNL     1       5.794   4.294  19.677  0.00  0.00    +0.000 N 
ATOM      4  H   UNL     1       6.047   4.368  20.658  0.00  0.00    +0.000 HD
ENDROOT
BRANCH   2   5
ATOM      5  C   UNL     1       6.302   5.115  17.366  0.00  0.00    +0.000 A 
ATOM      6  C   UNL     1       7.031   4.364  16.435  0.00  0.00    +0.000 A 
ATOM      7  C   UNL     1       6.873   4.599  15.073  0.00  0.00    +0.000 A 
ATOM      8  C   UNL     1       5.945   5.545  14.684  0.00  0.00    +0.000 A 
ATOM      9  N   UNL     1       5.188   6.254  15.549  0.00  0.00    +0.000 NA
ATOM     10  C   UNL     1       5.372   6.028  16.875  0.00  0.00    +0.000 A 
BRANCH  10  11
ATOM     11  O   UNL     1       4.605   6.765  17.748  0.00  0.00    +0.000 OA
BRANCH  11  12
ATOM     12  C   UNL     1       3.802   7.770  17.110  0.00  0.00    +0.000 C 
BRANCH  12  13
ATOM     13  C   UNL     1       2.576   8.248  17.890  0.00  0.00    +0.000 C 
ATOM     14  F   UNL     1       2.337   9.572  17.783  0.00  0.00    +0.000 F 
ATOM     15  F   UNL     1       1.463   7.614  17.431  0.00  0.00    +0.000 F 
ATOM     16  F   UNL     1       2.667   7.941  19.207  0.00  0.00    +0.000 F 
ENDBRANCH  12  13
ENDBRANCH  11  12
ENDBRANCH  10  11
ENDBRANCH   2   5
BRANCH   1  17
ATOM     17  O   UNL     1       7.911   5.385  20.616  0.00  0.00    +0.000 OA
ATOM     18  H   UNL     1       8.882   5.322  20.670  0.00  0.00    +0.000 HD
ENDBRANCH   1  17
BRANCH   3  19
ATOM     19  C   UNL     1       4.629   3.528  19.304  0.00  0.00    +0.000 C 
BRANCH  19  20
ATOM     20  C   UNL     1       3.373   3.778  20.150  0.00  0.00    +0.000 C 
ATOM     21  C   UNL     1       2.515   4.855  19.444  0.00  0.00    +0.000 C 
ATOM     22  C   UNL     1       1.888   4.349  18.138  0.00  0.00    +0.000 C 
ATOM     23  C   UNL     1       1.088   3.059  18.347  0.00  0.00    +0.000 C 
ATOM     24  C   UNL     1       1.873   1.993  19.111  0.00  0.00    +0.000 C 
ATOM     25  C   UNL     1       2.506   2.533  20.389  0.00  0.00    +0.000 C 
ENDBRANCH  19  20
ENDBRANCH   3  19
TORSDOF 7
ENDMDL
MODEL 4
REMARK VINA RESULT:      -7.2      2.612      3.660
REMARK  Name = 
REMARK  7 active torsions:
REMARK  status: ('A' for Active; 'I' for Inactive)
REMARK    1  A    between atoms: O_1  and  N_2
REMARK    2  A    between atoms: C_3  and  C_12
REMARK    3  A    between atoms: N_4  and  C_5
REMARK    4  A    between atoms: C_5  and  C_6
REMARK    5  A    between atoms: C_17  and  O_18
REMARK    6  A    between atoms: O_18  and  C_19
REMARK    7  A    between atoms: C_19  and  C_20
REMARK                            x       y       z     vdW  Elec       q    Type
REMARK                         _______ _______ _______ _____ _____    ______ ____
ROOT
ATOM      1  N   UNL     1       5.194   4.158  15.877  0.00  0.00    +0.000 NA
ATOM      2  C   UNL     1       4.767   4.336  17.096  0.00  0.00    +0.000 C 
ATOM      3  N   UNL     1       4.919   3.377  18.089  0.00  0.00    +0.000 N 
ATOM      4  H   UNL     1       5.474   2.573  17.807  0.00  0.00    +0.000 HD
ENDROOT
BRANCH   2   5
ATOM      5  C   UNL     1       4.113   5.648  17.408  0.00  0.00    +0.000 A 
ATOM      6  C   UNL     1       2.819   5.654  17.946  0.00  0.00    +0.000 A 
ATOM      7  C   UNL     1       2.120   6.850  18.064  0.00  0.00    +0.000 A 
ATOM      8  C   UNL     1       2.762   8.015  17.689  0.00  0.00    +0.000 A 
ATOM      9  N   UNL     1       4.025   8.054  17.212  0.00  0.00    +0.000 NA
ATOM     10  C   UNL     1       4.685   6.875  17.083  0.00  0.00    +0.000 A 
BRANCH  10  11
ATOM     11  O   UNL     1       5.966   6.926  16.584  0.00  0.00    +0.000 OA
BRANCH  11  12
ATOM     12  C   UNL     1       6.939   7.397  17.530  0.00  0.00    +0.000 C 
BRANCH  12  13
ATOM     13  C   UNL     1       7.607   6.329  18.397  0.00  0.00    +0.000 C 
ATOM     14  F   UNL     1       8.721   6.751  19.032  0.00  0.00    +0.000 F 
ATOM     15  F   UNL     1       6.743   5.914  19.363  0.00  0.00    +0.000 F 
ATOM     16  F   UNL     1       7.924   5.225  17.679  0.00  0.00    +0.000 F 
ENDBRANCH  12  13
ENDBRANCH  11  12
ENDBRANCH  10  11
ENDBRANCH   2   5
BRANCH   1  17
ATOM     17  O   UNL     1       5.774   2.884  15.727  0.00  0.00    +0.000 OA
ATOM     18  H   UNL     1       5.182   2.335  16.272  0.00  0.00    +0.000 HD
ENDBRANCH   1  17
BRANCH   3  19
ATOM     19  C   UNL     1       4.401   3.438  19.435  0.00  0.00    +0.000 C 
BRANCH  19  20
ATOM     20  C   UNL     1       3.596   2.215  19.893  0.00  0.00    +0.000 C 
ATOM     21  C   UNL     1       2.864   2.577  21.207  0.00  0.00    +0.000 C 
ATOM     22  C   UNL     1       1.740   3.600  20.997  0.00  0.00    +0.000 C 
ATOM     23  C   UNL     1       0.747   3.147  19.921  0.00  0.00    +0.000 C 
ATOM     24  C   UNL     1       1.434   2.706  18.629  0.00  0.00    +0.000 C 
ATOM     25  C   UNL     1       2.564   1.711  18.874  0.00  0.00    +0.000 C 
ENDBRANCH  19  20
ENDBRANCH   3  19
TORSDOF 7
ENDMDL
MODEL 5
REMARK VINA RESULT:      -7.1      3.270      5.694
REMARK  Name = 
REMARK  7 active torsions:
REMARK  status: ('A' for Active; 'I' for Inactive)
REMARK    1  A    between atoms: O_1  and  N_2
REMARK    2  A    between atoms: C_3  and  C_12
REMARK    3  A    between atoms: N_4  and  C_5
REMARK    4  A    between atoms: C_5  and  C_6
REMARK    5  A    between atoms: C_17  and  O_18
REMARK    6  A    between atoms: O_18  and  C_19
REMARK    7  A    between atoms: C_19  and  C_20
REMARK                            x       y       z     vdW  Elec       q    Type
REMARK                         _______ _______ _______ _____ _____    ______ ____
ROOT
ATOM      1  N   UNL     1       1.678   3.561  17.547  0.00  0.00    +0.000 NA
ATOM      2  C   UNL     1       2.678   4.297  17.943  0.00  0.00    +0.000 C 
ATOM      3  N   UNL     1       3.996   3.862  17.882  0.00  0.00    +0.000 N 
ATOM      4  H   UNL     1       4.115   2.967  17.416  0.00  0.00    +0.000 HD
ENDROOT
BRANCH   2   5
ATOM      5  C   UNL     1       2.359   5.668  18.455  0.00  0.00    +0.000 A 
ATOM      6  C   UNL     1       2.778   6.786  17.721  0.00  0.00    +0.000 A 
ATOM      7  C   UNL     1       2.665   8.060  18.268  0.00  0.00    +0.000 A 
ATOM      8  C   UNL     1       2.082   8.179  19.514  0.00  0.00    +0.000 A 
ATOM      9  N   UNL     1       1.621   7.132  20.230  0.00  0.00    +0.000 NA
ATOM     10  C   UNL     1       1.760   5.893  19.692  0.00  0.00    +0.000 A 
BRANCH  10  11
ATOM     11  O   UNL     1       1.299   4.832  20.436  0.00  0.00    +0.000 OA
BRANCH  11  12
ATOM     12  C   UNL     1       2.305   4.214  21.254  0.00  0.00    +0.000 C 
BRANCH  12  13
ATOM     13  C   UNL     1       2.157   2.709  21.481  0.00  0.00    +0.000 C 
ATOM     14  F   UNL     1       1.187   2.377  22.360  0.00  0.00    +0.000 F 
ATOM     15  F   UNL     1       1.843   2.096  20.307  0.00  0.00    +0.000 F 
ATOM     16  F   UNL     1       3.316   2.147  21.900  0.00  0.00    +0.000 F 
ENDBRANCH  12  13
ENDBRANCH  11  12
ENDBRANCH  10  11
ENDBRANCH   2   5
BRANCH   1  17
ATOM     17  O   UNL     1       2.123   2.301  17.102  0.00  0.00    +0.000 OA
ATOM     18  H   UNL     1       1.278   1.847  16.927  0.00  0.00    +0.000 HD
ENDBRANCH   1  17
BRANCH   3  19
ATOM     19  C   UNL     1       5.158   4.558  18.380  0.00  0.00    +0.000 C 
BRANCH  19  20
ATOM     20  C   UNL     1       6.369   4.586  17.437  0.00  0.00    +0.000 C 
ATOM     21  C   UNL     1       6.179   5.749  16.434  0.00  0.00    +0.000 C 
ATOM     22  C   UNL     1       6.297   7.127  17.097  0.00  0.00    +0.000 C 
ATOM     23  C   UNL     1       7.609   7.280  17.873  0.00  0.00    +0.000 C 
ATOM     24  C   UNL     1       7.875   6.111  18.822  0.00  0.00    +0.000 C 
ATOM     25  C   UNL     1       7.723   4.755  18.141  0.00  0.00    +0.000 C 
ENDBRANCH  19  20
ENDBRANCH   3  19
TORSDOF 7
ENDMDL
MODEL 6
REMARK VINA RESULT:      -7.1      3.015      5.297
REMARK  Name = 
REMARK  7 active torsions:
REMARK  status: ('A' for Active; 'I' for Inactive)
REMARK    1  A    between atoms: O_1  and  N_2
REMARK    2  A    between atoms: C_3  and  C_12
REMARK    3  A    between atoms: N_4  and  C_5
REMARK    4  A    between atoms: C_5  and  C_6
REMARK    5  A    between atoms: C_17  and  O_18
REMARK    6  A    between atoms: O_18  and  C_19
REMARK    7  A    between atoms: C_19  and  C_20
REMARK                            x       y       z     vdW  Elec       q    Type
REMARK                         _______ _______ _______ _____ _____    ______ ____
ROOT
ATOM      1  N   UNL     1       3.393   3.301  17.825  0.00  0.00    +0.000 NA
ATOM      2  C   UNL     1       4.050   4.277  18.386  0.00  0.00    +0.000 C 
ATOM      3  N   UNL     1       5.373   4.151  18.791  0.00  0.00    +0.000 N 
ATOM      4  H   UNL     1       5.806   3.272  18.524  0.00  0.00    +0.000 HD
ENDROOT
BRANCH   2   5
ATOM      5  C   UNL     1       3.327   5.577  18.563  0.00  0.00    +0.000 A 
ATOM      6  C   UNL     1       3.336   6.511  17.519  0.00  0.00    +0.000 A 
ATOM      7  C   UNL     1       2.840   7.794  17.728  0.00  0.00    +0.000 A 
ATOM      8  C   UNL     1       2.297   8.084  18.965  0.00  0.00    +0.000 A 
ATOM      9  N   UNL     1       2.226   7.197  19.979  0.00  0.00    +0.000 NA
ATOM     10  C   UNL     1       2.735   5.956  19.765  0.00  0.00    +0.000 A 
BRANCH  10  11
ATOM     11  O   UNL     1       2.668   5.063  20.810  0.00  0.00    +0.000 OA
BRANCH  11  12
ATOM     12  C   UNL     1       1.505   4.221  20.781  0.00  0.00    +0.000 C 
BRANCH  12  13
ATOM     13  C   UNL     1       1.709   2.776  21.239  0.00  0.00    +0.000 C 
ATOM     14  F   UNL     1       2.885   2.557  21.865  0.00  0.00    +0.000 F 
ATOM     15  F   UNL     1       0.731   2.429  22.118  0.00  0.00    +0.000 F 
ATOM     16  F   UNL     1       1.613   1.904  20.206  0.00  0.00    +0.000 F 
ENDBRANCH  12  13
ENDBRANCH  11  12
ENDBRANCH  10  11
ENDBRANCH   2   5
BRANCH   1  17
ATOM     17  O   UNL     1       4.189   2.143  17.732  0.00  0.00    +0.000 OA
ATOM     18  H   UNL     1       3.890   1.639  18.511  0.00  0.00    +0.000 HD
ENDBRANCH   1  17
BRANCH   3  19
ATOM     19  C   UNL     1       6.154   5.135  19.502  0.00  0.00    +0.000 C 
BRANCH  19  20
ATOM     20  C   UNL     1       7.555   5.404  18.937  0.00  0.00    +0.000 C 
ATOM     21  C   UNL     1       7.781   4.469  17.725  0.00  0.00    +0.000 C 
ATOM     22  C   UNL     1       6.907   4.842  16.520  0.00  0.00    +0.000 C 
ATOM     23  C   UNL     1       7.077   6.311  16.120  0.00  0.00    +0.000 C 
ATOM     24  C   UNL     1       6.939   7.267  17.305  0.00  0.00    +0.000 C 
ATOM     25  C   UNL     1       7.798   6.854  18.496  0.00  0.00    +0.000 C 
ENDBRANCH  19  20
ENDBRANCH   3  19
TORSDOF 7
ENDMDL
MODEL 7
REMARK VINA RESULT:      -7.0      2.462      3.614
REMARK  Name = 
REMARK  7 active torsions:
REMARK  status: ('A' for Active; 'I' for Inactive)
REMARK    1  A    between atoms: O_1  and  N_2
REMARK    2  A    between atoms: C_3  and  C_12
REMARK    3  A    between atoms: N_4  and  C_5
REMARK    4  A    between atoms: C_5  and  C_6
REMARK    5  A    between atoms: C_17  and  O_18
REMARK    6  A    between atoms: O_18  and  C_19
REMARK    7  A    between atoms: C_19  and  C_20
REMARK                            x       y       z     vdW  Elec       q    Type
REMARK                         _______ _______ _______ _____ _____    ______ ____
ROOT
ATOM      1  N   UNL     1       3.651   7.572  17.412  0.00  0.00    +0.000 NA
ATOM      2  C   UNL     1       4.068   6.341  17.507  0.00  0.00    +0.000 C 
ATOM      3  N   UNL     1       3.586   5.460  18.467  0.00  0.00    +0.000 N 
ATOM      4  H   UNL     1       2.816   5.830  19.018  0.00  0.00    +0.000 HD
ENDROOT
BRANCH   2   5
ATOM      5  C   UNL     1       5.092   5.885  16.512  0.00  0.00    +0.000 A 
ATOM      6  C   UNL     1       4.736   4.918  15.562  0.00  0.00    +0.000 A 
ATOM      7  C   UNL     1       5.712   4.341  14.756  0.00  0.00    +0.000 A 
ATOM      8  C   UNL     1       7.011   4.793  14.890  0.00  0.00    +0.000 A 
ATOM      9  N   UNL     1       7.384   5.756  15.759  0.00  0.00    +0.000 NA
ATOM     10  C   UNL     1       6.422   6.293  16.553  0.00  0.00    +0.000 A 
BRANCH  10  11
ATOM     11  O   UNL     1       6.816   7.265  17.444  0.00  0.00    +0.000 OA
BRANCH  11  12
ATOM     12  C   UNL     1       7.928   6.883  18.268  0.00  0.00    +0.000 C 
BRANCH  12  13
ATOM     13  C   UNL     1       7.735   5.625  19.115  0.00  0.00    +0.000 C 
ATOM     14  F   UNL     1       7.805   4.473  18.415  0.00  0.00    +0.000 F 
ATOM     15  F   UNL     1       8.706   5.559  20.068  0.00  0.00    +0.000 F 
ATOM     16  F   UNL     1       6.556   5.643  19.782  0.00  0.00    +0.000 F 
ENDBRANCH  12  13
ENDBRANCH  11  12
ENDBRANCH  10  11
ENDBRANCH   2   5
BRANCH   1  17
ATOM     17  O   UNL     1       2.704   7.863  18.412  0.00  0.00    +0.000 OA
ATOM     18  H   UNL     1       2.694   7.031  18.919  0.00  0.00    +0.000 HD
ENDBRANCH   1  17
BRANCH   3  19
ATOM     19  C   UNL     1       4.048   4.115  18.715  0.00  0.00    +0.000 C 
BRANCH  19  20
ATOM     20  C   UNL     1       2.993   3.012  18.559  0.00  0.00    +0.000 C 
ATOM     21  C   UNL     1       3.158   2.010  19.726  0.00  0.00    +0.000 C 
ATOM     22  C   UNL     1       2.753   2.607  21.080  0.00  0.00    +0.000 C 
ATOM     23  C   UNL     1       1.335   3.187  21.050  0.00  0.00    +0.000 C 
ATOM     24  C   UNL     1       1.104   4.125  19.865  0.00  0.00    +0.000 C 
ATOM     25  C   UNL     1       1.542   3.514  18.538  0.00  0.00    +0.000 C 
ENDBRANCH  19  20
ENDBRANCH   3  19
TORSDOF 7
ENDMDL
MODEL 8
REMARK VINA RESULT:      -6.9      3.003      5.559
REMARK  Name = 
REMARK  7 active torsions:
REMARK  status: ('A' for Active; 'I' for Inactive)
REMARK    1  A    between atoms: O_1  and  N_2
REMARK    2  A    between atoms: C_3  and  C_12
REMARK    3  A    between atoms: N_4  and  C_5
REMARK    4  A    between atoms: C_5  and  C_6
REMARK    5  A    between atoms: C_17  and  O_18
REMARK    6  A    between atoms: O_18  and  C_19
REMARK    7  A    between atoms: C_19  and  C_20
REMARK                            x       y       z     vdW  Elec       q    Type
REMARK                         _______ _______ _______ _____ _____    ______ ____
ROOT
ATOM      1  N   UNL     1       1.710   4.239  17.354  0.00  0.00    +0.000 NA
ATOM      2  C   UNL     1       2.645   4.994  17.860  0.00  0.00    +0.000 C 
ATOM      3  N   UNL     1       3.988   4.638  17.834  0.00  0.00    +0.000 N 
ATOM      4  H   UNL     1       4.182   3.793  17.305  0.00  0.00    +0.000 HD
ENDROOT
BRANCH   2   5
ATOM      5  C   UNL     1       2.221   6.298  18.463  0.00  0.00    +0.000 A 
ATOM      6  C   UNL     1       2.051   7.412  17.630  0.00  0.00    +0.000 A 
ATOM      7  C   UNL     1       1.847   8.671  18.185  0.00  0.00    +0.000 A 
ATOM      8  C   UNL     1       1.765   8.766  19.561  0.00  0.00    +0.000 A 
ATOM      9  N   UNL     1       1.875   7.710  20.393  0.00  0.00    +0.000 NA
ATOM     10  C   UNL     1       2.096   6.491  19.836  0.00  0.00    +0.000 A 
BRANCH  10  11
ATOM     11  O   UNL     1       2.219   5.423  20.695  0.00  0.00    +0.000 OA
BRANCH  11  12
ATOM     12  C   UNL     1       1.057   4.580  20.744  0.00  0.00    +0.000 C 
BRANCH  12  13
ATOM     13  C   UNL     1       1.318   3.073  20.714  0.00  0.00    +0.000 C 
ATOM     14  F   UNL     1       2.594   2.740  20.426  0.00  0.00    +0.000 F 
ATOM     15  F   UNL     1       1.041   2.534  21.932  0.00  0.00    +0.000 F 
ATOM     16  F   UNL     1       0.508   2.441  19.830  0.00  0.00    +0.000 F 
ENDBRANCH  12  13
ENDBRANCH  11  12
ENDBRANCH  10  11
ENDBRANCH   2   5
BRANCH   1  17
ATOM     17  O   UNL     1       2.250   3.047  16.833  0.00  0.00    +0.000 OA
ATOM     18  H   UNL     1       1.734   2.943  16.013  0.00  0.00    +0.000 HD
ENDBRANCH   1  17
BRANCH   3  19
ATOM     19  C   UNL     1       5.082   5.353  18.447  0.00  0.00    +0.000 C 
BRANCH  19  20
ATOM     20  C   UNL     1       5.826   6.336  17.534  0.00  0.00    +0.000 C 
ATOM     21  C   UNL     1       7.319   5.934  17.497  0.00  0.00    +0.000 C 
ATOM     22  C   UNL     1       7.558   4.613  16.754  0.00  0.00    +0.000 C 
ATOM     23  C   UNL     1       6.959   4.632  15.344  0.00  0.00    +0.000 C 
ATOM     24  C   UNL     1       5.504   5.100  15.325  0.00  0.00    +0.000 C 
ATOM     25  C   UNL     1       5.295   6.399  16.095  0.00  0.00    +0.000 C 
ENDBRANCH  19  20
ENDBRANCH   3  19
TORSDOF 7
ENDMDL
MODEL 9
REMARK VINA RESULT:      -6.9      3.000      4.182
REMARK  Name = 
REMARK  7 active torsions:
REMARK  status: ('A' for Active; 'I' for Inactive)
REMARK    1  A    between atoms: O_1  and  N_2
REMARK    2  A    between atoms: C_3  and  C_12
REMARK    3  A    between atoms: N_4  and  C_5
REMARK    4  A    between atoms: C_5  and  C_6
REMARK    5  A    between atoms: C_17  and  O_18
REMARK    6  A    between atoms: O_18  and  C_19
REMARK    7  A    between atoms: C_19  and  C_20
REMARK                            x       y       z     vdW  Elec       q    Type
REMARK                         _______ _______ _______ _____ _____    ______ ____
ROOT
ATOM      1  N   UNL     1       3.277   7.276  18.069  0.00  0.00    +0.000 NA
ATOM      2  C   UNL     1       3.734   6.074  17.858  0.00  0.00    +0.000 C 
ATOM      3  N   UNL     1       2.917   5.022  17.462  0.00  0.00    +0.000 N 
ATOM      4  H   UNL     1       1.959   5.296  17.260  0.00  0.00    +0.000 HD
ENDROOT
BRANCH   2   5
ATOM      5  C   UNL     1       5.206   5.859  18.035  0.00  0.00    +0.000 A 
ATOM      6  C   UNL     1       5.688   5.430  19.279  0.00  0.00    +0.000 A 
ATOM      7  C   UNL     1       7.057   5.409  19.527  0.00  0.00    +0.000 A 
ATOM      8  C   UNL     1       7.905   5.767  18.496  0.00  0.00    +0.000 A 
ATOM      9  N   UNL     1       7.481   6.138  17.270  0.00  0.00    +0.000 NA
ATOM     10  C   UNL     1       6.141   6.175  17.053  0.00  0.00    +0.000 A 
BRANCH  10  11
ATOM     11  O   UNL     1       5.720   6.567  15.803  0.00  0.00    +0.000 OA
BRANCH  11  12
ATOM     12  C   UNL     1       5.318   5.478  14.958  0.00  0.00    +0.000 C 
BRANCH  12  13
ATOM     13  C   UNL     1       6.423   4.503  14.547  0.00  0.00    +0.000 C 
ATOM     14  F   UNL     1       6.700   3.562  15.475  0.00  0.00    +0.000 F 
ATOM     15  F   UNL     1       6.053   3.838  13.418  0.00  0.00    +0.000 F 
ATOM     16  F   UNL     1       7.575   5.147  14.243  0.00  0.00    +0.000 F 
ENDBRANCH  12  13
ENDBRANCH  11  12
ENDBRANCH  10  11
ENDBRANCH   2   5
BRANCH   1  17
ATOM     17  O   UNL     1       1.883   7.328  17.875  0.00  0.00    +0.000 OA
ATOM     18  H   UNL     1       1.556   6.998  18.732  0.00  0.00    +0.000 HD
ENDBRANCH   1  17
BRANCH   3  19
ATOM     19  C   UNL     1       3.306   3.642  17.296  0.00  0.00    +0.000 C 
BRANCH  19  20
ATOM     20  C   UNL     1       2.371   2.607  17.935  0.00  0.00    +0.000 C 
ATOM     21  C   UNL     1       3.212   1.696  18.861  0.00  0.00    +0.000 C 
ATOM     22  C   UNL     1       3.724   2.431  20.107  0.00  0.00    +0.000 C 
ATOM     23  C   UNL     1       2.588   3.105  20.883  0.00  0.00    +0.000 C 
ATOM     24  C   UNL     1       1.684   3.955  19.990  0.00  0.00    +0.000 C 
ATOM     25  C   UNL     1       1.214   3.206  18.747  0.00  0.00    +0.000 C 
ENDBRANCH  19  20
ENDBRANCH   3  19
TORSDOF 7
ENDMDL
