MODEL 1
REMARK VINA RESULT:      -8.9      0.000      0.000
REMARK  Name = 
REMARK  9 active torsions:
REMARK  status: ('A' for Active; 'I' for Inactive)
REMARK    1  A    between atoms: C_1  and  N_2
REMARK    2  A    between atoms: C_7  and  N_8
REMARK    3  A    between atoms: C_12  and  N_13
REMARK    4  A    between atoms: N_13  and  C_14
REMARK    5  A    between atoms: C_14  and  C_15
REMARK    6  A    between atoms: C_20  and  N_21
REMARK    7  A    between atoms: N_21  and  C_22
REMARK    8  A    between atoms: N_21  and  S_23
REMARK    9  A    between atoms: S_23  and  C_24
REMARK                            x       y       z     vdW  Elec       q    Type
REMARK                         _______ _______ _______ _____ _____    ______ ____
ROOT
ATOM      1  N   UNL     1       1.989   7.643  19.999  0.00  0.00    +0.000 N 
ATOM      2  C   UNL     1       2.001   6.301  20.058  0.00  0.00    +0.000 A 
ATOM      3  N   UNL     1       2.918   5.720  19.216  0.00  0.00    +0.000 NA
ATOM      4  C   UNL     1       2.796   4.433  19.451  0.00  0.00    +0.000 A 
ATOM      5  C   UNL     1       3.478   3.285  18.906  0.00  0.00    +0.000 A 
ATOM      6  C   UNL     1       3.170   2.077  19.430  0.00  0.00    +0.000 A 
ATOM      7  C   UNL     1       2.160   1.896  20.463  0.00  0.00    +0.000 A 
ATOM      8  C   UNL     1       1.499   2.972  20.920  0.00  0.00    +0.000 A 
ATOM      9  N   UNL     1       1.815   4.238  20.425  0.00  0.00    +0.000 N 
ATOM     10  N   UNL     1       1.284   5.438  20.782  0.00  0.00    +0.000 NA
ATOM     11  H   UNL     1       2.719   7.988  19.388  0.00  0.00    +0.000 HD
ENDROOT
BRANCH   1  18
ATOM     12  C   UNL     1      -2.552  13.068  20.597  0.00  0.00    +0.000 C 
ATOM     13  N   UNL     1      -1.134  12.774  20.772  0.00  0.00    +0.000 NA
ATOM     14  C   UNL     1      -0.863  12.105  22.074  0.00  0.00    +0.000 C 
ATOM     15  C   UNL     1      -0.105  10.857  21.751  0.00  0.00    +0.000 A 
ATOM     16  C   UNL     1       0.414   9.883  22.594  0.00  0.00    +0.000 A 
ATOM     17  C   UNL     1       1.123   8.800  22.032  0.00  0.00    +0.000 A 
ATOM     18  C   UNL     1       1.298   8.686  20.643  0.00  0.00    +0.000 A 
ATOM     19  C   UNL     1       0.735   9.684  19.819  0.00  0.00    +0.000 A 
ATOM     20  C   UNL     1       0.046  10.748  20.380  0.00  0.00    +0.000 A 
ATOM     21  C   UNL     1      -0.622  11.893  19.695  0.00  0.00    +0.000 C 
ENDBRANCH   1  18
BRANCH   5  22
ATOM     22  N   UNL     1       4.454   3.408  17.902  0.00  0.00    +0.000 N 
ATOM     23  H   UNL     1       5.169   4.056  18.249  0.00  0.00    +0.000 HD
BRANCH  22  24
ATOM     24  C   UNL     1       4.064   3.929  16.574  0.00  0.00    +0.000 C 
BRANCH  24  25
ATOM     25  C   UNL     1       5.266   4.198  15.686  0.00  0.00    +0.000 A 
ATOM     26  C   UNL     1       5.329   3.565  14.428  0.00  0.00    +0.000 A 
ATOM     27  C   UNL     1       6.326   3.878  13.502  0.00  0.00    +0.000 A 
ATOM     28  C   UNL     1       7.283   4.838  13.812  0.00  0.00    +0.000 A 
ATOM     29  C   UNL     1       7.247   5.475  15.054  0.00  0.00    +0.000 A 
ATOM     30  C   UNL     1       6.253   5.162  15.994  0.00  0.00    +0.000 A 
BRANCH  30  31
ATOM     31  N   UNL     1       6.215   5.890  17.232  0.00  0.00    +0.000 N 
ATOM     32  C   UNL     1       5.809   7.306  17.199  0.00  0.00    +0.000 C 
BRANCH  31  33
ATOM     33  S   UNL     1       7.227   5.409  18.503  0.00  0.00    +0.000 S 
ATOM     34  C   UNL     1       8.229   6.856  18.834  0.00  0.00    +0.000 C 
ATOM     35  O   UNL     1       6.380   5.218  19.665  0.00  0.00    +0.000 OA
ATOM     36  O   UNL     1       8.103   4.350  18.048  0.00  0.00    +0.000 OA
ENDBRANCH  31  33
ENDBRANCH  30  31
ENDBRANCH  24  25
ENDBRANCH  22  24
ENDBRANCH   5  22
TORSDOF 6
ENDMDL
MODEL 2
REMARK VINA RESULT:      -8.8      0.831      1.421
REMARK  Name = 
REMARK  9 active torsions:
REMARK  status: ('A' for Active; 'I' for Inactive)
REMARK    1  A    between atoms: C_1  and  N_2
REMARK    2  A    between atoms: C_7  and  N_8
REMARK    3  A    between atoms: C_12  and  N_13
REMARK    4  A    between atoms: N_13  and  C_14
REMARK    5  A    between atoms: C_14  and  C_15
REMARK    6  A    between atoms: C_20  and  N_21
REMARK    7  A    between atoms: N_21  and  C_22
REMARK    8  A    between atoms: N_21  and  S_23
REMARK    9  A    between atoms: S_23  and  C_24
REMARK                            x       y       z     vdW  Elec       q    Type
REMARK                         _______ _______ _______ _____ _____    ______ ____
ROOT
ATOM      1  N   UNL     1       1.955   7.860  19.021  0.00  0.00    +0.000 N 
ATOM      2  C   UNL     1       2.128   6.627  19.529  0.00  0.00    +0.000 A 
ATOM      3  N   UNL     1       3.052   5.875  18.845  0.00  0.00    +0.000 NA
ATOM      4  C   UNL     1       3.097   4.744  19.513  0.00  0.00    +0.000 A 
ATOM      5  C   UNL     1       3.874   3.543  19.323  0.00  0.00    +0.000 A 
ATOM      6  C   UNL     1       3.743   2.569  20.253  0.00  0.00    +0.000 A 
ATOM      7  C   UNL     1       2.828   2.669  21.380  0.00  0.00    +0.000 A 
ATOM      8  C   UNL     1       2.075   3.774  21.510  0.00  0.00    +0.000 A 
ATOM      9  N   UNL     1       2.209   4.812  20.588  0.00  0.00    +0.000 N 
ATOM     10  N   UNL     1       1.564   6.009  20.569  0.00  0.00    +0.000 NA
ATOM     11  H   UNL     1       2.599   8.035  18.260  0.00  0.00    +0.000 HD
ENDROOT
BRANCH   1  18
ATOM     12  C   UNL     1      -1.076  12.719  23.218  0.00  0.00    +0.000 C 
ATOM     13  N   UNL     1      -1.444  11.717  22.223  0.00  0.00    +0.000 NA
ATOM     14  C   UNL     1      -1.229  12.209  20.835  0.00  0.00    +0.000 C 
ATOM     15  C   UNL     1      -0.374  11.187  20.157  0.00  0.00    +0.000 A 
ATOM     16  C   UNL     1       0.100  11.140  18.853  0.00  0.00    +0.000 A 
ATOM     17  C   UNL     1       0.877  10.035  18.448  0.00  0.00    +0.000 A 
ATOM     18  C   UNL     1       1.188   8.996  19.340  0.00  0.00    +0.000 A 
ATOM     19  C   UNL     1       0.707   9.092  20.663  0.00  0.00    +0.000 A 
ATOM     20  C   UNL     1      -0.061  10.179  21.051  0.00  0.00    +0.000 A 
ATOM     21  C   UNL     1      -0.657  10.471  22.387  0.00  0.00    +0.000 C 
ENDBRANCH   1  18
BRANCH   5  22
ATOM     22  N   UNL     1       4.763   3.396  18.245  0.00  0.00    +0.000 N 
ATOM     23  H   UNL     1       5.499   4.102  18.358  0.00  0.00    +0.000 HD
BRANCH  22  24
ATOM     24  C   UNL     1       4.262   3.571  16.865  0.00  0.00    +0.000 C 
BRANCH  24  25
ATOM     25  C   UNL     1       5.360   3.990  15.903  0.00  0.00    +0.000 A 
ATOM     26  C   UNL     1       5.428   3.360  14.643  0.00  0.00    +0.000 A 
ATOM     27  C   UNL     1       6.315   3.795  13.656  0.00  0.00    +0.000 A 
ATOM     28  C   UNL     1       7.152   4.878  13.906  0.00  0.00    +0.000 A 
ATOM     29  C   UNL     1       7.109   5.515  15.147  0.00  0.00    +0.000 A 
ATOM     30  C   UNL     1       6.226   5.080  16.147  0.00  0.00    +0.000 A 
BRANCH  30  31
ATOM     31  N   UNL     1       6.168   5.807  17.385  0.00  0.00    +0.000 N 
ATOM     32  C   UNL     1       5.539   7.139  17.386  0.00  0.00    +0.000 C 
BRANCH  31  33
ATOM     33  S   UNL     1       7.340   5.508  18.573  0.00  0.00    +0.000 S 
ATOM     34  C   UNL     1       8.259   7.042  18.672  0.00  0.00    +0.000 C 
ATOM     35  O   UNL     1       6.634   5.367  19.832  0.00  0.00    +0.000 OA
ATOM     36  O   UNL     1       8.241   4.473  18.112  0.00  0.00    +0.000 OA
ENDBRANCH  31  33
ENDBRANCH  30  31
ENDBRANCH  24  25
ENDBRANCH  22  24
ENDBRANCH   5  22
TORSDOF 6
ENDMDL
MODEL 3
REMARK VINA RESULT:      -8.7      2.417      4.980
REMARK  Name = 
REMARK  9 active torsions:
REMARK  status: ('A' for Active; 'I' for Inactive)
REMARK    1  A    between atoms: C_1  and  N_2
REMARK    2  A    between atoms: C_7  and  N_8
REMARK    3  A    between atoms: C_12  and  N_13
REMARK    4  A    between atoms: N_13  and  C_14
REMARK    5  A    between atoms: C_14  and  C_15
REMARK    6  A    between atoms: C_20  and  N_21
REMARK    7  A    between atoms: N_21  and  C_22
REMARK    8  A    between atoms: N_21  and  S_23
REMARK    9  A    between atoms: S_23  and  C_24
REMARK                            x       y       z     vdW  Elec       q    Type
REMARK                         _______ _______ _______ _____ _____    ______ ____
ROOT
ATOM      1  N   UNL     1      -0.722  10.794  22.567  0.00  0.00    +0.000 N 
ATOM      2  C   UNL     1      -0.057  10.483  21.442  0.00  0.00    +0.000 A 
ATOM      3  N   UNL     1       0.508   9.230  21.464  0.00  0.00    +0.000 NA
ATOM      4  C   UNL     1       1.067   9.113  20.281  0.00  0.00    +0.000 A 
ATOM      5  C   UNL     1       1.808   8.037  19.668  0.00  0.00    +0.000 A 
ATOM      6  C   UNL     1       2.186   8.203  18.380  0.00  0.00    +0.000 A 
ATOM      7  C   UNL     1       1.921   9.421  17.628  0.00  0.00    +0.000 A 
ATOM      8  C   UNL     1       1.277  10.431  18.234  0.00  0.00    +0.000 A 
ATOM      9  N   UNL     1       0.843  10.282  19.551  0.00  0.00    +0.000 N 
ATOM     10  N   UNL     1       0.154  11.170  20.316  0.00  0.00    +0.000 NA
ATOM     11  H   UNL     1      -0.747  10.009  23.205  0.00  0.00    +0.000 HD
ENDROOT
BRANCH   1  18
ATOM     12  C   UNL     1      -2.501  17.614  23.419  0.00  0.00    +0.000 C 
ATOM     13  N   UNL     1      -2.138  16.447  24.216  0.00  0.00    +0.000 NA
ATOM     14  C   UNL     1      -3.290  15.524  24.405  0.00  0.00    +0.000 C 
ATOM     15  C   UNL     1      -2.823  14.177  23.955  0.00  0.00    +0.000 A 
ATOM     16  C   UNL     1      -3.489  12.958  23.942  0.00  0.00    +0.000 A 
ATOM     17  C   UNL     1      -2.806  11.811  23.487  0.00  0.00    +0.000 A 
ATOM     18  C   UNL     1      -1.477  11.885  23.037  0.00  0.00    +0.000 A 
ATOM     19  C   UNL     1      -0.844  13.145  23.043  0.00  0.00    +0.000 A 
ATOM     20  C   UNL     1      -1.521  14.267  23.499  0.00  0.00    +0.000 A 
ATOM     21  C   UNL     1      -1.040  15.676  23.584  0.00  0.00    +0.000 C 
ENDBRANCH   1  18
BRANCH   5  22
ATOM     22  N   UNL     1       2.095   6.847  20.356  0.00  0.00    +0.000 N 
ATOM     23  H   UNL     1       2.148   7.076  21.354  0.00  0.00    +0.000 HD
BRANCH  22  24
ATOM     24  C   UNL     1       3.348   6.120  20.055  0.00  0.00    +0.000 C 
BRANCH  24  25
ATOM     25  C   UNL     1       3.114   4.916  19.160  0.00  0.00    +0.000 A 
ATOM     26  C   UNL     1       2.010   4.082  19.427  0.00  0.00    +0.000 A 
ATOM     27  C   UNL     1       1.651   3.047  18.562  0.00  0.00    +0.000 A 
ATOM     28  C   UNL     1       2.386   2.826  17.403  0.00  0.00    +0.000 A 
ATOM     29  C   UNL     1       3.488   3.634  17.117  0.00  0.00    +0.000 A 
ATOM     30  C   UNL     1       3.861   4.672  17.985  0.00  0.00    +0.000 A 
BRANCH  30  31
ATOM     31  N   UNL     1       4.961   5.521  17.618  0.00  0.00    +0.000 N 
ATOM     32  C   UNL     1       4.811   6.391  16.439  0.00  0.00    +0.000 C 
BRANCH  31  33
ATOM     33  S   UNL     1       6.537   5.056  18.036  0.00  0.00    +0.000 S 
ATOM     34  C   UNL     1       7.432   6.603  18.147  0.00  0.00    +0.000 C 
ATOM     35  O   UNL     1       6.472   4.518  19.381  0.00  0.00    +0.000 OA
ATOM     36  O   UNL     1       7.113   4.279  16.958  0.00  0.00    +0.000 OA
ENDBRANCH  31  33
ENDBRANCH  30  31
ENDBRANCH  24  25
ENDBRANCH  22  24
ENDBRANCH   5  22
TORSDOF 6
ENDMDL
MODEL 4
REMARK VINA RESULT:      -8.2      3.508      5.330
REMARK  Name = 
REMARK  9 active torsions:
REMARK  status: ('A' for Active; 'I' for Inactive)
REMARK    1  A    between atoms: C_1  and  N_2
REMARK    2  A    between atoms: C_7  and  N_8
REMARK    3  A    between atoms: C_12  and  N_13
REMARK    4  A    between atoms: N_13  and  C_14
REMARK    5  A    between atoms: C_14  and  C_15
REMARK    6  A    between atoms: C_20  and  N_21
REMARK    7  A    between atoms: N_21  and  C_22
REMARK    8  A    between atoms: N_21  and  S_23
REMARK    9  A    between atoms: S_23  and  C_24
REMARK                            x       y       z     vdW  Elec       q    Type
REMARK                         _______ _______ _______ _____ _____    ______ ____
ROOT
ATOM      1  N   UNL     1       2.081  12.580  18.009  0.00  0.00    +0.000 N 
ATOM      2  C   UNL     1       1.781  11.478  18.716  0.00  0.00    +0.000 A 
ATOM      3  N   UNL     1       2.214  10.313  18.131  0.00  0.00    +0.000 NA
ATOM      4  C   UNL     1       1.860   9.378  18.984  0.00  0.00    +0.000 A 
ATOM      5  C   UNL     1       2.032   7.946  18.970  0.00  0.00    +0.000 A 
ATOM      6  C   UNL     1       1.617   7.263  20.062  0.00  0.00    +0.000 A 
ATOM      7  C   UNL     1       0.973   7.904  21.198  0.00  0.00    +0.000 A 
ATOM      8  C   UNL     1       0.774   9.232  21.169  0.00  0.00    +0.000 A 
ATOM      9  N   UNL     1       1.219   9.972  20.073  0.00  0.00    +0.000 N 
ATOM     10  N   UNL     1       1.139  11.315  19.876  0.00  0.00    +0.000 NA
ATOM     11  H   UNL     1       2.642  12.352  17.198  0.00  0.00    +0.000 HD
ENDROOT
BRANCH   1  18
ATOM     12  C   UNL     1      -0.836  18.557  20.496  0.00  0.00    +0.000 C 
ATOM     13  N   UNL     1      -0.581  17.883  19.228  0.00  0.00    +0.000 NA
ATOM     14  C   UNL     1       0.822  18.074  18.769  0.00  0.00    +0.000 C 
ATOM     15  C   UNL     1       1.369  16.706  18.516  0.00  0.00    +0.000 A 
ATOM     16  C   UNL     1       2.618  16.314  18.053  0.00  0.00    +0.000 A 
ATOM     17  C   UNL     1       2.879  14.940  17.870  0.00  0.00    +0.000 A 
ATOM     18  C   UNL     1       1.907  13.969  18.161  0.00  0.00    +0.000 A 
ATOM     19  C   UNL     1       0.658  14.406  18.652  0.00  0.00    +0.000 A 
ATOM     20  C   UNL     1       0.408  15.759  18.822  0.00  0.00    +0.000 A 
ATOM     21  C   UNL     1      -0.828  16.424  19.327  0.00  0.00    +0.000 C 
ENDBRANCH   1  18
BRANCH   5  22
ATOM     22  N   UNL     1       2.640   7.281  17.892  0.00  0.00    +0.000 N 
ATOM     23  H   UNL     1       2.172   6.374  17.788  0.00  0.00    +0.000 HD
BRANCH  22  24
ATOM     24  C   UNL     1       4.084   6.971  17.954  0.00  0.00    +0.000 C 
BRANCH  24  25
ATOM     25  C   UNL     1       4.490   5.911  16.945  0.00  0.00    +0.000 A 
ATOM     26  C   UNL     1       5.263   6.301  15.832  0.00  0.00    +0.000 A 
ATOM     27  C   UNL     1       5.794   5.362  14.946  0.00  0.00    +0.000 A 
ATOM     28  C   UNL     1       5.568   4.006  15.158  0.00  0.00    +0.000 A 
ATOM     29  C   UNL     1       4.801   3.593  16.248  0.00  0.00    +0.000 A 
ATOM     30  C   UNL     1       4.257   4.531  17.140  0.00  0.00    +0.000 A 
BRANCH  30  31
ATOM     31  N   UNL     1       3.531   4.058  18.286  0.00  0.00    +0.000 N 
ATOM     32  C   UNL     1       4.295   3.563  19.444  0.00  0.00    +0.000 C 
BRANCH  31  33
ATOM     33  S   UNL     1       1.967   3.437  18.073  0.00  0.00    +0.000 S 
ATOM     34  C   UNL     1       1.305   3.347  19.734  0.00  0.00    +0.000 C 
ATOM     35  O   UNL     1       1.203   4.455  17.378  0.00  0.00    +0.000 OA
ATOM     36  O   UNL     1       2.050   2.091  17.547  0.00  0.00    +0.000 OA
ENDBRANCH  31  33
ENDBRANCH  30  31
ENDBRANCH  24  25
ENDBRANCH  22  24
ENDBRANCH   5  22
TORSDOF 6
ENDMDL
MODEL 5
REMARK VINA RESULT:      -8.2      2.668      5.427
REMARK  Name = 
REMARK  9 active torsions:
REMARK  status: ('A' for Active; 'I' for Inactive)
REMARK    1  A    between atoms: C_1  and  N_2
REMARK    2  A    between atoms: C_7  and  N_8
REMARK    3  A    between atoms: C_12  and  N_13
REMARK    4  A    between atoms: N_13  and  C_14
REMARK    5  A    between atoms: C_14  and  C_15
REMARK    6  A    between atoms: C_20  and  N_21
REMARK    7  A    between atoms: N_21  and  C_22
REMARK    8  A    between atoms: N_21  and  S_23
REMARK    9  A    between atoms: S_23  and  C_24
REMARK                            x       y       z     vdW  Elec       q    Type
REMARK                         _______ _______ _______ _____ _____    ______ ____
ROOT
ATOM      1  N   UNL     1      -0.844  10.832  22.644  0.00  0.00    +0.000 N 
ATOM      2  C   UNL     1      -0.161  10.529  21.527  0.00  0.00    +0.000 A 
ATOM      3  N   UNL     1       0.402   9.276  21.549  0.00  0.00    +0.000 NA
ATOM      4  C   UNL     1       0.980   9.166  20.374  0.00  0.00    +0.000 A 
ATOM      5  C   UNL     1       1.729   8.095  19.765  0.00  0.00    +0.000 A 
ATOM      6  C   UNL     1       2.127   8.270  18.484  0.00  0.00    +0.000 A 
ATOM      7  C   UNL     1       1.876   9.494  17.737  0.00  0.00    +0.000 A 
ATOM      8  C   UNL     1       1.223  10.500  18.340  0.00  0.00    +0.000 A 
ATOM      9  N   UNL     1       0.769  10.341  19.649  0.00  0.00    +0.000 N 
ATOM     10  N   UNL     1       0.068  11.224  20.411  0.00  0.00    +0.000 NA
ATOM     11  H   UNL     1      -0.879  10.043  23.277  0.00  0.00    +0.000 HD
ENDROOT
BRANCH   1  18
ATOM     12  C   UNL     1      -2.582  17.651  23.590  0.00  0.00    +0.000 C 
ATOM     13  N   UNL     1      -2.262  16.461  24.372  0.00  0.00    +0.000 NA
ATOM     14  C   UNL     1      -3.431  15.547  24.494  0.00  0.00    +0.000 C 
ATOM     15  C   UNL     1      -2.961  14.205  24.030  0.00  0.00    +0.000 A 
ATOM     16  C   UNL     1      -3.639  12.995  23.962  0.00  0.00    +0.000 A 
ATOM     17  C   UNL     1      -2.951  11.852  23.507  0.00  0.00    +0.000 A 
ATOM     18  C   UNL     1      -1.605  11.920  23.110  0.00  0.00    +0.000 A 
ATOM     19  C   UNL     1      -0.958  13.173  23.171  0.00  0.00    +0.000 A 
ATOM     20  C   UNL     1      -1.641  14.291  23.627  0.00  0.00    +0.000 A 
ATOM     21  C   UNL     1      -1.149  15.693  23.765  0.00  0.00    +0.000 C 
ENDBRANCH   1  18
BRANCH   5  22
ATOM     22  N   UNL     1       2.005   6.899  20.448  0.00  0.00    +0.000 N 
ATOM     23  H   UNL     1       2.207   7.144  21.423  0.00  0.00    +0.000 HD
BRANCH  22  24
ATOM     24  C   UNL     1       3.142   6.060  20.012  0.00  0.00    +0.000 C 
BRANCH  24  25
ATOM     25  C   UNL     1       2.697   4.686  19.542  0.00  0.00    +0.000 A 
ATOM     26  C   UNL     1       1.387   4.262  19.843  0.00  0.00    +0.000 A 
ATOM     27  C   UNL     1       0.864   3.079  19.320  0.00  0.00    +0.000 A 
ATOM     28  C   UNL     1       1.640   2.293  18.474  0.00  0.00    +0.000 A 
ATOM     29  C   UNL     1       2.943   2.686  18.165  0.00  0.00    +0.000 A 
ATOM     30  C   UNL     1       3.479   3.871  18.693  0.00  0.00    +0.000 A 
BRANCH  30  31
ATOM     31  N   UNL     1       4.800   4.272  18.293  0.00  0.00    +0.000 N 
ATOM     32  C   UNL     1       5.794   4.555  19.342  0.00  0.00    +0.000 C 
BRANCH  31  33
ATOM     33  S   UNL     1       5.010   5.053  16.803  0.00  0.00    +0.000 S 
ATOM     34  C   UNL     1       6.752   5.466  16.770  0.00  0.00    +0.000 C 
ATOM     35  O   UNL     1       4.802   4.054  15.772  0.00  0.00    +0.000 OA
ATOM     36  O   UNL     1       4.254   6.288  16.796  0.00  0.00    +0.000 OA
ENDBRANCH  31  33
ENDBRANCH  30  31
ENDBRANCH  24  25
ENDBRANCH  22  24
ENDBRANCH   5  22
TORSDOF 6
ENDMDL
MODEL 6
REMARK VINA RESULT:      -8.1      5.424     11.320
REMARK  Name = 
REMARK  9 active torsions:
REMARK  status: ('A' for Active; 'I' for Inactive)
REMARK    1  A    between atoms: C_1  and  N_2
REMARK    2  A    between atoms: C_7  and  N_8
REMARK    3  A    between atoms: C_12  and  N_13
REMARK    4  A    between atoms: N_13  and  C_14
REMARK    5  A    between atoms: C_14  and  C_15
REMARK    6  A    between atoms: C_20  and  N_21
REMARK    7  A    between atoms: N_21  and  C_22
REMARK    8  A    between atoms: N_21  and  S_23
REMARK    9  A    between atoms: S_23  and  C_24
REMARK                            x       y       z     vdW  Elec       q    Type
REMARK                         _______ _______ _______ _____ _____    ______ ____
ROOT
ATOM      1  N   UNL     1       1.759   8.495  18.649  0.00  0.00    +0.000 N 
ATOM      2  C   UNL     1       1.176   9.005  19.747  0.00  0.00    +0.000 A 
ATOM      3  N   UNL     1       0.402  10.112  19.496  0.00  0.00    +0.000 NA
ATOM      4  C   UNL     1      -0.096  10.424  20.671  0.00  0.00    +0.000 A 
ATOM      5  C   UNL     1      -0.992  11.475  21.090  0.00  0.00    +0.000 A 
ATOM      6  C   UNL     1      -1.384  11.473  22.384  0.00  0.00    +0.000 A 
ATOM      7  C   UNL     1      -0.903  10.502  23.356  0.00  0.00    +0.000 A 
ATOM      8  C   UNL     1      -0.027   9.564  22.958  0.00  0.00    +0.000 A 
ATOM      9  N   UNL     1       0.373   9.516  21.623  0.00  0.00    +0.000 N 
ATOM     10  N   UNL     1       1.218   8.631  21.028  0.00  0.00    +0.000 NA
ATOM     11  H   UNL     1       1.459   8.984  17.815  0.00  0.00    +0.000 HD
ENDROOT
BRANCH   1  18
ATOM     12  C   UNL     1       3.635   1.662  18.200  0.00  0.00    +0.000 C 
ATOM     13  N   UNL     1       4.085   2.905  18.817  0.00  0.00    +0.000 NA
ATOM     14  C   UNL     1       4.820   3.768  17.852  0.00  0.00    +0.000 C 
ATOM     15  C   UNL     1       4.150   5.104  17.892  0.00  0.00    +0.000 A 
ATOM     16  C   UNL     1       4.449   6.275  17.210  0.00  0.00    +0.000 A 
ATOM     17  C   UNL     1       3.666   7.425  17.449  0.00  0.00    +0.000 A 
ATOM     18  C   UNL     1       2.590   7.399  18.351  0.00  0.00    +0.000 A 
ATOM     19  C   UNL     1       2.303   6.182  19.007  0.00  0.00    +0.000 A 
ATOM     20  C   UNL     1       3.082   5.059  18.770  0.00  0.00    +0.000 A 
ATOM     21  C   UNL     1       2.947   3.692  19.351  0.00  0.00    +0.000 C 
ENDBRANCH   1  18
BRANCH   5  22
ATOM     22  N   UNL     1      -1.476  12.440  20.191  0.00  0.00    +0.000 N 
ATOM     23  H   UNL     1      -0.677  13.008  19.891  0.00  0.00    +0.000 HD
BRANCH  22  24
ATOM     24  C   UNL     1      -2.495  13.409  20.649  0.00  0.00    +0.000 C 
BRANCH  24  25
ATOM     25  C   UNL     1      -3.910  12.907  20.424  0.00  0.00    +0.000 A 
ATOM     26  C   UNL     1      -4.210  12.256  19.210  0.00  0.00    +0.000 A 
ATOM     27  C   UNL     1      -5.445  11.641  18.997  0.00  0.00    +0.000 A 
ATOM     28  C   UNL     1      -6.409  11.658  19.999  0.00  0.00    +0.000 A 
ATOM     29  C   UNL     1      -6.141  12.302  21.208  0.00  0.00    +0.000 A 
ATOM     30  C   UNL     1      -4.904  12.929  21.429  0.00  0.00    +0.000 A 
BRANCH  30  31
ATOM     31  N   UNL     1      -4.647  13.520  22.713  0.00  0.00    +0.000 N 
ATOM     32  C   UNL     1      -4.515  12.631  23.880  0.00  0.00    +0.000 C 
BRANCH  31  33
ATOM     33  S   UNL     1      -5.164  15.107  23.008  0.00  0.00    +0.000 S 
ATOM     34  C   UNL     1      -6.745  14.904  23.824  0.00  0.00    +0.000 C 
ATOM     35  O   UNL     1      -4.259  15.666  23.994  0.00  0.00    +0.000 OA
ATOM     36  O   UNL     1      -5.392  15.783  21.749  0.00  0.00    +0.000 OA
ENDBRANCH  31  33
ENDBRANCH  30  31
ENDBRANCH  24  25
ENDBRANCH  22  24
ENDBRANCH   5  22
TORSDOF 6
ENDMDL
MODEL 7
REMARK VINA RESULT:      -8.1      5.306     10.991
REMARK  Name = 
REMARK  9 active torsions:
REMARK  status: ('A' for Active; 'I' for Inactive)
REMARK    1  A    between atoms: C_1  and  N_2
REMARK    2  A    between atoms: C_7  and  N_8
REMARK    3  A    between atoms: C_12  and  N_13
REMARK    4  A    between atoms: N_13  and  C_14
REMARK    5  A    between atoms: C_14  and  C_15
REMARK    6  A    between atoms: C_20  and  N_21
REMARK    7  A    between atoms: N_21  and  C_22
REMARK    8  A    between atoms: N_21  and  S_23
REMARK    9  A    between atoms: S_23  and  C_24
REMARK                            x       y       z     vdW  Elec       q    Type
REMARK                         _______ _______ _______ _____ _____    ______ ____
ROOT
ATOM      1  N   UNL     1       1.842   8.381  18.504  0.00  0.00    +0.000 N 
ATOM      2  C   UNL     1       1.253   8.865  19.610  0.00  0.00    +0.000 A 
ATOM      3  N   UNL     1       0.616  10.066  19.416  0.00  0.00    +0.000 NA
ATOM      4  C   UNL     1       0.086  10.338  20.587  0.00  0.00    +0.000 A 
ATOM      5  C   UNL     1      -0.718  11.444  21.047  0.00  0.00    +0.000 A 
ATOM      6  C   UNL     1      -1.184  11.383  22.316  0.00  0.00    +0.000 A 
ATOM      7  C   UNL     1      -0.865  10.292  23.225  0.00  0.00    +0.000 A 
ATOM      8  C   UNL     1      -0.071   9.298  22.793  0.00  0.00    +0.000 A 
ATOM      9  N   UNL     1       0.399   9.312  21.480  0.00  0.00    +0.000 N 
ATOM     10  N   UNL     1       1.180   8.389  20.856  0.00  0.00    +0.000 NA
ATOM     11  H   UNL     1       1.645   8.965  17.701  0.00  0.00    +0.000 HD
ENDROOT
BRANCH   1  18
ATOM     12  C   UNL     1       7.593   4.499  16.999  0.00  0.00    +0.000 C 
ATOM     13  N   UNL     1       6.328   4.901  16.394  0.00  0.00    +0.000 NA
ATOM     14  C   UNL     1       5.191   4.078  16.888  0.00  0.00    +0.000 C 
ATOM     15  C   UNL     1       4.164   5.042  17.389  0.00  0.00    +0.000 A 
ATOM     16  C   UNL     1       2.906   4.808  17.930  0.00  0.00    +0.000 A 
ATOM     17  C   UNL     1       2.109   5.909  18.306  0.00  0.00    +0.000 A 
ATOM     18  C   UNL     1       2.569   7.228  18.156  0.00  0.00    +0.000 A 
ATOM     19  C   UNL     1       3.862   7.423  17.625  0.00  0.00    +0.000 A 
ATOM     20  C   UNL     1       4.636   6.335  17.251  0.00  0.00    +0.000 A 
ATOM     21  C   UNL     1       6.014   6.322  16.680  0.00  0.00    +0.000 C 
ENDBRANCH   1  18
BRANCH   5  22
ATOM     22  N   UNL     1      -1.045  12.524  20.210  0.00  0.00    +0.000 N 
ATOM     23  H   UNL     1      -0.374  13.275  20.404  0.00  0.00    +0.000 HD
BRANCH  22  24
ATOM     24  C   UNL     1      -2.379  13.152  20.325  0.00  0.00    +0.000 C 
BRANCH  24  25
ATOM     25  C   UNL     1      -3.420  12.452  19.470  0.00  0.00    +0.000 A 
ATOM     26  C   UNL     1      -2.983  11.559  18.471  0.00  0.00    +0.000 A 
ATOM     27  C   UNL     1      -3.883  10.773  17.749  0.00  0.00    +0.000 A 
ATOM     28  C   UNL     1      -5.245  10.858  18.016  0.00  0.00    +0.000 A 
ATOM     29  C   UNL     1      -5.705  11.739  18.996  0.00  0.00    +0.000 A 
ATOM     30  C   UNL     1      -4.808  12.539  19.721  0.00  0.00    +0.000 A 
BRANCH  30  31
ATOM     31  N   UNL     1      -5.321  13.381  20.766  0.00  0.00    +0.000 N 
ATOM     32  C   UNL     1      -5.994  12.746  21.912  0.00  0.00    +0.000 C 
BRANCH  31  33
ATOM     33  S   UNL     1      -5.770  14.974  20.396  0.00  0.00    +0.000 S 
ATOM     34  C   UNL     1      -7.115  15.320  21.526  0.00  0.00    +0.000 C 
ATOM     35  O   UNL     1      -4.665  15.824  20.795  0.00  0.00    +0.000 OA
ATOM     36  O   UNL     1      -6.291  15.026  19.047  0.00  0.00    +0.000 OA
ENDBRANCH  31  33
ENDBRANCH  30  31
ENDBRANCH  24  25
ENDBRANCH  22  24
ENDBRANCH   5  22
TORSDOF 6
ENDMDL
MODEL 8
REMARK VINA RESULT:      -8.1      5.333     10.700
REMARK  Name = 
REMARK  9 active torsions:
REMARK  status: ('A' for Active; 'I' for Inactive)
REMARK    1  A    between atoms: C_1  and  N_2
REMARK    2  A    between atoms: C_7  and  N_8
REMARK    3  A    between atoms: C_12  and  N_13
REMARK    4  A    between atoms: N_13  and  C_14
REMARK    5  A    between atoms: C_14  and  C_15
REMARK    6  A    between atoms: C_20  and  N_21
REMARK    7  A    between atoms: N_21  and  C_22
REMARK    8  A    between atoms: N_21  and  S_23
REMARK    9  A    between atoms: S_23  and  C_24
REMARK                            x       y       z     vdW  Elec       q    Type
REMARK                         _______ _______ _______ _____ _____    ______ ____
ROOT
ATOM      1  N   UNL     1       1.634   8.383  18.513  0.00  0.00    +0.000 N 
ATOM      2  C   UNL     1       1.093   8.886  19.636  0.00  0.00    +0.000 A 
ATOM      3  N   UNL     1       0.379  10.041  19.433  0.00  0.00    +0.000 NA
ATOM      4  C   UNL     1      -0.088  10.339  20.625  0.00  0.00    +0.000 A 
ATOM      5  C   UNL     1      -0.920  11.422  21.091  0.00  0.00    +0.000 A 
ATOM      6  C   UNL     1      -1.297  11.396  22.390  0.00  0.00    +0.000 A 
ATOM      7  C   UNL     1      -0.859  10.367  23.321  0.00  0.00    +0.000 A 
ATOM      8  C   UNL     1      -0.042   9.397  22.880  0.00  0.00    +0.000 A 
ATOM      9  N   UNL     1       0.341   9.374  21.538  0.00  0.00    +0.000 N 
ATOM     10  N   UNL     1       1.128   8.466  20.902  0.00  0.00    +0.000 NA
ATOM     11  H   UNL     1       1.352   8.917  17.701  0.00  0.00    +0.000 HD
ENDROOT
BRANCH   1  18
ATOM     12  C   UNL     1       7.520   4.676  17.090  0.00  0.00    +0.000 C 
ATOM     13  N   UNL     1       6.259   5.054  16.462  0.00  0.00    +0.000 NA
ATOM     14  C   UNL     1       5.133   4.193  16.917  0.00  0.00    +0.000 C 
ATOM     15  C   UNL     1       4.069   5.122  17.408  0.00  0.00    +0.000 A 
ATOM     16  C   UNL     1       2.807   4.848  17.915  0.00  0.00    +0.000 A 
ATOM     17  C   UNL     1       1.972   5.922  18.287  0.00  0.00    +0.000 A 
ATOM     18  C   UNL     1       2.399   7.254  18.166  0.00  0.00    +0.000 A 
ATOM     19  C   UNL     1       3.698   7.491  17.669  0.00  0.00    +0.000 A 
ATOM     20  C   UNL     1       4.510   6.429  17.299  0.00  0.00    +0.000 A 
ATOM     21  C   UNL     1       5.901   6.461  16.760  0.00  0.00    +0.000 C 
ENDBRANCH   1  18
BRANCH   5  22
ATOM     22  N   UNL     1      -1.360  12.443  20.232  0.00  0.00    +0.000 N 
ATOM     23  H   UNL     1      -1.009  13.331  20.607  0.00  0.00    +0.000 HD
BRANCH  22  24
ATOM     24  C   UNL     1      -2.811  12.649  20.036  0.00  0.00    +0.000 C 
BRANCH  24  25
ATOM     25  C   UNL     1      -3.296  12.104  18.705  0.00  0.00    +0.000 A 
ATOM     26  C   UNL     1      -2.338  11.676  17.763  0.00  0.00    +0.000 A 
ATOM     27  C   UNL     1      -2.712  11.030  16.583  0.00  0.00    +0.000 A 
ATOM     28  C   UNL     1      -4.057  10.791  16.320  0.00  0.00    +0.000 A 
ATOM     29  C   UNL     1      -5.026  11.210  17.233  0.00  0.00    +0.000 A 
ATOM     30  C   UNL     1      -4.660  11.866  18.419  0.00  0.00    +0.000 A 
BRANCH  30  31
ATOM     31  N   UNL     1      -5.686  12.219  19.361  0.00  0.00    +0.000 N 
ATOM     32  C   UNL     1      -6.226  11.164  20.235  0.00  0.00    +0.000 C 
BRANCH  31  33
ATOM     33  S   UNL     1      -6.702  13.532  19.020  0.00  0.00    +0.000 S 
ATOM     34  C   UNL     1      -7.126  14.185  20.633  0.00  0.00    +0.000 C 
ATOM     35  O   UNL     1      -5.884  14.538  18.369  0.00  0.00    +0.000 OA
ATOM     36  O   UNL     1      -7.917  13.053  18.395  0.00  0.00    +0.000 OA
ENDBRANCH  31  33
ENDBRANCH  30  31
ENDBRANCH  24  25
ENDBRANCH  22  24
ENDBRANCH   5  22
TORSDOF 6
ENDMDL
MODEL 9
REMARK VINA RESULT:      -8.0      5.280     11.905
REMARK  Name = 
REMARK  9 active torsions:
REMARK  status: ('A' for Active; 'I' for Inactive)
REMARK    1  A    between atoms: C_1  and  N_2
REMARK    2  A    between atoms: C_7  and  N_8
REMARK    3  A    between atoms: C_12  and  N_13
REMARK    4  A    between atoms: N_13  and  C_14
REMARK    5  A    between atoms: C_14  and  C_15
REMARK    6  A    between atoms: C_20  and  N_21
REMARK    7  A    between atoms: N_21  and  C_22
REMARK    8  A    between atoms: N_21  and  S_23
REMARK    9  A    between atoms: S_23  and  C_24
REMARK                            x       y       z     vdW  Elec       q    Type
REMARK                         _______ _______ _______ _____ _____    ______ ____
ROOT
ATOM      1  N   UNL     1       1.361   8.172  20.514  0.00  0.00    +0.000 N 
ATOM      2  C   UNL     1       0.858   9.397  20.289  0.00  0.00    +0.000 A 
ATOM      3  N   UNL     1       0.238   9.948  21.383  0.00  0.00    +0.000 NA
ATOM      4  C   UNL     1      -0.142  11.136  20.969  0.00  0.00    +0.000 A 
ATOM      5  C   UNL     1      -0.833  12.214  21.634  0.00  0.00    +0.000 A 
ATOM      6  C   UNL     1      -1.004  13.361  20.938  0.00  0.00    +0.000 A 
ATOM      7  C   UNL     1      -0.572  13.521  19.557  0.00  0.00    +0.000 A 
ATOM      8  C   UNL     1       0.021  12.487  18.938  0.00  0.00    +0.000 A 
ATOM      9  N   UNL     1       0.244  11.300  19.637  0.00  0.00    +0.000 N 
ATOM     10  N   UNL     1       0.852  10.166  19.197  0.00  0.00    +0.000 NA
ATOM     11  H   UNL     1       1.252   7.905  21.485  0.00  0.00    +0.000 HD
ENDROOT
BRANCH   1  18
ATOM     12  C   UNL     1       3.416   1.686  18.485  0.00  0.00    +0.000 C 
ATOM     13  N   UNL     1       3.977   2.911  19.043  0.00  0.00    +0.000 NA
ATOM     14  C   UNL     1       4.209   3.942  17.995  0.00  0.00    +0.000 C 
ATOM     15  C   UNL     1       3.510   5.178  18.464  0.00  0.00    +0.000 A 
ATOM     16  C   UNL     1       3.429   6.435  17.880  0.00  0.00    +0.000 A 
ATOM     17  C   UNL     1       2.720   7.455  18.549  0.00  0.00    +0.000 A 
ATOM     18  C   UNL     1       2.088   7.216  19.780  0.00  0.00    +0.000 A 
ATOM     19  C   UNL     1       2.173   5.918  20.329  0.00  0.00    +0.000 A 
ATOM     20  C   UNL     1       2.878   4.924  19.668  0.00  0.00    +0.000 A 
ATOM     21  C   UNL     1       3.084   3.502  20.069  0.00  0.00    +0.000 C 
ENDBRANCH   1  18
BRANCH   5  22
ATOM     22  N   UNL     1      -1.276  12.103  22.963  0.00  0.00    +0.000 N 
ATOM     23  H   UNL     1      -0.838  11.266  23.363  0.00  0.00    +0.000 HD
BRANCH  22  24
ATOM     24  C   UNL     1      -2.722  11.955  23.234  0.00  0.00    +0.000 C 
BRANCH  24  25
ATOM     25  C   UNL     1      -3.385  13.280  23.567  0.00  0.00    +0.000 A 
ATOM     26  C   UNL     1      -2.805  14.091  24.565  0.00  0.00    +0.000 A 
ATOM     27  C   UNL     1      -3.273  15.381  24.820  0.00  0.00    +0.000 A 
ATOM     28  C   UNL     1      -4.330  15.894  24.076  0.00  0.00    +0.000 A 
ATOM     29  C   UNL     1      -4.926  15.110  23.087  0.00  0.00    +0.000 A 
ATOM     30  C   UNL     1      -4.467  13.809  22.829  0.00  0.00    +0.000 A 
BRANCH  30  31
ATOM     31  N   UNL     1      -5.065  13.064  21.756  0.00  0.00    +0.000 N 
ATOM     32  C   UNL     1      -4.684  13.397  20.373  0.00  0.00    +0.000 C 
BRANCH  31  33
ATOM     33  S   UNL     1      -6.596  12.371  21.987  0.00  0.00    +0.000 S 
ATOM     34  C   UNL     1      -7.733  13.628  21.409  0.00  0.00    +0.000 C 
ATOM     35  O   UNL     1      -6.698  11.262  21.058  0.00  0.00    +0.000 OA
ATOM     36  O   UNL     1      -6.827  12.171  23.401  0.00  0.00    +0.000 OA
ENDBRANCH  31  33
ENDBRANCH  30  31
ENDBRANCH  24  25
ENDBRANCH  22  24
ENDBRANCH   5  22
TORSDOF 6
ENDMDL
