MODEL 1
REMARK VINA RESULT:      -6.5      0.000      0.000
REMARK  Name = 
REMARK  5 active torsions:
REMARK  status: ('A' for Active; 'I' for Inactive)
REMARK    1  A    between atoms: C_1  and  C_2
REMARK    2  A    between atoms: C_2  and  C_3
REMARK    3  A    between atoms: C_2  and  C_4
REMARK    4  A    between atoms: N_12  and  C_13
REMARK    5  A    between atoms: C_13  and  C_14
REMARK                            x       y       z     vdW  Elec       q    Type
REMARK                         _______ _______ _______ _____ _____    ______ ____
ROOT
ATOM      1  C   UNL     1       2.414   4.301  18.530  0.00  0.00    +0.000 C 
ATOM      2  O   UNL     1       1.783   5.023  19.297  0.00  0.00    +0.000 OA
ATOM      3  N   UNL     1       3.523   4.761  17.844  0.00  0.00    +0.000 N 
ATOM      4  C   UNL     1       4.056   6.097  18.058  0.00  0.00    +0.000 C 
ATOM      5  C   UNL     1       4.682   6.486  16.727  0.00  0.00    +0.000 C 
ATOM      6  C   UNL     1       5.134   5.143  16.175  0.00  0.00    +0.000 C 
ATOM      7  C   UNL     1       5.380   4.942  14.648  0.00  0.00    +0.000 C 
ATOM      8  C   UNL     1       6.553   4.040  15.131  0.00  0.00    +0.000 C 
ATOM      9  N   UNL     1       6.628   4.947  16.299  0.00  0.00    +0.000 NA
ATOM     10  C   UNL     1       4.164   4.082  16.732  0.00  0.00    +0.000 C 
ENDROOT
BRANCH   1  12
ATOM     11  C   UNL     1       3.062   2.016  19.226  0.00  0.00    +0.000 C 
ATOM     12  C   UNL     1       2.073   2.816  18.377  0.00  0.00    +0.000 C 
ATOM     13  C   UNL     1       0.636   2.521  18.797  0.00  0.00    +0.000 C 
ENDBRANCH   1  12
BRANCH   9  14
ATOM     14  C   UNL     1       7.046   4.377  17.567  0.00  0.00    +0.000 C 
BRANCH  14  15
ATOM     15  C   UNL     1       8.053   5.203  18.307  0.00  0.00    +0.000 C 
ATOM     16  C   UNL     1       7.790   6.685  18.412  0.00  0.00    +0.000 C 
ATOM     17  C   UNL     1       7.707   5.826  19.641  0.00  0.00    +0.000 C 
ENDBRANCH  14  15
ENDBRANCH   9  14
TORSDOF 3
ENDMDL
MODEL 2
REMARK VINA RESULT:      -6.0      2.204      5.301
REMARK  Name = 
REMARK  5 active torsions:
REMARK  status: ('A' for Active; 'I' for Inactive)
REMARK    1  A    between atoms: C_1  and  C_2
REMARK    2  A    between atoms: C_2  and  C_3
REMARK    3  A    between atoms: C_2  and  C_4
REMARK    4  A    between atoms: N_12  and  C_13
REMARK    5  A    between atoms: C_13  and  C_14
REMARK                            x       y       z     vdW  Elec       q    Type
REMARK                         _______ _______ _______ _____ _____    ______ ____
ROOT
ATOM      1  C   UNL     1       5.347   4.163  16.472  0.00  0.00    +0.000 C 
ATOM      2  O   UNL     1       5.394   3.104  15.849  0.00  0.00    +0.000 OA
ATOM      3  N   UNL     1       4.227   4.532  17.194  0.00  0.00    +0.000 N 
ATOM      4  C   UNL     1       3.078   3.652  17.330  0.00  0.00    +0.000 C 
ATOM      5  C   UNL     1       1.886   4.586  17.476  0.00  0.00    +0.000 C 
ATOM      6  C   UNL     1       2.499   5.790  18.172  0.00  0.00    +0.000 C 
ATOM      7  C   UNL     1       1.820   7.193  18.101  0.00  0.00    +0.000 C 
ATOM      8  C   UNL     1       2.315   7.317  19.572  0.00  0.00    +0.000 C 
ATOM      9  N   UNL     1       2.141   5.847  19.640  0.00  0.00    +0.000 NA
ATOM     10  C   UNL     1       3.975   5.858  17.730  0.00  0.00    +0.000 C 
ENDROOT
BRANCH   1  12
ATOM     11  C   UNL     1       7.476   4.533  17.676  0.00  0.00    +0.000 C 
ATOM     12  C   UNL     1       6.570   5.079  16.572  0.00  0.00    +0.000 C 
ATOM     13  C   UNL     1       7.320   5.166  15.247  0.00  0.00    +0.000 C 
ENDBRANCH   1  12
BRANCH   9  14
ATOM     14  C   UNL     1       3.045   5.103  20.497  0.00  0.00    +0.000 C 
BRANCH  14  15
ATOM     15  C   UNL     1       2.363   4.133  21.413  0.00  0.00    +0.000 C 
ATOM     16  C   UNL     1       1.183   3.373  20.859  0.00  0.00    +0.000 C 
ATOM     17  C   UNL     1       2.459   2.644  21.167  0.00  0.00    +0.000 C 
ENDBRANCH  14  15
ENDBRANCH   9  14
TORSDOF 3
ENDMDL
MODEL 3
REMARK VINA RESULT:      -6.0      1.586      3.225
REMARK  Name = 
REMARK  5 active torsions:
REMARK  status: ('A' for Active; 'I' for Inactive)
REMARK    1  A    between atoms: C_1  and  C_2
REMARK    2  A    between atoms: C_2  and  C_3
REMARK    3  A    between atoms: C_2  and  C_4
REMARK    4  A    between atoms: N_12  and  C_13
REMARK    5  A    between atoms: C_13  and  C_14
REMARK                            x       y       z     vdW  Elec       q    Type
REMARK                         _______ _______ _______ _____ _____    ______ ____
ROOT
ATOM      1  C   UNL     1       3.065   3.371  19.593  0.00  0.00    +0.000 C 
ATOM      2  O   UNL     1       3.379   2.546  20.447  0.00  0.00    +0.000 OA
ATOM      3  N   UNL     1       4.017   4.040  18.844  0.00  0.00    +0.000 N 
ATOM      4  C   UNL     1       5.435   3.741  18.964  0.00  0.00    +0.000 C 
ATOM      5  C   UNL     1       6.139   5.051  18.643  0.00  0.00    +0.000 C 
ATOM      6  C   UNL     1       5.181   5.702  17.657  0.00  0.00    +0.000 C 
ATOM      7  C   UNL     1       5.198   7.244  17.417  0.00  0.00    +0.000 C 
ATOM      8  C   UNL     1       4.902   6.843  15.942  0.00  0.00    +0.000 C 
ATOM      9  N   UNL     1       5.678   5.615  16.233  0.00  0.00    +0.000 NA
ATOM     10  C   UNL     1       3.766   5.207  18.017  0.00  0.00    +0.000 C 
ENDROOT
BRANCH   1  12
ATOM     11  C   UNL     1       1.001   2.301  18.748  0.00  0.00    +0.000 C 
ATOM     12  C   UNL     1       1.598   3.623  19.232  0.00  0.00    +0.000 C 
ATOM     13  C   UNL     1       0.811   4.171  20.418  0.00  0.00    +0.000 C 
ENDBRANCH   1  12
BRANCH   9  14
ATOM     14  C   UNL     1       5.291   4.397  15.545  0.00  0.00    +0.000 C 
BRANCH  14  15
ATOM     15  C   UNL     1       6.349   3.840  14.642  0.00  0.00    +0.000 C 
ATOM     16  C   UNL     1       5.985   3.643  13.191  0.00  0.00    +0.000 C 
ATOM     17  C   UNL     1       6.979   4.703  13.571  0.00  0.00    +0.000 C 
ENDBRANCH  14  15
ENDBRANCH   9  14
TORSDOF 3
ENDMDL
MODEL 4
REMARK VINA RESULT:      -5.8      2.178      5.281
REMARK  Name = 
REMARK  5 active torsions:
REMARK  status: ('A' for Active; 'I' for Inactive)
REMARK    1  A    between atoms: C_1  and  C_2
REMARK    2  A    between atoms: C_2  and  C_3
REMARK    3  A    between atoms: C_2  and  C_4
REMARK    4  A    between atoms: N_12  and  C_13
REMARK    5  A    between atoms: C_13  and  C_14
REMARK                            x       y       z     vdW  Elec       q    Type
REMARK                         _______ _______ _______ _____ _____    ______ ____
ROOT
ATOM      1  C   UNL     1       5.996   5.314  16.942  0.00  0.00    +0.000 C 
ATOM      2  O   UNL     1       6.869   6.036  17.420  0.00  0.00    +0.000 OA
ATOM      3  N   UNL     1       5.174   4.541  17.742  0.00  0.00    +0.000 N 
ATOM      4  C   UNL     1       5.237   4.605  19.193  0.00  0.00    +0.000 C 
ATOM      5  C   UNL     1       4.826   3.217  19.663  0.00  0.00    +0.000 C 
ATOM      6  C   UNL     1       3.862   2.776  18.572  0.00  0.00    +0.000 C 
ATOM      7  C   UNL     1       3.556   1.265  18.331  0.00  0.00    +0.000 C 
ATOM      8  C   UNL     1       2.116   1.781  18.042  0.00  0.00    +0.000 C 
ATOM      9  N   UNL     1       2.419   2.854  19.017  0.00  0.00    +0.000 NA
ATOM     10  C   UNL     1       4.312   3.471  17.271  0.00  0.00    +0.000 C 
ENDROOT
BRANCH   1  12
ATOM     11  C   UNL     1       5.209   6.715  15.061  0.00  0.00    +0.000 C 
ATOM     12  C   UNL     1       5.699   5.317  15.440  0.00  0.00    +0.000 C 
ATOM     13  C   UNL     1       6.926   4.932  14.621  0.00  0.00    +0.000 C 
ENDBRANCH   1  12
BRANCH   9  14
ATOM     14  C   UNL     1       1.804   4.151  18.802  0.00  0.00    +0.000 C 
BRANCH  14  15
ATOM     15  C   UNL     1       1.243   4.776  20.042  0.00  0.00    +0.000 C 
ATOM     16  C   UNL     1       2.079   4.696  21.296  0.00  0.00    +0.000 C 
ATOM     17  C   UNL     1       1.867   6.024  20.626  0.00  0.00    +0.000 C 
ENDBRANCH  14  15
ENDBRANCH   9  14
TORSDOF 3
ENDMDL
MODEL 5
REMARK VINA RESULT:      -5.8      2.318      5.577
REMARK  Name = 
REMARK  5 active torsions:
REMARK  status: ('A' for Active; 'I' for Inactive)
REMARK    1  A    between atoms: C_1  and  C_2
REMARK    2  A    between atoms: C_2  and  C_3
REMARK    3  A    between atoms: C_2  and  C_4
REMARK    4  A    between atoms: N_12  and  C_13
REMARK    5  A    between atoms: C_13  and  C_14
REMARK                            x       y       z     vdW  Elec       q    Type
REMARK                         _______ _______ _______ _____ _____    ______ ____
ROOT
ATOM      1  C   UNL     1       5.553   4.798  17.362  0.00  0.00    +0.000 C 
ATOM      2  O   UNL     1       5.687   3.962  16.472  0.00  0.00    +0.000 OA
ATOM      3  N   UNL     1       4.312   5.106  17.889  0.00  0.00    +0.000 N 
ATOM      4  C   UNL     1       3.110   4.395  17.485  0.00  0.00    +0.000 C 
ATOM      5  C   UNL     1       1.987   5.410  17.637  0.00  0.00    +0.000 C 
ATOM      6  C   UNL     1       2.480   6.271  18.790  0.00  0.00    +0.000 C 
ATOM      7  C   UNL     1       1.939   7.720  19.001  0.00  0.00    +0.000 C 
ATOM      8  C   UNL     1       2.044   7.353  20.511  0.00  0.00    +0.000 C 
ATOM      9  N   UNL     1       1.759   5.964  20.083  0.00  0.00    +0.000 NA
ATOM     10  C   UNL     1       4.020   6.250  18.735  0.00  0.00    +0.000 C 
ENDROOT
BRANCH   1  12
ATOM     11  C   UNL     1       7.935   4.481  17.949  0.00  0.00    +0.000 C 
ATOM     12  C   UNL     1       6.768   5.466  18.013  0.00  0.00    +0.000 C 
ATOM     13  C   UNL     1       7.127   6.778  17.323  0.00  0.00    +0.000 C 
ENDBRANCH   1  12
BRANCH   9  14
ATOM     14  C   UNL     1       2.358   4.888  20.851  0.00  0.00    +0.000 C 
BRANCH  14  15
ATOM     15  C   UNL     1       1.444   3.728  21.099  0.00  0.00    +0.000 C 
ATOM     16  C   UNL     1       1.672   2.480  20.281  0.00  0.00    +0.000 C 
ATOM     17  C   UNL     1       1.959   2.467  21.755  0.00  0.00    +0.000 C 
ENDBRANCH  14  15
ENDBRANCH   9  14
TORSDOF 3
ENDMDL
MODEL 6
REMARK VINA RESULT:      -5.7      2.357      5.280
REMARK  Name = 
REMARK  5 active torsions:
REMARK  status: ('A' for Active; 'I' for Inactive)
REMARK    1  A    between atoms: C_1  and  C_2
REMARK    2  A    between atoms: C_2  and  C_3
REMARK    3  A    between atoms: C_2  and  C_4
REMARK    4  A    between atoms: N_12  and  C_13
REMARK    5  A    between atoms: C_13  and  C_14
REMARK                            x       y       z     vdW  Elec       q    Type
REMARK                         _______ _______ _______ _____ _____    ______ ____
ROOT
ATOM      1  C   UNL     1       6.342   4.596  16.640  0.00  0.00    +0.000 C 
ATOM      2  O   UNL     1       7.490   4.802  17.026  0.00  0.00    +0.000 OA
ATOM      3  N   UNL     1       5.324   4.279  17.521  0.00  0.00    +0.000 N 
ATOM      4  C   UNL     1       5.535   4.259  18.960  0.00  0.00    +0.000 C 
ATOM      5  C   UNL     1       4.557   3.218  19.483  0.00  0.00    +0.000 C 
ATOM      6  C   UNL     1       3.408   3.322  18.491  0.00  0.00    +0.000 C 
ATOM      7  C   UNL     1       2.402   2.145  18.299  0.00  0.00    +0.000 C 
ATOM      8  C   UNL     1       1.360   3.291  18.136  0.00  0.00    +0.000 C 
ATOM      9  N   UNL     1       2.220   4.060  19.065  0.00  0.00    +0.000 NA
ATOM     10  C   UNL     1       4.020   3.762  17.146  0.00  0.00    +0.000 C 
ENDROOT
BRANCH   1  12
ATOM     11  C   UNL     1       5.276   6.153  15.040  0.00  0.00    +0.000 C 
ATOM     12  C   UNL     1       5.952   4.788  15.171  0.00  0.00    +0.000 C 
ATOM     13  C   UNL     1       7.163   4.691  14.249  0.00  0.00    +0.000 C 
ENDBRANCH   1  12
BRANCH   9  14
ATOM     14  C   UNL     1       2.279   5.500  18.891  0.00  0.00    +0.000 C 
BRANCH  14  15
ATOM     15  C   UNL     1       2.392   6.268  20.172  0.00  0.00    +0.000 C 
ATOM     16  C   UNL     1       1.966   7.716  20.149  0.00  0.00    +0.000 C 
ATOM     17  C   UNL     1       1.152   6.713  20.915  0.00  0.00    +0.000 C 
ENDBRANCH  14  15
ENDBRANCH   9  14
TORSDOF 3
ENDMDL
MODEL 7
REMARK VINA RESULT:      -5.7      2.096      5.658
REMARK  Name = 
REMARK  5 active torsions:
REMARK  status: ('A' for Active; 'I' for Inactive)
REMARK    1  A    between atoms: C_1  and  C_2
REMARK    2  A    between atoms: C_2  and  C_3
REMARK    3  A    between atoms: C_2  and  C_4
REMARK    4  A    between atoms: N_12  and  C_13
REMARK    5  A    between atoms: C_13  and  C_14
REMARK                            x       y       z     vdW  Elec       q    Type
REMARK                         _______ _______ _______ _____ _____    ______ ____
ROOT
ATOM      1  C   UNL     1       5.837   6.172  17.356  0.00  0.00    +0.000 C 
ATOM      2  O   UNL     1       5.994   6.231  16.139  0.00  0.00    +0.000 OA
ATOM      3  N   UNL     1       4.651   5.735  17.916  0.00  0.00    +0.000 N 
ATOM      4  C   UNL     1       3.556   5.237  17.099  0.00  0.00    +0.000 C 
ATOM      5  C   UNL     1       2.298   5.573  17.886  0.00  0.00    +0.000 C 
ATOM      6  C   UNL     1       2.784   5.499  19.325  0.00  0.00    +0.000 C 
ATOM      7  C   UNL     1       2.020   6.232  20.472  0.00  0.00    +0.000 C 
ATOM      8  C   UNL     1       2.409   4.973  21.301  0.00  0.00    +0.000 C 
ATOM      9  N   UNL     1       2.329   4.235  20.019  0.00  0.00    +0.000 NA
ATOM     10  C   UNL     1       4.277   5.882  19.312  0.00  0.00    +0.000 C 
ENDROOT
BRANCH   1  12
ATOM     11  C   UNL     1       7.842   5.213  18.443  0.00  0.00    +0.000 C 
ATOM     12  C   UNL     1       6.988   6.475  18.320  0.00  0.00    +0.000 C 
ATOM     13  C   UNL     1       7.829   7.655  17.842  0.00  0.00    +0.000 C 
ENDBRANCH   1  12
BRANCH   9  14
ATOM     14  C   UNL     1       3.222   3.106  19.836  0.00  0.00    +0.000 C 
BRANCH  14  15
ATOM     15  C   UNL     1       2.585   1.921  19.178  0.00  0.00    +0.000 C 
ATOM     16  C   UNL     1       1.207   2.112  18.594  0.00  0.00    +0.000 C 
ATOM     17  C   UNL     1       2.378   1.891  17.680  0.00  0.00    +0.000 C 
ENDBRANCH  14  15
ENDBRANCH   9  14
TORSDOF 3
ENDMDL
MODEL 8
REMARK VINA RESULT:      -5.6      2.078      5.380
REMARK  Name = 
REMARK  5 active torsions:
REMARK  status: ('A' for Active; 'I' for Inactive)
REMARK    1  A    between atoms: C_1  and  C_2
REMARK    2  A    between atoms: C_2  and  C_3
REMARK    3  A    between atoms: C_2  and  C_4
REMARK    4  A    between atoms: N_12  and  C_13
REMARK    5  A    between atoms: C_13  and  C_14
REMARK                            x       y       z     vdW  Elec       q    Type
REMARK                         _______ _______ _______ _____ _____    ______ ____
ROOT
ATOM      1  C   UNL     1       7.192   5.078  17.207  0.00  0.00    +0.000 C 
ATOM      2  O   UNL     1       7.773   4.421  16.347  0.00  0.00    +0.000 OA
ATOM      3  N   UNL     1       5.839   4.925  17.447  0.00  0.00    +0.000 N 
ATOM      4  C   UNL     1       5.047   3.919  16.759  0.00  0.00    +0.000 C 
ATOM      5  C   UNL     1       3.647   4.509  16.681  0.00  0.00    +0.000 C 
ATOM      6  C   UNL     1       3.582   5.359  17.941  0.00  0.00    +0.000 C 
ATOM      7  C   UNL     1       2.564   6.535  18.066  0.00  0.00    +0.000 C 
ATOM      8  C   UNL     1       2.471   6.068  19.549  0.00  0.00    +0.000 C 
ATOM      9  N   UNL     1       2.753   4.711  19.027  0.00  0.00    +0.000 NA
ATOM     10  C   UNL     1       5.020   5.827  18.238  0.00  0.00    +0.000 C 
ENDROOT
BRANCH   1  12
ATOM     11  C   UNL     1       7.603   7.458  17.745  0.00  0.00    +0.000 C 
ATOM     12  C   UNL     1       7.959   6.023  18.137  0.00  0.00    +0.000 C 
ATOM     13  C   UNL     1       7.629   5.764  19.603  0.00  0.00    +0.000 C 
ENDBRANCH   1  12
BRANCH   9  14
ATOM     14  C   UNL     1       3.501   3.805  19.879  0.00  0.00    +0.000 C 
BRANCH  14  15
ATOM     15  C   UNL     1       2.974   2.403  19.895  0.00  0.00    +0.000 C 
ATOM     16  C   UNL     1       1.926   2.047  18.869  0.00  0.00    +0.000 C 
ATOM     17  C   UNL     1       3.298   1.446  18.769  0.00  0.00    +0.000 C 
ENDBRANCH  14  15
ENDBRANCH   9  14
TORSDOF 3
ENDMDL
MODEL 9
REMARK VINA RESULT:      -5.6      2.517      5.013
REMARK  Name = 
REMARK  5 active torsions:
REMARK  status: ('A' for Active; 'I' for Inactive)
REMARK    1  A    between atoms: C_1  and  C_2
REMARK    2  A    between atoms: C_2  and  C_3
REMARK    3  A    between atoms: C_2  and  C_4
REMARK    4  A    between atoms: N_12  and  C_13
REMARK    5  A    between atoms: C_13  and  C_14
REMARK                            x       y       z     vdW  Elec       q    Type
REMARK                         _______ _______ _______ _____ _____    ______ ____
ROOT
ATOM      1  C   UNL     1       1.888   8.184  19.148  0.00  0.00    +0.000 C 
ATOM      2  O   UNL     1       1.425   8.469  20.250  0.00  0.00    +0.000 OA
ATOM      3  N   UNL     1       2.612   7.024  18.942  0.00  0.00    +0.000 N 
ATOM      4  C   UNL     1       2.790   6.035  19.993  0.00  0.00    +0.000 C 
ATOM      5  C   UNL     1       4.134   5.387  19.695  0.00  0.00    +0.000 C 
ATOM      6  C   UNL     1       4.211   5.479  18.179  0.00  0.00    +0.000 C 
ATOM      7  C   UNL     1       5.582   5.409  17.437  0.00  0.00    +0.000 C 
ATOM      8  C   UNL     1       4.770   4.614  16.373  0.00  0.00    +0.000 C 
ATOM      9  N   UNL     1       3.939   4.151  17.510  0.00  0.00    +0.000 NA
ATOM     10  C   UNL     1       3.415   6.734  17.767  0.00  0.00    +0.000 C 
ENDROOT
BRANCH   1  12
ATOM     11  C   UNL     1       0.096   9.357  17.910  0.00  0.00    +0.000 C 
ATOM     12  C   UNL     1       1.593   9.045  17.917  0.00  0.00    +0.000 C 
ATOM     13  C   UNL     1       2.414  10.330  17.916  0.00  0.00    +0.000 C 
ENDBRANCH   1  12
BRANCH   9  14
ATOM     14  C   UNL     1       2.533   3.896  17.254  0.00  0.00    +0.000 C 
BRANCH  14  15
ATOM     15  C   UNL     1       2.042   2.584  17.785  0.00  0.00    +0.000 C 
ATOM     16  C   UNL     1       2.357   2.260  19.225  0.00  0.00    +0.000 C 
ATOM     17  C   UNL     1       0.938   2.536  18.817  0.00  0.00    +0.000 C 
ENDBRANCH  14  15
ENDBRANCH   9  14
TORSDOF 3
ENDMDL
