MODEL 1
REMARK VINA RESULT:      -6.4      0.000      0.000
REMARK  Name = 
REMARK  13 active torsions:
REMARK  status: ('A' for Active; 'I' for Inactive)
REMARK    1  A    between atoms: C_1  and  C_2
REMARK    2  A    between atoms: C_2  and  O_3
REMARK    3  A    between atoms: O_3  and  C_4
REMARK    4  A    between atoms: C_4  and  C_6
REMARK    5  A    between atoms: C_6  and  C_7
REMARK    6  A    between atoms: C_7  and  N_8
REMARK    7  A    between atoms: N_8  and  C_9
REMARK    8  A    between atoms: C_9  and  C_10
REMARK    9  A    between atoms: C_10  and  O_11
REMARK   10  A    between atoms: C_10  and  C_12
REMARK   11  A    between atoms: C_12  and  O_13
REMARK   12  A    between atoms: O_13  and  C_14
REMARK   13  A    between atoms: C_18  and  C_19
REMARK                            x       y       z     vdW  Elec       q    Type
REMARK                         _______ _______ _______ _____ _____    ______ ____
ROOT
ATOM      1  C   UNL     1       6.644   4.707  17.690  0.00  0.00    +0.000 C 
ENDROOT
BRANCH   1   2
ATOM      2  O   UNL     1       7.882   4.022  17.932  0.00  0.00    +0.000 OA
ATOM      3  H   UNL     1       7.826   3.143  17.523  0.00  0.00    +0.000 HD
ENDBRANCH   1   2
BRANCH   1   4
ATOM      4  C   UNL     1       6.923   5.937  16.805  0.00  0.00    +0.000 C 
BRANCH   4   5
ATOM      5  N   UNL     1       5.755   6.261  15.971  0.00  0.00    +0.000 NA
ATOM      6  H   UNL     1       4.930   6.303  16.575  0.00  0.00    +0.000 HD
BRANCH   5   7
ATOM      7  C   UNL     1       5.585   5.277  14.902  0.00  0.00    +0.000 C 
BRANCH   7   8
ATOM      8  C   UNL     1       6.928   4.837  14.330  0.00  0.00    +0.000 C 
BRANCH   8   9
ATOM      9  C   UNL     1       6.710   4.218  12.974  0.00  0.00    +0.000 C 
ATOM     10  O   UNL     1       7.389   4.446  11.982  0.00  0.00    +0.000 OA
BRANCH   9  11
ATOM     11  O   UNL     1       5.599   3.429  12.993  0.00  0.00    +0.000 OA
BRANCH  11  13
ATOM     12  C   UNL     1       4.060   3.209  11.188  0.00  0.00    +0.000 C 
ATOM     13  C   UNL     1       5.366   2.703  11.777  0.00  0.00    +0.000 C 
ENDBRANCH  11  13
ENDBRANCH   9  11
ENDBRANCH   8   9
ENDBRANCH   7   8
ENDBRANCH   5   7
ENDBRANCH   4   5
ENDBRANCH   1   4
BRANCH   1  14
ATOM     14  C   UNL     1       5.990   5.155  19.010  0.00  0.00    +0.000 C 
BRANCH  14  15
ATOM     15  O   UNL     1       4.753   5.830  18.747  0.00  0.00    +0.000 OA
BRANCH  15  16
ATOM     16  C   UNL     1       3.628   5.043  18.749  0.00  0.00    +0.000 A 
ATOM     17  C   UNL     1       2.857   4.733  17.631  0.00  0.00    +0.000 A 
ATOM     18  C   UNL     1       1.740   3.904  17.748  0.00  0.00    +0.000 A 
ATOM     19  C   UNL     1       1.378   3.388  18.990  0.00  0.00    +0.000 A 
ATOM     20  C   UNL     1       2.133   3.697  20.126  0.00  0.00    +0.000 A 
ATOM     21  C   UNL     1       1.742   3.151  21.470  0.00  0.00    +0.000 C 
ATOM     22  C   UNL     1       3.258   4.528  19.997  0.00  0.00    +0.000 A 
ENDBRANCH  15  16
ENDBRANCH  14  15
ENDBRANCH   1  14
TORSDOF 11
ENDMDL
MODEL 2
REMARK VINA RESULT:      -6.3      1.176      1.655
REMARK  Name = 
REMARK  13 active torsions:
REMARK  status: ('A' for Active; 'I' for Inactive)
REMARK    1  A    between atoms: C_1  and  C_2
REMARK    2  A    between atoms: C_2  and  O_3
REMARK    3  A    between atoms: O_3  and  C_4
REMARK    4  A    between atoms: C_4  and  C_6
REMARK    5  A    between atoms: C_6  and  C_7
REMARK    6  A    between atoms: C_7  and  N_8
REMARK    7  A    between atoms: N_8  and  C_9
REMARK    8  A    between atoms: C_9  and  C_10
REMARK    9  A    between atoms: C_10  and  O_11
REMARK   10  A    between atoms: C_10  and  C_12
REMARK   11  A    between atoms: C_12  and  O_13
REMARK   12  A    between atoms: O_13  and  C_14
REMARK   13  A    between atoms: C_18  and  C_19
REMARK                            x       y       z     vdW  Elec       q    Type
REMARK                         _______ _______ _______ _____ _____    ______ ____
ROOT
ATOM      1  C   UNL     1       5.980   4.888  18.356  0.00  0.00    +0.000 C 
ENDROOT
BRANCH   1   2
ATOM      2  O   UNL     1       6.941   5.129  19.395  0.00  0.00    +0.000 OA
ATOM      3  H   UNL     1       6.911   4.381  20.012  0.00  0.00    +0.000 HD
ENDBRANCH   1   2
BRANCH   1   4
ATOM      4  C   UNL     1       6.730   4.474  17.074  0.00  0.00    +0.000 C 
BRANCH   4   5
ATOM      5  N   UNL     1       5.864   3.673  16.195  0.00  0.00    +0.000 NA
ATOM      6  H   UNL     1       6.347   2.796  15.980  0.00  0.00    +0.000 HD
BRANCH   5   7
ATOM      7  C   UNL     1       5.527   4.410  14.976  0.00  0.00    +0.000 C 
BRANCH   7   8
ATOM      8  C   UNL     1       6.772   4.728  14.155  0.00  0.00    +0.000 C 
BRANCH   8   9
ATOM      9  C   UNL     1       6.676   4.034  12.822  0.00  0.00    +0.000 C 
ATOM     10  O   UNL     1       7.345   4.312  11.836  0.00  0.00    +0.000 OA
BRANCH   9  11
ATOM     11  O   UNL     1       5.680   3.103  12.849  0.00  0.00    +0.000 OA
BRANCH  11  13
ATOM     12  C   UNL     1       3.992   3.161  11.170  0.00  0.00    +0.000 C 
ATOM     13  C   UNL     1       5.334   2.567  11.564  0.00  0.00    +0.000 C 
ENDBRANCH  11  13
ENDBRANCH   9  11
ENDBRANCH   8   9
ENDBRANCH   7   8
ENDBRANCH   5   7
ENDBRANCH   4   5
ENDBRANCH   1   4
BRANCH   1  14
ATOM     14  C   UNL     1       5.134   6.145  18.079  0.00  0.00    +0.000 C 
BRANCH  14  15
ATOM     15  O   UNL     1       3.836   5.774  17.599  0.00  0.00    +0.000 OA
BRANCH  15  16
ATOM     16  C   UNL     1       2.959   5.304  18.544  0.00  0.00    +0.000 A 
ATOM     17  C   UNL     1       2.678   5.918  19.763  0.00  0.00    +0.000 A 
ATOM     18  C   UNL     1       1.751   5.356  20.643  0.00  0.00    +0.000 A 
ATOM     19  C   UNL     1       1.104   4.168  20.314  0.00  0.00    +0.000 A 
ATOM     20  C   UNL     1       1.379   3.530  19.100  0.00  0.00    +0.000 A 
ATOM     21  C   UNL     1       0.691   2.244  18.744  0.00  0.00    +0.000 C 
ATOM     22  C   UNL     1       2.311   4.106  18.219  0.00  0.00    +0.000 A 
ENDBRANCH  15  16
ENDBRANCH  14  15
ENDBRANCH   1  14
TORSDOF 11
ENDMDL
MODEL 3
REMARK VINA RESULT:      -6.3      1.515      1.749
REMARK  Name = 
REMARK  13 active torsions:
REMARK  status: ('A' for Active; 'I' for Inactive)
REMARK    1  A    between atoms: C_1  and  C_2
REMARK    2  A    between atoms: C_2  and  O_3
REMARK    3  A    between atoms: O_3  and  C_4
REMARK    4  A    between atoms: C_4  and  C_6
REMARK    5  A    between atoms: C_6  and  C_7
REMARK    6  A    between atoms: C_7  and  N_8
REMARK    7  A    between atoms: N_8  and  C_9
REMARK    8  A    between atoms: C_9  and  C_10
REMARK    9  A    between atoms: C_10  and  O_11
REMARK   10  A    between atoms: C_10  and  C_12
REMARK   11  A    between atoms: C_12  and  O_13
REMARK   12  A    between atoms: O_13  and  C_14
REMARK   13  A    between atoms: C_18  and  C_19
REMARK                            x       y       z     vdW  Elec       q    Type
REMARK                         _______ _______ _______ _____ _____    ______ ____
ROOT
ATOM      1  C   UNL     1       7.181   5.099  18.966  0.00  0.00    +0.000 C 
ENDROOT
BRANCH   1   2
ATOM      2  O   UNL     1       7.839   5.628  20.127  0.00  0.00    +0.000 OA
ATOM      3  H   UNL     1       7.203   6.184  20.607  0.00  0.00    +0.000 HD
ENDBRANCH   1   2
BRANCH   1   4
ATOM      4  C   UNL     1       7.247   6.149  17.838  0.00  0.00    +0.000 C 
BRANCH   4   5
ATOM      5  N   UNL     1       5.902   6.630  17.490  0.00  0.00    +0.000 NA
ATOM      6  H   UNL     1       5.214   6.028  17.951  0.00  0.00    +0.000 HD
BRANCH   5   7
ATOM      7  C   UNL     1       5.709   6.647  16.040  0.00  0.00    +0.000 C 
BRANCH   7   8
ATOM      8  C   UNL     1       5.411   5.252  15.500  0.00  0.00    +0.000 C 
BRANCH   8   9
ATOM      9  C   UNL     1       6.544   4.811  14.612  0.00  0.00    +0.000 C 
ATOM     10  O   UNL     1       7.584   5.432  14.441  0.00  0.00    +0.000 OA
BRANCH   9  11
ATOM     11  O   UNL     1       6.210   3.659  13.965  0.00  0.00    +0.000 OA
BRANCH  11  13
ATOM     12  C   UNL     1       5.287   3.058  11.853  0.00  0.00    +0.000 C 
ATOM     13  C   UNL     1       6.487   3.667  12.557  0.00  0.00    +0.000 C 
ENDBRANCH  11  13
ENDBRANCH   9  11
ENDBRANCH   8   9
ENDBRANCH   7   8
ENDBRANCH   5   7
ENDBRANCH   4   5
ENDBRANCH   1   4
BRANCH   1  14
ATOM     14  C   UNL     1       5.711   4.755  19.268  0.00  0.00    +0.000 C 
BRANCH  14  15
ATOM     15  O   UNL     1       5.254   3.717  18.392  0.00  0.00    +0.000 OA
BRANCH  15  16
ATOM     16  C   UNL     1       3.958   3.303  18.576  0.00  0.00    +0.000 A 
ATOM     17  C   UNL     1       3.379   2.177  17.996  0.00  0.00    +0.000 A 
ATOM     18  C   UNL     1       2.052   1.841  18.271  0.00  0.00    +0.000 A 
ATOM     19  C   UNL     1       1.290   2.638  19.122  0.00  0.00    +0.000 A 
ATOM     20  C   UNL     1       1.850   3.779  19.705  0.00  0.00    +0.000 A 
ATOM     21  C   UNL     1       1.030   4.646  20.616  0.00  0.00    +0.000 C 
ATOM     22  C   UNL     1       3.187   4.106  19.426  0.00  0.00    +0.000 A 
ENDBRANCH  15  16
ENDBRANCH  14  15
ENDBRANCH   1  14
TORSDOF 11
ENDMDL
MODEL 4
REMARK VINA RESULT:      -6.2      2.322      4.114
REMARK  Name = 
REMARK  13 active torsions:
REMARK  status: ('A' for Active; 'I' for Inactive)
REMARK    1  A    between atoms: C_1  and  C_2
REMARK    2  A    between atoms: C_2  and  O_3
REMARK    3  A    between atoms: O_3  and  C_4
REMARK    4  A    between atoms: C_4  and  C_6
REMARK    5  A    between atoms: C_6  and  C_7
REMARK    6  A    between atoms: C_7  and  N_8
REMARK    7  A    between atoms: N_8  and  C_9
REMARK    8  A    between atoms: C_9  and  C_10
REMARK    9  A    between atoms: C_10  and  O_11
REMARK   10  A    between atoms: C_10  and  C_12
REMARK   11  A    between atoms: C_12  and  O_13
REMARK   12  A    between atoms: O_13  and  C_14
REMARK   13  A    between atoms: C_18  and  C_19
REMARK                            x       y       z     vdW  Elec       q    Type
REMARK                         _______ _______ _______ _____ _____    ______ ____
ROOT
ATOM      1  C   UNL     1       3.850   2.054  19.130  0.00  0.00    +0.000 C 
ENDROOT
BRANCH   1   2
ATOM      2  O   UNL     1       4.530   2.169  20.389  0.00  0.00    +0.000 OA
ATOM      3  H   UNL     1       4.700   1.273  20.723  0.00  0.00    +0.000 HD
ENDBRANCH   1   2
BRANCH   1   4
ATOM      4  C   UNL     1       4.477   3.051  18.136  0.00  0.00    +0.000 C 
BRANCH   4   5
ATOM      5  N   UNL     1       5.746   3.585  18.656  0.00  0.00    +0.000 NA
ATOM      6  H   UNL     1       5.948   3.122  19.547  0.00  0.00    +0.000 HD
BRANCH   5   7
ATOM      7  C   UNL     1       5.680   5.038  18.811  0.00  0.00    +0.000 C 
BRANCH   7   8
ATOM      8  C   UNL     1       6.626   5.745  17.847  0.00  0.00    +0.000 C 
BRANCH   8   9
ATOM      9  C   UNL     1       7.565   4.734  17.244  0.00  0.00    +0.000 C 
ATOM     10  O   UNL     1       8.388   4.080  17.869  0.00  0.00    +0.000 OA
BRANCH   9  11
ATOM     11  O   UNL     1       7.420   4.712  15.889  0.00  0.00    +0.000 OA
BRANCH  11  13
ATOM     12  C   UNL     1       5.506   4.271  14.542  0.00  0.00    +0.000 C 
ATOM     13  C   UNL     1       6.202   5.303  15.412  0.00  0.00    +0.000 C 
ENDBRANCH  11  13
ENDBRANCH   9  11
ENDBRANCH   8   9
ENDBRANCH   7   8
ENDBRANCH   5   7
ENDBRANCH   4   5
ENDBRANCH   1   4
BRANCH   1  14
ATOM     14  C   UNL     1       2.346   2.351  19.282  0.00  0.00    +0.000 C 
BRANCH  14  15
ATOM     15  O   UNL     1       1.969   3.447  18.439  0.00  0.00    +0.000 OA
BRANCH  15  16
ATOM     16  C   UNL     1       1.969   4.686  19.030  0.00  0.00    +0.000 A 
ATOM     17  C   UNL     1       1.681   4.943  20.368  0.00  0.00    +0.000 A 
ATOM     18  C   UNL     1       1.730   6.247  20.865  0.00  0.00    +0.000 A 
ATOM     19  C   UNL     1       2.058   7.306  20.023  0.00  0.00    +0.000 A 
ATOM     20  C   UNL     1       2.339   7.070  18.674  0.00  0.00    +0.000 A 
ATOM     21  C   UNL     1       2.684   8.209  17.758  0.00  0.00    +0.000 C 
ATOM     22  C   UNL     1       2.292   5.754  18.184  0.00  0.00    +0.000 A 
ENDBRANCH  15  16
ENDBRANCH  14  15
ENDBRANCH   1  14
TORSDOF 11
ENDMDL
MODEL 5
REMARK VINA RESULT:      -6.1      3.078      4.631
REMARK  Name = 
REMARK  13 active torsions:
REMARK  status: ('A' for Active; 'I' for Inactive)
REMARK    1  A    between atoms: C_1  and  C_2
REMARK    2  A    between atoms: C_2  and  O_3
REMARK    3  A    between atoms: O_3  and  C_4
REMARK    4  A    between atoms: C_4  and  C_6
REMARK    5  A    between atoms: C_6  and  C_7
REMARK    6  A    between atoms: C_7  and  N_8
REMARK    7  A    between atoms: N_8  and  C_9
REMARK    8  A    between atoms: C_9  and  C_10
REMARK    9  A    between atoms: C_10  and  O_11
REMARK   10  A    between atoms: C_10  and  C_12
REMARK   11  A    between atoms: C_12  and  O_13
REMARK   12  A    between atoms: O_13  and  C_14
REMARK   13  A    between atoms: C_18  and  C_19
REMARK                            x       y       z     vdW  Elec       q    Type
REMARK                         _______ _______ _______ _____ _____    ______ ____
ROOT
ATOM      1  C   UNL     1       4.248   3.880  19.123  0.00  0.00    +0.000 C 
ENDROOT
BRANCH   1   2
ATOM      2  O   UNL     1       5.544   3.325  19.394  0.00  0.00    +0.000 OA
ATOM      3  H   UNL     1       5.458   2.359  19.422  0.00  0.00    +0.000 HD
ENDBRANCH   1   2
BRANCH   1   4
ATOM      4  C   UNL     1       3.997   3.832  17.602  0.00  0.00    +0.000 C 
BRANCH   4   5
ATOM      5  N   UNL     1       5.128   3.204  16.903  0.00  0.00    +0.000 NA
ATOM      6  H   UNL     1       5.926   3.174  17.543  0.00  0.00    +0.000 HD
BRANCH   5   7
ATOM      7  C   UNL     1       5.455   3.930  15.675  0.00  0.00    +0.000 C 
BRANCH   7   8
ATOM      8  C   UNL     1       6.811   4.619  15.779  0.00  0.00    +0.000 C 
BRANCH   8   9
ATOM      9  C   UNL     1       6.603   6.082  16.069  0.00  0.00    +0.000 C 
ATOM     10  O   UNL     1       5.581   6.708  15.822  0.00  0.00    +0.000 OA
BRANCH   9  11
ATOM     11  O   UNL     1       7.746   6.626  16.574  0.00  0.00    +0.000 OA
BRANCH  11  13
ATOM     12  C   UNL     1       8.063   8.606  17.860  0.00  0.00    +0.000 C 
ATOM     13  C   UNL     1       7.615   7.155  17.902  0.00  0.00    +0.000 C 
ENDBRANCH  11  13
ENDBRANCH   9  11
ENDBRANCH   8   9
ENDBRANCH   7   8
ENDBRANCH   5   7
ENDBRANCH   4   5
ENDBRANCH   1   4
BRANCH   1  14
ATOM     14  C   UNL     1       4.151   5.335  19.618  0.00  0.00    +0.000 C 
BRANCH  14  15
ATOM     15  O   UNL     1       2.790   5.668  19.919  0.00  0.00    +0.000 OA
BRANCH  15  16
ATOM     16  C   UNL     1       2.356   6.888  19.464  0.00  0.00    +0.000 A 
ATOM     17  C   UNL     1       2.504   7.365  18.163  0.00  0.00    +0.000 A 
ATOM     18  C   UNL     1       2.006   8.620  17.807  0.00  0.00    +0.000 A 
ATOM     19  C   UNL     1       1.363   9.412  18.755  0.00  0.00    +0.000 A 
ATOM     20  C   UNL     1       1.214   8.956  20.068  0.00  0.00    +0.000 A 
ATOM     21  C   UNL     1       0.529   9.810  21.096  0.00  0.00    +0.000 C 
ATOM     22  C   UNL     1       1.715   7.690  20.416  0.00  0.00    +0.000 A 
ENDBRANCH  15  16
ENDBRANCH  14  15
ENDBRANCH   1  14
TORSDOF 11
ENDMDL
MODEL 6
REMARK VINA RESULT:      -6.1      1.475      1.982
REMARK  Name = 
REMARK  13 active torsions:
REMARK  status: ('A' for Active; 'I' for Inactive)
REMARK    1  A    between atoms: C_1  and  C_2
REMARK    2  A    between atoms: C_2  and  O_3
REMARK    3  A    between atoms: O_3  and  C_4
REMARK    4  A    between atoms: C_4  and  C_6
REMARK    5  A    between atoms: C_6  and  C_7
REMARK    6  A    between atoms: C_7  and  N_8
REMARK    7  A    between atoms: N_8  and  C_9
REMARK    8  A    between atoms: C_9  and  C_10
REMARK    9  A    between atoms: C_10  and  O_11
REMARK   10  A    between atoms: C_10  and  C_12
REMARK   11  A    between atoms: C_12  and  O_13
REMARK   12  A    between atoms: O_13  and  C_14
REMARK   13  A    between atoms: C_18  and  C_19
REMARK                            x       y       z     vdW  Elec       q    Type
REMARK                         _______ _______ _______ _____ _____    ______ ____
ROOT
ATOM      1  C   UNL     1       6.242   6.362  17.794  0.00  0.00    +0.000 C 
ENDROOT
BRANCH   1   2
ATOM      2  O   UNL     1       6.691   7.111  16.654  0.00  0.00    +0.000 OA
ATOM      3  H   UNL     1       6.177   7.933  16.612  0.00  0.00    +0.000 HD
ENDBRANCH   1   2
BRANCH   1   4
ATOM      4  C   UNL     1       6.893   4.965  17.757  0.00  0.00    +0.000 C 
BRANCH   4   5
ATOM      5  N   UNL     1       7.296   4.610  16.387  0.00  0.00    +0.000 NA
ATOM      6  H   UNL     1       7.499   5.474  15.877  0.00  0.00    +0.000 HD
BRANCH   5   7
ATOM      7  C   UNL     1       6.256   3.827  15.720  0.00  0.00    +0.000 C 
BRANCH   7   8
ATOM      8  C   UNL     1       5.787   4.502  14.436  0.00  0.00    +0.000 C 
BRANCH   8   9
ATOM      9  C   UNL     1       6.968   4.708  13.524  0.00  0.00    +0.000 C 
ATOM     10  O   UNL     1       7.820   5.575  13.664  0.00  0.00    +0.000 OA
BRANCH   9  11
ATOM     11  O   UNL     1       6.907   3.839  12.476  0.00  0.00    +0.000 OA
BRANCH  11  13
ATOM     12  C   UNL     1       5.694   2.040  11.494  0.00  0.00    +0.000 C 
ATOM     13  C   UNL     1       5.579   3.411  12.136  0.00  0.00    +0.000 C 
ENDBRANCH  11  13
ENDBRANCH   9  11
ENDBRANCH   8   9
ENDBRANCH   7   8
ENDBRANCH   5   7
ENDBRANCH   4   5
ENDBRANCH   1   4
BRANCH   1  14
ATOM     14  C   UNL     1       4.709   6.220  17.796  0.00  0.00    +0.000 C 
BRANCH  14  15
ATOM     15  O   UNL     1       4.219   6.158  19.142  0.00  0.00    +0.000 OA
BRANCH  15  16
ATOM     16  C   UNL     1       3.167   5.303  19.359  0.00  0.00    +0.000 A 
ATOM     17  C   UNL     1       2.087   5.548  20.204  0.00  0.00    +0.000 A 
ATOM     18  C   UNL     1       1.061   4.610  20.333  0.00  0.00    +0.000 A 
ATOM     19  C   UNL     1       1.115   3.412  19.626  0.00  0.00    +0.000 A 
ATOM     20  C   UNL     1       2.197   3.142  18.782  0.00  0.00    +0.000 A 
ATOM     21  C   UNL     1       2.264   1.847  18.023  0.00  0.00    +0.000 C 
ATOM     22  C   UNL     1       3.222   4.094  18.654  0.00  0.00    +0.000 A 
ENDBRANCH  15  16
ENDBRANCH  14  15
ENDBRANCH   1  14
TORSDOF 11
ENDMDL
MODEL 7
REMARK VINA RESULT:      -6.1      1.514      1.883
REMARK  Name = 
REMARK  13 active torsions:
REMARK  status: ('A' for Active; 'I' for Inactive)
REMARK    1  A    between atoms: C_1  and  C_2
REMARK    2  A    between atoms: C_2  and  O_3
REMARK    3  A    between atoms: O_3  and  C_4
REMARK    4  A    between atoms: C_4  and  C_6
REMARK    5  A    between atoms: C_6  and  C_7
REMARK    6  A    between atoms: C_7  and  N_8
REMARK    7  A    between atoms: N_8  and  C_9
REMARK    8  A    between atoms: C_9  and  C_10
REMARK    9  A    between atoms: C_10  and  O_11
REMARK   10  A    between atoms: C_10  and  C_12
REMARK   11  A    between atoms: C_12  and  O_13
REMARK   12  A    between atoms: O_13  and  C_14
REMARK   13  A    between atoms: C_18  and  C_19
REMARK                            x       y       z     vdW  Elec       q    Type
REMARK                         _______ _______ _______ _____ _____    ______ ____
ROOT
ATOM      1  C   UNL     1       6.372   4.062  16.975  0.00  0.00    +0.000 C 
ENDROOT
BRANCH   1   2
ATOM      2  O   UNL     1       7.308   4.330  18.030  0.00  0.00    +0.000 OA
ATOM      3  H   UNL     1       6.824   4.736  18.767  0.00  0.00    +0.000 HD
ENDBRANCH   1   2
BRANCH   1   4
ATOM      4  C   UNL     1       6.943   4.615  15.654  0.00  0.00    +0.000 C 
BRANCH   4   5
ATOM      5  N   UNL     1       5.929   5.398  14.931  0.00  0.00    +0.000 NA
ATOM      6  H   UNL     1       5.256   5.760  15.612  0.00  0.00    +0.000 HD
BRANCH   5   7
ATOM      7  C   UNL     1       5.271   4.587  13.908  0.00  0.00    +0.000 C 
BRANCH   7   8
ATOM      8  C   UNL     1       6.267   3.692  13.179  0.00  0.00    +0.000 C 
BRANCH   8   9
ATOM      9  C   UNL     1       5.568   2.995  12.042  0.00  0.00    +0.000 C 
ATOM     10  O   UNL     1       5.900   1.916  11.569  0.00  0.00    +0.000 OA
BRANCH   9  11
ATOM     11  O   UNL     1       4.560   3.777  11.563  0.00  0.00    +0.000 OA
BRANCH  11  13
ATOM     12  C   UNL     1       3.000   4.013   9.778  0.00  0.00    +0.000 C 
ATOM     13  C   UNL     1       3.554   3.065  10.827  0.00  0.00    +0.000 C 
ENDBRANCH  11  13
ENDBRANCH   9  11
ENDBRANCH   8   9
ENDBRANCH   7   8
ENDBRANCH   5   7
ENDBRANCH   4   5
ENDBRANCH   1   4
BRANCH   1  14
ATOM     14  C   UNL     1       5.008   4.715  17.264  0.00  0.00    +0.000 C 
BRANCH  14  15
ATOM     15  O   UNL     1       3.945   3.829  16.892  0.00  0.00    +0.000 OA
BRANCH  15  16
ATOM     16  C   UNL     1       2.947   3.666  17.820  0.00  0.00    +0.000 A 
ATOM     17  C   UNL     1       2.104   2.560  17.916  0.00  0.00    +0.000 A 
ATOM     18  C   UNL     1       1.132   2.494  18.916  0.00  0.00    +0.000 A 
ATOM     19  C   UNL     1       0.989   3.541  19.823  0.00  0.00    +0.000 A 
ATOM     20  C   UNL     1       1.817   4.664  19.737  0.00  0.00    +0.000 A 
ATOM     21  C   UNL     1       1.661   5.800  20.708  0.00  0.00    +0.000 C 
ATOM     22  C   UNL     1       2.795   4.719  18.730  0.00  0.00    +0.000 A 
ENDBRANCH  15  16
ENDBRANCH  14  15
ENDBRANCH   1  14
TORSDOF 11
ENDMDL
MODEL 8
REMARK VINA RESULT:      -6.1      2.762      4.587
REMARK  Name = 
REMARK  13 active torsions:
REMARK  status: ('A' for Active; 'I' for Inactive)
REMARK    1  A    between atoms: C_1  and  C_2
REMARK    2  A    between atoms: C_2  and  O_3
REMARK    3  A    between atoms: O_3  and  C_4
REMARK    4  A    between atoms: C_4  and  C_6
REMARK    5  A    between atoms: C_6  and  C_7
REMARK    6  A    between atoms: C_7  and  N_8
REMARK    7  A    between atoms: N_8  and  C_9
REMARK    8  A    between atoms: C_9  and  C_10
REMARK    9  A    between atoms: C_10  and  O_11
REMARK   10  A    between atoms: C_10  and  C_12
REMARK   11  A    between atoms: C_12  and  O_13
REMARK   12  A    between atoms: O_13  and  C_14
REMARK   13  A    between atoms: C_18  and  C_19
REMARK                            x       y       z     vdW  Elec       q    Type
REMARK                         _______ _______ _______ _____ _____    ______ ____
ROOT
ATOM      1  C   UNL     1       3.597   2.004  18.691  0.00  0.00    +0.000 C 
ENDROOT
BRANCH   1   2
ATOM      2  O   UNL     1       3.880   0.611  18.487  0.00  0.00    +0.000 OA
ATOM      3  H   UNL     1       4.812   0.456  18.712  0.00  0.00    +0.000 HD
ENDBRANCH   1   2
BRANCH   1   4
ATOM      4  C   UNL     1       4.562   2.554  19.760  0.00  0.00    +0.000 C 
BRANCH   4   5
ATOM      5  N   UNL     1       5.456   3.571  19.187  0.00  0.00    +0.000 NA
ATOM      6  H   UNL     1       5.436   4.396  19.793  0.00  0.00    +0.000 HD
BRANCH   5   7
ATOM      7  C   UNL     1       5.063   3.905  17.818  0.00  0.00    +0.000 C 
BRANCH   7   8
ATOM      8  C   UNL     1       6.272   4.266  16.962  0.00  0.00    +0.000 C 
BRANCH   8   9
ATOM      9  C   UNL     1       5.880   5.335  15.976  0.00  0.00    +0.000 C 
ATOM     10  O   UNL     1       5.262   5.141  14.938  0.00  0.00    +0.000 OA
BRANCH   9  11
ATOM     11  O   UNL     1       6.381   6.540  16.369  0.00  0.00    +0.000 OA
BRANCH  11  13
ATOM     12  C   UNL     1       7.763   7.848  17.802  0.00  0.00    +0.000 C 
ATOM     13  C   UNL     1       7.506   6.453  17.257  0.00  0.00    +0.000 C 
ENDBRANCH  11  13
ENDBRANCH   9  11
ENDBRANCH   8   9
ENDBRANCH   7   8
ENDBRANCH   5   7
ENDBRANCH   4   5
ENDBRANCH   1   4
BRANCH   1  14
ATOM     14  C   UNL     1       2.142   2.214  19.149  0.00  0.00    +0.000 C 
BRANCH  14  15
ATOM     15  O   UNL     1       1.549   3.306  18.434  0.00  0.00    +0.000 OA
BRANCH  15  16
ATOM     16  C   UNL     1       1.704   4.548  18.997  0.00  0.00    +0.000 A 
ATOM     17  C   UNL     1       1.375   4.887  20.308  0.00  0.00    +0.000 A 
ATOM     18  C   UNL     1       1.594   6.183  20.780  0.00  0.00    +0.000 A 
ATOM     19  C   UNL     1       2.135   7.152  19.940  0.00  0.00    +0.000 A 
ATOM     20  C   UNL     1       2.462   6.834  18.618  0.00  0.00    +0.000 A 
ATOM     21  C   UNL     1       3.038   7.878  17.706  0.00  0.00    +0.000 C 
ATOM     22  C   UNL     1       2.242   5.527  18.153  0.00  0.00    +0.000 A 
ENDBRANCH  15  16
ENDBRANCH  14  15
ENDBRANCH   1  14
TORSDOF 11
ENDMDL
MODEL 9
REMARK VINA RESULT:      -6.0      2.754      3.809
REMARK  Name = 
REMARK  13 active torsions:
REMARK  status: ('A' for Active; 'I' for Inactive)
REMARK    1  A    between atoms: C_1  and  C_2
REMARK    2  A    between atoms: C_2  and  O_3
REMARK    3  A    between atoms: O_3  and  C_4
REMARK    4  A    between atoms: C_4  and  C_6
REMARK    5  A    between atoms: C_6  and  C_7
REMARK    6  A    between atoms: C_7  and  N_8
REMARK    7  A    between atoms: N_8  and  C_9
REMARK    8  A    between atoms: C_9  and  C_10
REMARK    9  A    between atoms: C_10  and  O_11
REMARK   10  A    between atoms: C_10  and  C_12
REMARK   11  A    between atoms: C_12  and  O_13
REMARK   12  A    between atoms: O_13  and  C_14
REMARK   13  A    between atoms: C_18  and  C_19
REMARK                            x       y       z     vdW  Elec       q    Type
REMARK                         _______ _______ _______ _____ _____    ______ ____
ROOT
ATOM      1  C   UNL     1       3.505   3.219  19.474  0.00  0.00    +0.000 C 
ENDROOT
BRANCH   1   2
ATOM      2  O   UNL     1       4.781   2.796  19.978  0.00  0.00    +0.000 OA
ATOM      3  H   UNL     1       4.748   1.835  20.112  0.00  0.00    +0.000 HD
ENDBRANCH   1   2
BRANCH   1   4
ATOM      4  C   UNL     1       3.540   3.172  17.934  0.00  0.00    +0.000 C 
BRANCH   4   5
ATOM      5  N   UNL     1       4.911   3.353  17.433  0.00  0.00    +0.000 NA
ATOM      6  H   UNL     1       5.439   3.891  18.126  0.00  0.00    +0.000 HD
BRANCH   5   7
ATOM      7  C   UNL     1       4.911   4.016  16.129  0.00  0.00    +0.000 C 
BRANCH   7   8
ATOM      8  C   UNL     1       5.700   5.320  16.167  0.00  0.00    +0.000 C 
BRANCH   8   9
ATOM      9  C   UNL     1       7.165   5.018  15.996  0.00  0.00    +0.000 C 
ATOM     10  O   UNL     1       7.861   4.433  16.816  0.00  0.00    +0.000 OA
BRANCH   9  11
ATOM     11  O   UNL     1       7.623   5.560  14.832  0.00  0.00    +0.000 OA
BRANCH  11  13
ATOM     12  C   UNL     1       7.960   5.486  12.476  0.00  0.00    +0.000 C 
ATOM     13  C   UNL     1       7.280   4.813  13.655  0.00  0.00    +0.000 C 
ENDBRANCH  11  13
ENDBRANCH   9  11
ENDBRANCH   8   9
ENDBRANCH   7   8
ENDBRANCH   5   7
ENDBRANCH   4   5
ENDBRANCH   1   4
BRANCH   1  14
ATOM     14  C   UNL     1       3.171   4.648  19.941  0.00  0.00    +0.000 C 
BRANCH  14  15
ATOM     15  O   UNL     1       3.597   5.603  18.961  0.00  0.00    +0.000 OA
BRANCH  15  16
ATOM     16  C   UNL     1       2.893   6.781  18.924  0.00  0.00    +0.000 A 
ATOM     17  C   UNL     1       2.818   7.644  17.833  0.00  0.00    +0.000 A 
ATOM     18  C   UNL     1       2.053   8.810  17.904  0.00  0.00    +0.000 A 
ATOM     19  C   UNL     1       1.364   9.126  19.072  0.00  0.00    +0.000 A 
ATOM     20  C   UNL     1       1.435   8.278  20.181  0.00  0.00    +0.000 A 
ATOM     21  C   UNL     1       0.701   8.619  21.446  0.00  0.00    +0.000 C 
ATOM     22  C   UNL     1       2.204   7.105  20.099  0.00  0.00    +0.000 A 
ENDBRANCH  15  16
ENDBRANCH  14  15
ENDBRANCH   1  14
TORSDOF 11
ENDMDL
