MODEL 1
REMARK VINA RESULT:      -8.5      0.000      0.000
REMARK  Name = 
REMARK  4 active torsions:
REMARK  status: ('A' for Active; 'I' for Inactive)
REMARK    1  A    between atoms: C_2  and  C_4
REMARK    2  A    between atoms: N_7  and  C_8
REMARK    3  A    between atoms: C_19  and  N_20
REMARK    4  A    between atoms: C_21  and  C_23
REMARK                            x       y       z     vdW  Elec       q    Type
REMARK                         _______ _______ _______ _____ _____    ______ ____
ROOT
ATOM      1  C   UNL     1       2.937   3.484  19.199  0.00  0.00    +0.000 A 
ATOM      2  N   UNL     1       2.589   4.783  18.834  0.00  0.00    +0.000 NA
ATOM      3  C   UNL     1       3.655   5.514  18.615  0.00  0.00    +0.000 A 
ATOM      4  N   UNL     1       3.631   6.824  18.284  0.00  0.00    +0.000 N 
ATOM      5  S   UNL     1       5.129   4.659  18.748  0.00  0.00    +0.000 S 
ATOM      6  C   UNL     1       4.301   3.262  19.297  0.00  0.00    +0.000 A 
ATOM      7  H   UNL     1       4.469   7.261  17.920  0.00  0.00    +0.000 HD
ENDROOT
BRANCH   4   8
ATOM      8  C   UNL     1       2.581   7.703  18.608  0.00  0.00    +0.000 A 
ATOM      9  C   UNL     1       2.063   8.612  17.676  0.00  0.00    +0.000 A 
ATOM     10  C   UNL     1       1.099   9.552  18.038  0.00  0.00    +0.000 A 
ATOM     11  C   UNL     1       0.646   9.622  19.357  0.00  0.00    +0.000 A 
ATOM     12  C   UNL     1      -0.289  10.593  19.744  0.00  0.00    +0.000 A 
ATOM     13  C   UNL     1      -0.716  10.676  21.069  0.00  0.00    +0.000 A 
ATOM     14  C   UNL     1      -0.216   9.786  22.017  0.00  0.00    +0.000 A 
ATOM     15  C   UNL     1       0.709   8.809  21.642  0.00  0.00    +0.000 A 
ATOM     16  C   UNL     1       1.152   8.714  20.314  0.00  0.00    +0.000 A 
ATOM     17  C   UNL     1       2.104   7.754  19.922  0.00  0.00    +0.000 A 
ENDBRANCH   4   8
BRANCH   1  19
ATOM     18  N   UNL     1       1.803   1.517  18.565  0.00  0.00    +0.000 N 
ATOM     19  C   UNL     1       1.869   2.532  19.483  0.00  0.00    +0.000 C 
ATOM     20  O   UNL     1       1.110   2.621  20.444  0.00  0.00    +0.000 OA
ATOM     21  H   UNL     1       1.125   0.777  18.653  0.00  0.00    +0.000 HD
ATOM     22  H   UNL     1       2.484   1.502  17.810  0.00  0.00    +0.000 HD
ENDBRANCH   1  19
BRANCH   6  23
ATOM     23  N   UNL     1       4.993   2.117  19.689  0.00  0.00    +0.000 N 
ATOM     24  C   UNL     1       4.841   1.509  20.924  0.00  0.00    +0.000 C 
ATOM     25  O   UNL     1       4.040   1.859  21.788  0.00  0.00    +0.000 OA
ATOM     26  H   UNL     1       5.507   1.626  18.964  0.00  0.00    +0.000 HD
BRANCH  24  27
ATOM     27  C   UNL     1       5.670   0.348  21.190  0.00  0.00    +0.000 A 
ATOM     28  C   UNL     1       6.390  -0.112  22.279  0.00  0.00    +0.000 A 
ATOM     29  C   UNL     1       6.997  -1.345  21.911  0.00  0.00    +0.000 A 
ATOM     30  C   UNL     1       6.633  -1.616  20.613  0.00  0.00    +0.000 A 
ATOM     31  N   UNL     1       5.835  -0.593  20.189  0.00  0.00    +0.000 N 
ATOM     32  H   UNL     1       5.405  -0.505  19.276  0.00  0.00    +0.000 HD
ENDBRANCH  24  27
ENDBRANCH   6  23
TORSDOF 4
ENDMDL
MODEL 2
REMARK VINA RESULT:      -8.3      5.395     10.754
REMARK  Name = 
REMARK  4 active torsions:
REMARK  status: ('A' for Active; 'I' for Inactive)
REMARK    1  A    between atoms: C_2  and  C_4
REMARK    2  A    between atoms: N_7  and  C_8
REMARK    3  A    between atoms: C_19  and  N_20
REMARK    4  A    between atoms: C_21  and  C_23
REMARK                            x       y       z     vdW  Elec       q    Type
REMARK                         _______ _______ _______ _____ _____    ______ ____
ROOT
ATOM      1  C   UNL     1      -0.801  10.747  19.228  0.00  0.00    +0.000 A 
ATOM      2  N   UNL     1      -0.202   9.527  19.538  0.00  0.00    +0.000 NA
ATOM      3  C   UNL     1       0.727   9.674  20.451  0.00  0.00    +0.000 A 
ATOM      4  N   UNL     1       1.504   8.674  20.922  0.00  0.00    +0.000 N 
ATOM      5  S   UNL     1       0.870  11.268  21.052  0.00  0.00    +0.000 S 
ATOM      6  C   UNL     1      -0.266  11.835  19.900  0.00  0.00    +0.000 A 
ATOM      7  H   UNL     1       2.039   8.817  21.770  0.00  0.00    +0.000 HD
ENDROOT
BRANCH   4   8
ATOM      8  C   UNL     1       1.806   7.502  20.205  0.00  0.00    +0.000 A 
ATOM      9  C   UNL     1       2.413   7.543  18.942  0.00  0.00    +0.000 A 
ATOM     10  C   UNL     1       2.607   6.385  18.193  0.00  0.00    +0.000 A 
ATOM     11  C   UNL     1       2.173   5.150  18.680  0.00  0.00    +0.000 A 
ATOM     12  C   UNL     1       2.322   3.984  17.917  0.00  0.00    +0.000 A 
ATOM     13  C   UNL     1       1.859   2.759  18.397  0.00  0.00    +0.000 A 
ATOM     14  C   UNL     1       1.251   2.689  19.648  0.00  0.00    +0.000 A 
ATOM     15  C   UNL     1       1.105   3.842  20.423  0.00  0.00    +0.000 A 
ATOM     16  C   UNL     1       1.561   5.083  19.952  0.00  0.00    +0.000 A 
ATOM     17  C   UNL     1       1.399   6.261  20.706  0.00  0.00    +0.000 A 
ENDBRANCH   4   8
BRANCH   1  19
ATOM     18  N   UNL     1      -1.539  10.055  17.099  0.00  0.00    +0.000 N 
ATOM     19  C   UNL     1      -1.859  10.767  18.225  0.00  0.00    +0.000 C 
ATOM     20  O   UNL     1      -2.930  11.351  18.371  0.00  0.00    +0.000 OA
ATOM     21  H   UNL     1      -2.190   9.967  16.335  0.00  0.00    +0.000 HD
ATOM     22  H   UNL     1      -0.641   9.580  17.065  0.00  0.00    +0.000 HD
ENDBRANCH   1  19
BRANCH   6  23
ATOM     23  N   UNL     1      -0.576  13.189  19.794  0.00  0.00    +0.000 N 
ATOM     24  C   UNL     1       0.104  14.074  18.973  0.00  0.00    +0.000 C 
ATOM     25  O   UNL     1       1.006  13.765  18.199  0.00  0.00    +0.000 OA
ATOM     26  H   UNL     1      -1.447  13.492  20.222  0.00  0.00    +0.000 HD
BRANCH  24  27
ATOM     27  C   UNL     1      -0.319  15.462  19.013  0.00  0.00    +0.000 A 
ATOM     28  C   UNL     1       0.149  16.643  18.464  0.00  0.00    +0.000 A 
ATOM     29  C   UNL     1      -0.725  17.689  18.871  0.00  0.00    +0.000 A 
ATOM     30  C   UNL     1      -1.708  17.128  19.652  0.00  0.00    +0.000 A 
ATOM     31  N   UNL     1      -1.455  15.790  19.730  0.00  0.00    +0.000 N 
ATOM     32  H   UNL     1      -2.004  15.103  20.234  0.00  0.00    +0.000 HD
ENDBRANCH  24  27
ENDBRANCH   6  23
TORSDOF 4
ENDMDL
MODEL 3
REMARK VINA RESULT:      -8.2      4.954     10.022
REMARK  Name = 
REMARK  4 active torsions:
REMARK  status: ('A' for Active; 'I' for Inactive)
REMARK    1  A    between atoms: C_2  and  C_4
REMARK    2  A    between atoms: N_7  and  C_8
REMARK    3  A    between atoms: C_19  and  N_20
REMARK    4  A    between atoms: C_21  and  C_23
REMARK                            x       y       z     vdW  Elec       q    Type
REMARK                         _______ _______ _______ _____ _____    ______ ____
ROOT
ATOM      1  C   UNL     1       0.180   9.970  19.981  0.00  0.00    +0.000 A 
ATOM      2  N   UNL     1       0.636   8.669  19.776  0.00  0.00    +0.000 NA
ATOM      3  C   UNL     1       1.233   8.203  20.846  0.00  0.00    +0.000 A 
ATOM      4  N   UNL     1       1.811   6.984  20.932  0.00  0.00    +0.000 N 
ATOM      5  S   UNL     1       1.200   9.267  22.183  0.00  0.00    +0.000 S 
ATOM      6  C   UNL     1       0.490  10.497  21.224  0.00  0.00    +0.000 A 
ATOM      7  H   UNL     1       2.054   6.612  21.841  0.00  0.00    +0.000 HD
ENDROOT
BRANCH   4   8
ATOM      8  C   UNL     1       2.308   6.265  19.829  0.00  0.00    +0.000 A 
ATOM      9  C   UNL     1       2.025   4.904  19.645  0.00  0.00    +0.000 A 
ATOM     10  C   UNL     1       2.610   4.176  18.612  0.00  0.00    +0.000 A 
ATOM     11  C   UNL     1       3.519   4.788  17.746  0.00  0.00    +0.000 A 
ATOM     12  C   UNL     1       4.149   4.055  16.731  0.00  0.00    +0.000 A 
ATOM     13  C   UNL     1       5.077   4.665  15.889  0.00  0.00    +0.000 A 
ATOM     14  C   UNL     1       5.379   6.015  16.049  0.00  0.00    +0.000 A 
ATOM     15  C   UNL     1       4.751   6.759  17.051  0.00  0.00    +0.000 A 
ATOM     16  C   UNL     1       3.818   6.160  17.910  0.00  0.00    +0.000 A 
ATOM     17  C   UNL     1       3.195   6.885  18.943  0.00  0.00    +0.000 A 
ENDBRANCH   4   8
BRANCH   1  19
ATOM     18  N   UNL     1      -0.296  10.048  17.673  0.00  0.00    +0.000 N 
ATOM     19  C   UNL     1      -0.510  10.645  18.887  0.00  0.00    +0.000 C 
ATOM     20  O   UNL     1      -1.217  11.639  19.034  0.00  0.00    +0.000 OA
ATOM     21  H   UNL     1      -0.732  10.398  16.835  0.00  0.00    +0.000 HD
ATOM     22  H   UNL     1       0.284   9.213  17.640  0.00  0.00    +0.000 HD
ENDBRANCH   1  19
BRANCH   6  23
ATOM     23  N   UNL     1       0.246  11.768  21.741  0.00  0.00    +0.000 N 
ATOM     24  C   UNL     1      -0.830  12.074  22.559  0.00  0.00    +0.000 C 
ATOM     25  O   UNL     1      -1.649  11.261  22.979  0.00  0.00    +0.000 OA
ATOM     26  H   UNL     1       0.988  12.453  21.636  0.00  0.00    +0.000 HD
BRANCH  24  27
ATOM     27  C   UNL     1      -0.963  13.458  22.976  0.00  0.00    +0.000 A 
ATOM     28  C   UNL     1      -1.785  14.139  23.857  0.00  0.00    +0.000 A 
ATOM     29  C   UNL     1      -1.408  15.511  23.832  0.00  0.00    +0.000 A 
ATOM     30  C   UNL     1      -0.365  15.638  22.946  0.00  0.00    +0.000 A 
ATOM     31  N   UNL     1      -0.104  14.399  22.438  0.00  0.00    +0.000 N 
ATOM     32  H   UNL     1       0.613  14.165  21.761  0.00  0.00    +0.000 HD
ENDBRANCH  24  27
ENDBRANCH   6  23
TORSDOF 4
ENDMDL
MODEL 4
REMARK VINA RESULT:      -8.1      4.578      9.972
REMARK  Name = 
REMARK  4 active torsions:
REMARK  status: ('A' for Active; 'I' for Inactive)
REMARK    1  A    between atoms: C_2  and  C_4
REMARK    2  A    between atoms: N_7  and  C_8
REMARK    3  A    between atoms: C_19  and  N_20
REMARK    4  A    between atoms: C_21  and  C_23
REMARK                            x       y       z     vdW  Elec       q    Type
REMARK                         _______ _______ _______ _____ _____    ______ ____
ROOT
ATOM      1  C   UNL     1       0.606   9.432  20.668  0.00  0.00    +0.000 A 
ATOM      2  N   UNL     1       1.544   8.702  19.939  0.00  0.00    +0.000 NA
ATOM      3  C   UNL     1       1.542   9.058  18.677  0.00  0.00    +0.000 A 
ATOM      4  N   UNL     1       2.317   8.497  17.721  0.00  0.00    +0.000 N 
ATOM      5  S   UNL     1       0.482  10.349  18.316  0.00  0.00    +0.000 S 
ATOM      6  C   UNL     1      -0.140  10.322  19.913  0.00  0.00    +0.000 A 
ATOM      7  H   UNL     1       2.422   8.963  16.829  0.00  0.00    +0.000 HD
ENDROOT
BRANCH   4   8
ATOM      8  C   UNL     1       2.828   7.188  17.786  0.00  0.00    +0.000 A 
ATOM      9  C   UNL     1       4.167   6.901  17.482  0.00  0.00    +0.000 A 
ATOM     10  C   UNL     1       4.636   5.589  17.443  0.00  0.00    +0.000 A 
ATOM     11  C   UNL     1       3.765   4.523  17.682  0.00  0.00    +0.000 A 
ATOM     12  C   UNL     1       4.214   3.197  17.600  0.00  0.00    +0.000 A 
ATOM     13  C   UNL     1       3.334   2.138  17.812  0.00  0.00    +0.000 A 
ATOM     14  C   UNL     1       1.998   2.393  18.114  0.00  0.00    +0.000 A 
ATOM     15  C   UNL     1       1.540   3.710  18.207  0.00  0.00    +0.000 A 
ATOM     16  C   UNL     1       2.412   4.788  17.993  0.00  0.00    +0.000 A 
ATOM     17  C   UNL     1       1.964   6.121  18.055  0.00  0.00    +0.000 A 
ENDBRANCH   4   8
BRANCH   1  19
ATOM     18  N   UNL     1       1.679   8.973  22.716  0.00  0.00    +0.000 N 
ATOM     19  C   UNL     1       0.473   9.162  22.095  0.00  0.00    +0.000 C 
ATOM     20  O   UNL     1      -0.603   9.116  22.685  0.00  0.00    +0.000 OA
ATOM     21  H   UNL     1       1.734   8.800  23.707  0.00  0.00    +0.000 HD
ATOM     22  H   UNL     1       2.527   9.051  22.161  0.00  0.00    +0.000 HD
ENDBRANCH   1  19
BRANCH   6  23
ATOM     23  N   UNL     1      -1.187  11.158  20.296  0.00  0.00    +0.000 N 
ATOM     24  C   UNL     1      -1.013  12.338  21.001  0.00  0.00    +0.000 C 
ATOM     25  O   UNL     1       0.074  12.820  21.311  0.00  0.00    +0.000 OA
ATOM     26  H   UNL     1      -2.098  10.962  19.892  0.00  0.00    +0.000 HD
BRANCH  24  27
ATOM     27  C   UNL     1      -2.214  13.070  21.360  0.00  0.00    +0.000 A 
ATOM     28  C   UNL     1      -2.764  13.526  22.546  0.00  0.00    +0.000 A 
ATOM     29  C   UNL     1      -3.977  14.200  22.232  0.00  0.00    +0.000 A 
ATOM     30  C   UNL     1      -4.141  14.147  20.868  0.00  0.00    +0.000 A 
ATOM     31  N   UNL     1      -3.076  13.468  20.353  0.00  0.00    +0.000 N 
ATOM     32  H   UNL     1      -2.907  13.266  19.375  0.00  0.00    +0.000 HD
ENDBRANCH  24  27
ENDBRANCH   6  23
TORSDOF 4
ENDMDL
MODEL 5
REMARK VINA RESULT:      -7.9      4.529      9.951
REMARK  Name = 
REMARK  4 active torsions:
REMARK  status: ('A' for Active; 'I' for Inactive)
REMARK    1  A    between atoms: C_2  and  C_4
REMARK    2  A    between atoms: N_7  and  C_8
REMARK    3  A    between atoms: C_19  and  N_20
REMARK    4  A    between atoms: C_21  and  C_23
REMARK                            x       y       z     vdW  Elec       q    Type
REMARK                         _______ _______ _______ _____ _____    ______ ____
ROOT
ATOM      1  C   UNL     1       0.808   9.430  20.560  0.00  0.00    +0.000 A 
ATOM      2  N   UNL     1       1.716   8.632  19.865  0.00  0.00    +0.000 NA
ATOM      3  C   UNL     1       1.801   8.996  18.609  0.00  0.00    +0.000 A 
ATOM      4  N   UNL     1       2.570   8.382  17.683  0.00  0.00    +0.000 N 
ATOM      5  S   UNL     1       0.866  10.372  18.215  0.00  0.00    +0.000 S 
ATOM      6  C   UNL     1       0.171  10.383  19.782  0.00  0.00    +0.000 A 
ATOM      7  H   UNL     1       2.753   8.844  16.801  0.00  0.00    +0.000 HD
ENDROOT
BRANCH   4   8
ATOM      8  C   UNL     1       2.971   7.034  17.755  0.00  0.00    +0.000 A 
ATOM      9  C   UNL     1       4.261   6.626  17.389  0.00  0.00    +0.000 A 
ATOM     10  C   UNL     1       4.613   5.278  17.360  0.00  0.00    +0.000 A 
ATOM     11  C   UNL     1       3.669   4.297  17.674  0.00  0.00    +0.000 A 
ATOM     12  C   UNL     1       3.998   2.936  17.604  0.00  0.00    +0.000 A 
ATOM     13  C   UNL     1       3.043   1.961  17.891  0.00  0.00    +0.000 A 
ATOM     14  C   UNL     1       1.753   2.339  18.255  0.00  0.00    +0.000 A 
ATOM     15  C   UNL     1       1.415   3.691  18.338  0.00  0.00    +0.000 A 
ATOM     16  C   UNL     1       2.363   4.685  18.049  0.00  0.00    +0.000 A 
ATOM     17  C   UNL     1       2.035   6.053  18.099  0.00  0.00    +0.000 A 
ENDBRANCH   4   8
BRANCH   1  19
ATOM     18  N   UNL     1       1.754   8.975  22.671  0.00  0.00    +0.000 N 
ATOM     19  C   UNL     1       0.588   9.160  21.976  0.00  0.00    +0.000 C 
ATOM     20  O   UNL     1      -0.522   9.111  22.499  0.00  0.00    +0.000 OA
ATOM     21  H   UNL     1       1.749   8.803  23.663  0.00  0.00    +0.000 HD
ATOM     22  H   UNL     1       2.635   9.056  22.168  0.00  0.00    +0.000 HD
ENDBRANCH   1  19
BRANCH   6  23
ATOM     23  N   UNL     1      -0.821  11.298  20.128  0.00  0.00    +0.000 N 
ATOM     24  C   UNL     1      -2.006  11.453  19.426  0.00  0.00    +0.000 C 
ATOM     25  O   UNL     1      -2.352  10.765  18.468  0.00  0.00    +0.000 OA
ATOM     26  H   UNL     1      -0.728  11.752  21.032  0.00  0.00    +0.000 HD
BRANCH  24  27
ATOM     27  C   UNL     1      -2.915  12.482  19.893  0.00  0.00    +0.000 A 
ATOM     28  C   UNL     1      -4.290  12.593  20.013  0.00  0.00    +0.000 A 
ATOM     29  C   UNL     1      -4.578  13.874  20.562  0.00  0.00    +0.000 A 
ATOM     30  C   UNL     1      -3.379  14.515  20.771  0.00  0.00    +0.000 A 
ATOM     31  N   UNL     1      -2.387  13.670  20.367  0.00  0.00    +0.000 N 
ATOM     32  H   UNL     1      -1.391  13.854  20.398  0.00  0.00    +0.000 HD
ENDBRANCH  24  27
ENDBRANCH   6  23
TORSDOF 4
ENDMDL
MODEL 6
REMARK VINA RESULT:      -7.9      5.289     10.702
REMARK  Name = 
REMARK  4 active torsions:
REMARK  status: ('A' for Active; 'I' for Inactive)
REMARK    1  A    between atoms: C_2  and  C_4
REMARK    2  A    between atoms: N_7  and  C_8
REMARK    3  A    between atoms: C_19  and  N_20
REMARK    4  A    between atoms: C_21  and  C_23
REMARK                            x       y       z     vdW  Elec       q    Type
REMARK                         _______ _______ _______ _____ _____    ______ ____
ROOT
ATOM      1  C   UNL     1      -0.675  10.584  19.310  0.00  0.00    +0.000 A 
ATOM      2  N   UNL     1      -0.093   9.347  19.582  0.00  0.00    +0.000 NA
ATOM      3  C   UNL     1       0.843   9.456  20.494  0.00  0.00    +0.000 A 
ATOM      4  N   UNL     1       1.608   8.432  20.933  0.00  0.00    +0.000 N 
ATOM      5  S   UNL     1       1.012  11.030  21.138  0.00  0.00    +0.000 S 
ATOM      6  C   UNL     1      -0.122  11.645  20.009  0.00  0.00    +0.000 A 
ATOM      7  H   UNL     1       2.150   8.543  21.781  0.00  0.00    +0.000 HD
ENDROOT
BRANCH   4   8
ATOM      8  C   UNL     1       1.889   7.276  20.181  0.00  0.00    +0.000 A 
ATOM      9  C   UNL     1       2.499   7.344  18.921  0.00  0.00    +0.000 A 
ATOM     10  C   UNL     1       2.673   6.204  18.138  0.00  0.00    +0.000 A 
ATOM     11  C   UNL     1       2.215   4.964  18.588  0.00  0.00    +0.000 A 
ATOM     12  C   UNL     1       2.343   3.818  17.791  0.00  0.00    +0.000 A 
ATOM     13  C   UNL     1       1.857   2.589  18.234  0.00  0.00    +0.000 A 
ATOM     14  C   UNL     1       1.246   2.492  19.482  0.00  0.00    +0.000 A 
ATOM     15  C   UNL     1       1.120   3.625  20.290  0.00  0.00    +0.000 A 
ATOM     16  C   UNL     1       1.599   4.870  19.857  0.00  0.00    +0.000 A 
ATOM     17  C   UNL     1       1.458   6.028  20.645  0.00  0.00    +0.000 A 
ENDBRANCH   4   8
BRANCH   1  19
ATOM     18  N   UNL     1      -1.422   9.990  17.154  0.00  0.00    +0.000 N 
ATOM     19  C   UNL     1      -1.739  10.647  18.314  0.00  0.00    +0.000 C 
ATOM     20  O   UNL     1      -2.811  11.219  18.492  0.00  0.00    +0.000 OA
ATOM     21  H   UNL     1      -2.075   9.935  16.390  0.00  0.00    +0.000 HD
ATOM     22  H   UNL     1      -0.521   9.520  17.094  0.00  0.00    +0.000 HD
ENDBRANCH   1  19
BRANCH   6  23
ATOM     23  N   UNL     1      -0.413  13.006  19.943  0.00  0.00    +0.000 N 
ATOM     24  C   UNL     1      -1.445  13.609  20.643  0.00  0.00    +0.000 C 
ATOM     25  O   UNL     1      -2.177  13.038  21.448  0.00  0.00    +0.000 OA
ATOM     26  H   UNL     1       0.273  13.596  19.482  0.00  0.00    +0.000 HD
BRANCH  24  27
ATOM     27  C   UNL     1      -1.640  15.030  20.428  0.00  0.00    +0.000 A 
ATOM     28  C   UNL     1      -2.362  16.026  21.064  0.00  0.00    +0.000 A 
ATOM     29  C   UNL     1      -2.131  17.244  20.366  0.00  0.00    +0.000 A 
ATOM     30  C   UNL     1      -1.274  16.971  19.326  0.00  0.00    +0.000 A 
ATOM     31  N   UNL     1      -0.984  15.639  19.374  0.00  0.00    +0.000 N 
ATOM     32  H   UNL     1      -0.375  15.133  18.741  0.00  0.00    +0.000 HD
ENDBRANCH  24  27
ENDBRANCH   6  23
TORSDOF 4
ENDMDL
MODEL 7
REMARK VINA RESULT:      -7.7      5.024     10.323
REMARK  Name = 
REMARK  4 active torsions:
REMARK  status: ('A' for Active; 'I' for Inactive)
REMARK    1  A    between atoms: C_2  and  C_4
REMARK    2  A    between atoms: N_7  and  C_8
REMARK    3  A    between atoms: C_19  and  N_20
REMARK    4  A    between atoms: C_21  and  C_23
REMARK                            x       y       z     vdW  Elec       q    Type
REMARK                         _______ _______ _______ _____ _____    ______ ____
ROOT
ATOM      1  C   UNL     1      -0.186  10.206  20.188  0.00  0.00    +0.000 A 
ATOM      2  N   UNL     1       0.244   8.881  20.159  0.00  0.00    +0.000 NA
ATOM      3  C   UNL     1       0.895   8.572  21.254  0.00  0.00    +0.000 A 
ATOM      4  N   UNL     1       1.464   7.369  21.495  0.00  0.00    +0.000 N 
ATOM      5  S   UNL     1       0.947   9.826  22.414  0.00  0.00    +0.000 S 
ATOM      6  C   UNL     1       0.197  10.910  21.318  0.00  0.00    +0.000 A 
ATOM      7  H   UNL     1       1.754   7.135  22.436  0.00  0.00    +0.000 HD
ENDROOT
BRANCH   4   8
ATOM      8  C   UNL     1       1.892   6.482  20.490  0.00  0.00    +0.000 A 
ATOM      9  C   UNL     1       2.525   6.935  19.324  0.00  0.00    +0.000 A 
ATOM     10  C   UNL     1       2.846   6.061  18.287  0.00  0.00    +0.000 A 
ATOM     11  C   UNL     1       2.515   4.707  18.381  0.00  0.00    +0.000 A 
ATOM     12  C   UNL     1       2.791   3.826  17.325  0.00  0.00    +0.000 A 
ATOM     13  C   UNL     1       2.433   2.481  17.414  0.00  0.00    +0.000 A 
ATOM     14  C   UNL     1       1.801   2.004  18.559  0.00  0.00    +0.000 A 
ATOM     15  C   UNL     1       1.529   2.869  19.621  0.00  0.00    +0.000 A 
ATOM     16  C   UNL     1       1.879   4.226  19.548  0.00  0.00    +0.000 A 
ATOM     17  C   UNL     1       1.589   5.120  20.596  0.00  0.00    +0.000 A 
ENDBRANCH   4   8
BRANCH   1  19
ATOM     18  N   UNL     1      -0.473  10.228  17.848  0.00  0.00    +0.000 N 
ATOM     19  C   UNL     1      -0.929  10.720  19.042  0.00  0.00    +0.000 C 
ATOM     20  O   UNL     1      -1.870  11.504  19.133  0.00  0.00    +0.000 OA
ATOM     21  H   UNL     1      -0.910  10.483  16.977  0.00  0.00    +0.000 HD
ATOM     22  H   UNL     1       0.297   9.564  17.860  0.00  0.00    +0.000 HD
ENDBRANCH   1  19
BRANCH   6  23
ATOM     23  N   UNL     1      -0.005  12.249  21.647  0.00  0.00    +0.000 N 
ATOM     24  C   UNL     1      -0.995  12.689  22.510  0.00  0.00    +0.000 C 
ATOM     25  O   UNL     1      -1.761  11.959  23.134  0.00  0.00    +0.000 OA
ATOM     26  H   UNL     1       0.717  12.902  21.360  0.00  0.00    +0.000 HD
BRANCH  24  27
ATOM     27  C   UNL     1      -1.098  14.122  22.712  0.00  0.00    +0.000 A 
ATOM     28  C   UNL     1      -1.092  15.230  21.882  0.00  0.00    +0.000 A 
ATOM     29  C   UNL     1      -1.244  16.386  22.697  0.00  0.00    +0.000 A 
ATOM     30  C   UNL     1      -1.344  15.964  24.002  0.00  0.00    +0.000 A 
ATOM     31  N   UNL     1      -1.257  14.602  23.999  0.00  0.00    +0.000 N 
ATOM     32  H   UNL     1      -1.301  13.996  24.810  0.00  0.00    +0.000 HD
ENDBRANCH  24  27
ENDBRANCH   6  23
TORSDOF 4
ENDMDL
MODEL 8
REMARK VINA RESULT:      -7.6      4.862     10.057
REMARK  Name = 
REMARK  4 active torsions:
REMARK  status: ('A' for Active; 'I' for Inactive)
REMARK    1  A    between atoms: C_2  and  C_4
REMARK    2  A    between atoms: N_7  and  C_8
REMARK    3  A    between atoms: C_19  and  N_20
REMARK    4  A    between atoms: C_21  and  C_23
REMARK                            x       y       z     vdW  Elec       q    Type
REMARK                         _______ _______ _______ _____ _____    ______ ____
ROOT
ATOM      1  C   UNL     1       0.117   9.958  19.911  0.00  0.00    +0.000 A 
ATOM      2  N   UNL     1       0.602   8.664  19.733  0.00  0.00    +0.000 NA
ATOM      3  C   UNL     1       1.231   8.243  20.804  0.00  0.00    +0.000 A 
ATOM      4  N   UNL     1       1.841   7.042  20.913  0.00  0.00    +0.000 N 
ATOM      5  S   UNL     1       1.195   9.343  22.112  0.00  0.00    +0.000 S 
ATOM      6  C   UNL     1       0.436  10.528  21.133  0.00  0.00    +0.000 A 
ATOM      7  H   UNL     1       2.111   6.702  21.828  0.00  0.00    +0.000 HD
ENDROOT
BRANCH   4   8
ATOM      8  C   UNL     1       2.336   6.305  19.822  0.00  0.00    +0.000 A 
ATOM      9  C   UNL     1       2.083   4.933  19.680  0.00  0.00    +0.000 A 
ATOM     10  C   UNL     1       2.668   4.190  18.656  0.00  0.00    +0.000 A 
ATOM     11  C   UNL     1       3.546   4.800  17.758  0.00  0.00    +0.000 A 
ATOM     12  C   UNL     1       4.176   4.054  16.751  0.00  0.00    +0.000 A 
ATOM     13  C   UNL     1       5.074   4.663  15.876  0.00  0.00    +0.000 A 
ATOM     14  C   UNL     1       5.345   6.024  15.994  0.00  0.00    +0.000 A 
ATOM     15  C   UNL     1       4.717   6.780  16.987  0.00  0.00    +0.000 A 
ATOM     16  C   UNL     1       3.814   6.182  17.879  0.00  0.00    +0.000 A 
ATOM     17  C   UNL     1       3.192   6.921  18.903  0.00  0.00    +0.000 A 
ENDBRANCH   4   8
BRANCH   1  19
ATOM     18  N   UNL     1       0.155  11.475  18.107  0.00  0.00    +0.000 N 
ATOM     19  C   UNL     1      -0.610  10.584  18.812  0.00  0.00    +0.000 C 
ATOM     20  O   UNL     1      -1.782  10.337  18.538  0.00  0.00    +0.000 OA
ATOM     21  H   UNL     1      -0.216  11.963  17.307  0.00  0.00    +0.000 HD
ATOM     22  H   UNL     1       1.125  11.606  18.383  0.00  0.00    +0.000 HD
ENDBRANCH   1  19
BRANCH   6  23
ATOM     23  N   UNL     1       0.169  11.806  21.619  0.00  0.00    +0.000 N 
ATOM     24  C   UNL     1       0.878  12.937  21.245  0.00  0.00    +0.000 C 
ATOM     25  O   UNL     1       1.770  12.961  20.401  0.00  0.00    +0.000 OA
ATOM     26  H   UNL     1      -0.691  11.922  22.145  0.00  0.00    +0.000 HD
BRANCH  24  27
ATOM     27  C   UNL     1       0.499  14.186  21.878  0.00  0.00    +0.000 A 
ATOM     28  C   UNL     1       0.942  15.496  21.801  0.00  0.00    +0.000 A 
ATOM     29  C   UNL     1       0.141  16.278  22.679  0.00  0.00    +0.000 A 
ATOM     30  C   UNL     1      -0.774  15.437  23.267  0.00  0.00    +0.000 A 
ATOM     31  N   UNL     1      -0.551  14.183  22.778  0.00  0.00    +0.000 N 
ATOM     32  H   UNL     1      -1.066  13.344  23.019  0.00  0.00    +0.000 HD
ENDBRANCH  24  27
ENDBRANCH   6  23
TORSDOF 4
ENDMDL
MODEL 9
REMARK VINA RESULT:      -7.6      5.115     10.058
REMARK  Name = 
REMARK  4 active torsions:
REMARK  status: ('A' for Active; 'I' for Inactive)
REMARK    1  A    between atoms: C_2  and  C_4
REMARK    2  A    between atoms: N_7  and  C_8
REMARK    3  A    between atoms: C_19  and  N_20
REMARK    4  A    between atoms: C_21  and  C_23
REMARK                            x       y       z     vdW  Elec       q    Type
REMARK                         _______ _______ _______ _____ _____    ______ ____
ROOT
ATOM      1  C   UNL     1       0.612   9.821  21.288  0.00  0.00    +0.000 A 
ATOM      2  N   UNL     1       1.413   9.255  20.298  0.00  0.00    +0.000 NA
ATOM      3  C   UNL     1       1.016   9.620  19.103  0.00  0.00    +0.000 A 
ATOM      4  N   UNL     1       1.576   9.199  17.947  0.00  0.00    +0.000 N 
ATOM      5  S   UNL     1      -0.281  10.733  19.107  0.00  0.00    +0.000 S 
ATOM      6  C   UNL     1      -0.435  10.591  20.808  0.00  0.00    +0.000 A 
ATOM      7  H   UNL     1       1.364   9.685  17.085  0.00  0.00    +0.000 HD
ENDROOT
BRANCH   4   8
ATOM      8  C   UNL     1       2.274   7.986  17.803  0.00  0.00    +0.000 A 
ATOM      9  C   UNL     1       1.704   6.757  18.164  0.00  0.00    +0.000 A 
ATOM     10  C   UNL     1       2.441   5.575  18.121  0.00  0.00    +0.000 A 
ATOM     11  C   UNL     1       3.784   5.597  17.737  0.00  0.00    +0.000 A 
ATOM     12  C   UNL     1       4.549   4.422  17.733  0.00  0.00    +0.000 A 
ATOM     13  C   UNL     1       5.896   4.456  17.376  0.00  0.00    +0.000 A 
ATOM     14  C   UNL     1       6.489   5.662  17.014  0.00  0.00    +0.000 A 
ATOM     15  C   UNL     1       5.736   6.839  17.005  0.00  0.00    +0.000 A 
ATOM     16  C   UNL     1       4.380   6.823  17.365  0.00  0.00    +0.000 A 
ATOM     17  C   UNL     1       3.610   8.002  17.389  0.00  0.00    +0.000 A 
ENDBRANCH   4   8
BRANCH   1  19
ATOM     18  N   UNL     1       2.161   8.979  22.853  0.00  0.00    +0.000 N 
ATOM     19  C   UNL     1       0.913   9.518  22.683  0.00  0.00    +0.000 C 
ATOM     20  O   UNL     1       0.137   9.728  23.612  0.00  0.00    +0.000 OA
ATOM     21  H   UNL     1       2.507   8.742  23.769  0.00  0.00    +0.000 HD
ATOM     22  H   UNL     1       2.752   8.858  22.034  0.00  0.00    +0.000 HD
ENDBRANCH   1  19
BRANCH   6  23
ATOM     23  N   UNL     1      -1.450  11.248  21.501  0.00  0.00    +0.000 N 
ATOM     24  C   UNL     1      -1.249  12.382  22.271  0.00  0.00    +0.000 C 
ATOM     25  O   UNL     1      -0.181  12.978  22.381  0.00  0.00    +0.000 OA
ATOM     26  H   UNL     1      -2.402  10.965  21.290  0.00  0.00    +0.000 HD
BRANCH  24  27
ATOM     27  C   UNL     1      -2.407  12.918  22.963  0.00  0.00    +0.000 A 
ATOM     28  C   UNL     1      -2.952  14.180  23.127  0.00  0.00    +0.000 A 
ATOM     29  C   UNL     1      -4.125  14.048  23.921  0.00  0.00    +0.000 A 
ATOM     30  C   UNL     1      -4.275  12.715  24.221  0.00  0.00    +0.000 A 
ATOM     31  N   UNL     1      -3.239  12.044  23.639  0.00  0.00    +0.000 N 
ATOM     32  H   UNL     1      -3.073  11.045  23.677  0.00  0.00    +0.000 HD
ENDBRANCH  24  27
ENDBRANCH   6  23
TORSDOF 4
ENDMDL
