MODEL 1
REMARK VINA RESULT:      -8.4      0.000      0.000
REMARK  Name = 
REMARK  8 active torsions:
REMARK  status: ('A' for Active; 'I' for Inactive)
REMARK    1  A    between atoms: C_1  and  O_2
REMARK    2  A    between atoms: O_2  and  C_3
REMARK    3  A    between atoms: C_6  and  C_7
REMARK    4  A    between atoms: C_7  and  C_20
REMARK    5  A    between atoms: C_8  and  C_9
REMARK    6  A    between atoms: N_11  and  C_12
REMARK    7  A    between atoms: C_12  and  C_13
REMARK    8  A    between atoms: C_13  and  C_14
REMARK                            x       y       z     vdW  Elec       q    Type
REMARK                         _______ _______ _______ _____ _____    ______ ____
ROOT
ATOM      1  C   UNL     1       2.850   6.655  18.874  0.00  0.00    +0.000 C 
ATOM      2  C   UNL     1       4.170   6.811  18.633  0.00  0.00    +0.000 C 
ENDROOT
BRANCH   1   3
ATOM      3  C   UNL     1       2.268   5.305  19.037  0.00  0.00    +0.000 A 
ATOM      4  C   UNL     1       1.808   4.608  17.917  0.00  0.00    +0.000 A 
ATOM      5  C   UNL     1       1.281   3.341  18.100  0.00  0.00    +0.000 A 
ATOM      6  N   UNL     1       1.190   2.733  19.299  0.00  0.00    +0.000 NA
ATOM      7  C   UNL     1       1.634   3.439  20.362  0.00  0.00    +0.000 A 
ATOM      8 CL   UNL     1       1.500   2.617  21.862  0.00  0.00    +0.000 Cl
ATOM      9  C   UNL     1       2.179   4.707  20.293  0.00  0.00    +0.000 A 
ENDBRANCH   1   3
BRANCH   1  13
ATOM     10  C   UNL     1       0.353  10.116  19.405  0.00  0.00    +0.000 A 
ATOM     11  C   UNL     1       0.857   9.799  18.141  0.00  0.00    +0.000 A 
ATOM     12  C   UNL     1       1.682   8.681  17.961  0.00  0.00    +0.000 A 
ATOM     13  C   UNL     1       2.028   7.878  19.054  0.00  0.00    +0.000 A 
ATOM     14  C   UNL     1       1.540   8.213  20.322  0.00  0.00    +0.000 A 
ATOM     15  C   UNL     1       0.707   9.326  20.498  0.00  0.00    +0.000 A 
BRANCH  10  17
ATOM     16  C   UNL     1      -1.667  11.167  18.743  0.00  0.00    +0.000 C 
ATOM     17  O   UNL     1      -0.438  11.232  19.458  0.00  0.00    +0.000 OA
ENDBRANCH  10  17
ENDBRANCH   1  13
BRANCH   2  18
ATOM     18  C   UNL     1       5.089   5.672  18.383  0.00  0.00    +0.000 C 
ATOM     19  O   UNL     1       5.658   5.090  19.296  0.00  0.00    +0.000 OA
ATOM     20  N   UNL     1       5.220   5.344  17.051  0.00  0.00    +0.000 N 
ATOM     21  H   UNL     1       4.752   5.898  16.347  0.00  0.00    +0.000 HD
BRANCH  20  22
ATOM     22  C   UNL     1       6.121   4.271  16.655  0.00  0.00    +0.000 C 
BRANCH  22  23
ATOM     23  C   UNL     1       5.643   3.491  15.427  0.00  0.00    +0.000 C 
BRANCH  23  24
ATOM     24  C   UNL     1       6.333   3.945  14.161  0.00  0.00    +0.000 A 
ATOM     25  C   UNL     1       7.271   4.987  14.192  0.00  0.00    +0.000 A 
ATOM     26  C   UNL     1       7.894   5.420  13.019  0.00  0.00    +0.000 A 
ATOM     27  C   UNL     1       7.582   4.821  11.800  0.00  0.00    +0.000 A 
ATOM     28  C   UNL     1       6.649   3.788  11.754  0.00  0.00    +0.000 A 
ATOM     29  C   UNL     1       6.026   3.353  12.927  0.00  0.00    +0.000 A 
ENDBRANCH  23  24
ENDBRANCH  22  23
ENDBRANCH  20  22
ENDBRANCH   2  18
TORSDOF 7
ENDMDL
MODEL 2
REMARK VINA RESULT:      -8.3      0.501      1.031
REMARK  Name = 
REMARK  8 active torsions:
REMARK  status: ('A' for Active; 'I' for Inactive)
REMARK    1  A    between atoms: C_1  and  O_2
REMARK    2  A    between atoms: O_2  and  C_3
REMARK    3  A    between atoms: C_6  and  C_7
REMARK    4  A    between atoms: C_7  and  C_20
REMARK    5  A    between atoms: C_8  and  C_9
REMARK    6  A    between atoms: N_11  and  C_12
REMARK    7  A    between atoms: C_12  and  C_13
REMARK    8  A    between atoms: C_13  and  C_14
REMARK                            x       y       z     vdW  Elec       q    Type
REMARK                         _______ _______ _______ _____ _____    ______ ____
ROOT
ATOM      1  C   UNL     1       2.802   6.710  18.886  0.00  0.00    +0.000 C 
ATOM      2  C   UNL     1       4.121   6.871  18.644  0.00  0.00    +0.000 C 
ENDROOT
BRANCH   1   3
ATOM      3  C   UNL     1       2.218   5.357  19.007  0.00  0.00    +0.000 A 
ATOM      4  C   UNL     1       1.838   4.660  17.856  0.00  0.00    +0.000 A 
ATOM      5  C   UNL     1       1.307   3.390  18.001  0.00  0.00    +0.000 A 
ATOM      6  N   UNL     1       1.138   2.779  19.190  0.00  0.00    +0.000 NA
ATOM      7  C   UNL     1       1.505   3.484  20.282  0.00  0.00    +0.000 A 
ATOM      8 CL   UNL     1       1.273   2.659  21.768  0.00  0.00    +0.000 Cl
ATOM      9  C   UNL     1       2.046   4.756  20.253  0.00  0.00    +0.000 A 
ENDBRANCH   1   3
BRANCH   1  13
ATOM     10  C   UNL     1       0.315  10.158  19.541  0.00  0.00    +0.000 A 
ATOM     11  C   UNL     1       0.828   9.892  18.269  0.00  0.00    +0.000 A 
ATOM     12  C   UNL     1       1.650   8.778  18.049  0.00  0.00    +0.000 A 
ATOM     13  C   UNL     1       1.984   7.928  19.110  0.00  0.00    +0.000 A 
ATOM     14  C   UNL     1       1.487   8.212  20.387  0.00  0.00    +0.000 A 
ATOM     15  C   UNL     1       0.657   9.320  20.602  0.00  0.00    +0.000 A 
BRANCH  10  17
ATOM     16  C   UNL     1       0.089  12.482  19.129  0.00  0.00    +0.000 C 
ATOM     17  O   UNL     1      -0.471  11.274  19.634  0.00  0.00    +0.000 OA
ENDBRANCH  10  17
ENDBRANCH   1  13
BRANCH   2  18
ATOM     18  C   UNL     1       5.036   5.739  18.352  0.00  0.00    +0.000 C 
ATOM     19  O   UNL     1       5.277   4.874  19.183  0.00  0.00    +0.000 OA
ATOM     20  N   UNL     1       5.561   5.761  17.079  0.00  0.00    +0.000 N 
ATOM     21  H   UNL     1       5.351   6.533  16.460  0.00  0.00    +0.000 HD
BRANCH  20  22
ATOM     22  C   UNL     1       6.506   4.733  16.667  0.00  0.00    +0.000 C 
BRANCH  22  23
ATOM     23  C   UNL     1       5.926   3.734  15.661  0.00  0.00    +0.000 C 
BRANCH  23  24
ATOM     24  C   UNL     1       6.388   4.014  14.250  0.00  0.00    +0.000 A 
ATOM     25  C   UNL     1       5.855   3.298  13.168  0.00  0.00    +0.000 A 
ATOM     26  C   UNL     1       6.296   3.543  11.865  0.00  0.00    +0.000 A 
ATOM     27  C   UNL     1       7.279   4.502  11.629  0.00  0.00    +0.000 A 
ATOM     28  C   UNL     1       7.820   5.217  12.694  0.00  0.00    +0.000 A 
ATOM     29  C   UNL     1       7.378   4.974  13.998  0.00  0.00    +0.000 A 
ENDBRANCH  23  24
ENDBRANCH  22  23
ENDBRANCH  20  22
ENDBRANCH   2  18
TORSDOF 7
ENDMDL
MODEL 3
REMARK VINA RESULT:      -8.3      0.409      1.368
REMARK  Name = 
REMARK  8 active torsions:
REMARK  status: ('A' for Active; 'I' for Inactive)
REMARK    1  A    between atoms: C_1  and  O_2
REMARK    2  A    between atoms: O_2  and  C_3
REMARK    3  A    between atoms: C_6  and  C_7
REMARK    4  A    between atoms: C_7  and  C_20
REMARK    5  A    between atoms: C_8  and  C_9
REMARK    6  A    between atoms: N_11  and  C_12
REMARK    7  A    between atoms: C_12  and  C_13
REMARK    8  A    between atoms: C_13  and  C_14
REMARK                            x       y       z     vdW  Elec       q    Type
REMARK                         _______ _______ _______ _____ _____    ______ ____
ROOT
ATOM      1  C   UNL     1       2.815   6.635  18.914  0.00  0.00    +0.000 C 
ATOM      2  C   UNL     1       4.128   6.801  18.648  0.00  0.00    +0.000 C 
ENDROOT
BRANCH   1   3
ATOM      3  C   UNL     1       2.243   5.280  19.072  0.00  0.00    +0.000 A 
ATOM      4  C   UNL     1       1.799   4.579  17.948  0.00  0.00    +0.000 A 
ATOM      5  C   UNL     1       1.282   3.307  18.127  0.00  0.00    +0.000 A 
ATOM      6  N   UNL     1       1.184   2.699  19.326  0.00  0.00    +0.000 NA
ATOM      7  C   UNL     1       1.612   3.410  20.393  0.00  0.00    +0.000 A 
ATOM      8 CL   UNL     1       1.470   2.588  21.892  0.00  0.00    +0.000 Cl
ATOM      9  C   UNL     1       2.146   4.683  20.328  0.00  0.00    +0.000 A 
ENDBRANCH   1   3
BRANCH   1  13
ATOM     10  C   UNL     1       0.542  10.235  19.525  0.00  0.00    +0.000 A 
ATOM     11  C   UNL     1       0.770   9.358  20.588  0.00  0.00    +0.000 A 
ATOM     12  C   UNL     1       1.498   8.177  20.395  0.00  0.00    +0.000 A 
ATOM     13  C   UNL     1       1.990   7.851  19.126  0.00  0.00    +0.000 A 
ATOM     14  C   UNL     1       1.738   8.722  18.059  0.00  0.00    +0.000 A 
ATOM     15  C   UNL     1       1.019   9.908  18.257  0.00  0.00    +0.000 A 
BRANCH  10  17
ATOM     16  C   UNL     1      -1.502  11.415  19.300  0.00  0.00    +0.000 C 
ATOM     17  O   UNL     1      -0.184  11.354  19.834  0.00  0.00    +0.000 OA
ENDBRANCH  10  17
ENDBRANCH   1  13
BRANCH   2  18
ATOM     18  C   UNL     1       5.047   5.670  18.364  0.00  0.00    +0.000 C 
ATOM     19  O   UNL     1       5.586   5.037  19.262  0.00  0.00    +0.000 OA
ATOM     20  N   UNL     1       5.215   5.411  17.022  0.00  0.00    +0.000 N 
ATOM     21  H   UNL     1       4.772   6.005  16.334  0.00  0.00    +0.000 HD
BRANCH  20  22
ATOM     22  C   UNL     1       6.121   4.354  16.596  0.00  0.00    +0.000 C 
BRANCH  22  23
ATOM     23  C   UNL     1       7.224   4.836  15.649  0.00  0.00    +0.000 C 
BRANCH  23  24
ATOM     24  C   UNL     1       6.919   4.506  14.206  0.00  0.00    +0.000 A 
ATOM     25  C   UNL     1       5.833   3.683  13.875  0.00  0.00    +0.000 A 
ATOM     26  C   UNL     1       5.564   3.361  12.542  0.00  0.00    +0.000 A 
ATOM     27  C   UNL     1       6.379   3.854  11.525  0.00  0.00    +0.000 A 
ATOM     28  C   UNL     1       7.464   4.670  11.840  0.00  0.00    +0.000 A 
ATOM     29  C   UNL     1       7.734   4.993  13.174  0.00  0.00    +0.000 A 
ENDBRANCH  23  24
ENDBRANCH  22  23
ENDBRANCH  20  22
ENDBRANCH   2  18
TORSDOF 7
ENDMDL
MODEL 4
REMARK VINA RESULT:      -8.2      1.085      1.877
REMARK  Name = 
REMARK  8 active torsions:
REMARK  status: ('A' for Active; 'I' for Inactive)
REMARK    1  A    between atoms: C_1  and  O_2
REMARK    2  A    between atoms: O_2  and  C_3
REMARK    3  A    between atoms: C_6  and  C_7
REMARK    4  A    between atoms: C_7  and  C_20
REMARK    5  A    between atoms: C_8  and  C_9
REMARK    6  A    between atoms: N_11  and  C_12
REMARK    7  A    between atoms: C_12  and  C_13
REMARK    8  A    between atoms: C_13  and  C_14
REMARK                            x       y       z     vdW  Elec       q    Type
REMARK                         _______ _______ _______ _____ _____    ______ ____
ROOT
ATOM      1  C   UNL     1       3.017   6.383  18.391  0.00  0.00    +0.000 C 
ATOM      2  C   UNL     1       4.233   6.523  17.822  0.00  0.00    +0.000 C 
ENDROOT
BRANCH   1   3
ATOM      3  C   UNL     1       2.500   5.043  18.746  0.00  0.00    +0.000 A 
ATOM      4  C   UNL     1       1.839   4.276  17.782  0.00  0.00    +0.000 A 
ATOM      5  C   UNL     1       1.379   3.021  18.141  0.00  0.00    +0.000 A 
ATOM      6  N   UNL     1       1.535   2.488  19.369  0.00  0.00    +0.000 NA
ATOM      7  C   UNL     1       2.169   3.260  20.279  0.00  0.00    +0.000 A 
ATOM      8 CL   UNL     1       2.345   2.532  21.823  0.00  0.00    +0.000 Cl
ATOM      9  C   UNL     1       2.669   4.524  20.029  0.00  0.00    +0.000 A 
ENDBRANCH   1   3
BRANCH   1  13
ATOM     10  C   UNL     1       0.945  10.026  19.356  0.00  0.00    +0.000 A 
ATOM     11  C   UNL     1       1.146   9.050  20.336  0.00  0.00    +0.000 A 
ATOM     12  C   UNL     1       1.808   7.855  20.027  0.00  0.00    +0.000 A 
ATOM     13  C   UNL     1       2.260   7.616  18.723  0.00  0.00    +0.000 A 
ATOM     14  C   UNL     1       2.034   8.586  17.741  0.00  0.00    +0.000 A 
ATOM     15  C   UNL     1       1.381   9.785  18.054  0.00  0.00    +0.000 A 
BRANCH  10  17
ATOM     16  C   UNL     1       0.101  11.285  21.180  0.00  0.00    +0.000 C 
ATOM     17  O   UNL     1       0.283  11.149  19.775  0.00  0.00    +0.000 OA
ENDBRANCH  10  17
ENDBRANCH   1  13
BRANCH   2  18
ATOM     18  C   UNL     1       5.066   5.370  17.394  0.00  0.00    +0.000 C 
ATOM     19  O   UNL     1       5.628   4.645  18.203  0.00  0.00    +0.000 OA
ATOM     20  N   UNL     1       5.127   5.204  16.028  0.00  0.00    +0.000 N 
ATOM     21  H   UNL     1       4.672   5.869  15.418  0.00  0.00    +0.000 HD
BRANCH  20  22
ATOM     22  C   UNL     1       5.940   4.135  15.464  0.00  0.00    +0.000 C 
BRANCH  22  23
ATOM     23  C   UNL     1       6.604   4.507  14.135  0.00  0.00    +0.000 C 
BRANCH  23  24
ATOM     24  C   UNL     1       6.053   3.705  12.979  0.00  0.00    +0.000 A 
ATOM     25  C   UNL     1       4.722   3.869  12.567  0.00  0.00    +0.000 A 
ATOM     26  C   UNL     1       4.206   3.113  11.511  0.00  0.00    +0.000 A 
ATOM     27  C   UNL     1       5.011   2.182  10.859  0.00  0.00    +0.000 A 
ATOM     28  C   UNL     1       6.334   2.006  11.261  0.00  0.00    +0.000 A 
ATOM     29  C   UNL     1       6.851   2.763  12.316  0.00  0.00    +0.000 A 
ENDBRANCH  23  24
ENDBRANCH  22  23
ENDBRANCH  20  22
ENDBRANCH   2  18
TORSDOF 7
ENDMDL
MODEL 5
REMARK VINA RESULT:      -8.1      1.546      2.015
REMARK  Name = 
REMARK  8 active torsions:
REMARK  status: ('A' for Active; 'I' for Inactive)
REMARK    1  A    between atoms: C_1  and  O_2
REMARK    2  A    between atoms: O_2  and  C_3
REMARK    3  A    between atoms: C_6  and  C_7
REMARK    4  A    between atoms: C_7  and  C_20
REMARK    5  A    between atoms: C_8  and  C_9
REMARK    6  A    between atoms: N_11  and  C_12
REMARK    7  A    between atoms: C_12  and  C_13
REMARK    8  A    between atoms: C_13  and  C_14
REMARK                            x       y       z     vdW  Elec       q    Type
REMARK                         _______ _______ _______ _____ _____    ______ ____
ROOT
ATOM      1  C   UNL     1       3.034   6.910  18.343  0.00  0.00    +0.000 C 
ATOM      2  C   UNL     1       4.018   7.512  17.641  0.00  0.00    +0.000 C 
ENDROOT
BRANCH   1   3
ATOM      3  C   UNL     1       2.934   5.435  18.389  0.00  0.00    +0.000 A 
ATOM      4  C   UNL     1       2.021   4.775  17.563  0.00  0.00    +0.000 A 
ATOM      5  C   UNL     1       1.961   3.393  17.619  0.00  0.00    +0.000 A 
ATOM      6  N   UNL     1       2.739   2.641  18.422  0.00  0.00    +0.000 NA
ATOM      7  C   UNL     1       3.603   3.311  19.215  0.00  0.00    +0.000 A 
ATOM      8 CL   UNL     1       4.572   2.306  20.213  0.00  0.00    +0.000 Cl
ATOM      9  C   UNL     1       3.747   4.686  19.239  0.00  0.00    +0.000 A 
ENDBRANCH   1   3
BRANCH   1  13
ATOM     10  C   UNL     1       0.479   9.495  20.644  0.00  0.00    +0.000 A 
ATOM     11  C   UNL     1       0.979   8.318  21.206  0.00  0.00    +0.000 A 
ATOM     12  C   UNL     1       1.802   7.463  20.459  0.00  0.00    +0.000 A 
ATOM     13  C   UNL     1       2.116   7.771  19.130  0.00  0.00    +0.000 A 
ATOM     14  C   UNL     1       1.593   8.939  18.565  0.00  0.00    +0.000 A 
ATOM     15  C   UNL     1       0.780   9.798  19.316  0.00  0.00    +0.000 A 
BRANCH  10  17
ATOM     16  C   UNL     1      -0.834  11.451  20.913  0.00  0.00    +0.000 C 
ATOM     17  O   UNL     1      -0.314  10.247  21.467  0.00  0.00    +0.000 OA
ENDBRANCH  10  17
ENDBRANCH   1  13
BRANCH   2  18
ATOM     18  C   UNL     1       4.966   6.769  16.773  0.00  0.00    +0.000 C 
ATOM     19  O   UNL     1       4.885   6.802  15.553  0.00  0.00    +0.000 OA
ATOM     20  N   UNL     1       5.926   6.067  17.470  0.00  0.00    +0.000 N 
ATOM     21  H   UNL     1       5.904   6.050  18.480  0.00  0.00    +0.000 HD
BRANCH  20  22
ATOM     22  C   UNL     1       6.899   5.260  16.748  0.00  0.00    +0.000 C 
BRANCH  22  23
ATOM     23  C   UNL     1       6.275   4.101  15.966  0.00  0.00    +0.000 C 
BRANCH  23  24
ATOM     24  C   UNL     1       6.560   4.196  14.484  0.00  0.00    +0.000 A 
ATOM     25  C   UNL     1       5.893   3.364  13.574  0.00  0.00    +0.000 A 
ATOM     26  C   UNL     1       6.171   3.437  12.206  0.00  0.00    +0.000 A 
ATOM     27  C   UNL     1       7.123   4.338  11.734  0.00  0.00    +0.000 A 
ATOM     28  C   UNL     1       7.797   5.168  12.628  0.00  0.00    +0.000 A 
ATOM     29  C   UNL     1       7.518   5.096  13.996  0.00  0.00    +0.000 A 
ENDBRANCH  23  24
ENDBRANCH  22  23
ENDBRANCH  20  22
ENDBRANCH   2  18
TORSDOF 7
ENDMDL
MODEL 6
REMARK VINA RESULT:      -8.0      1.054      1.437
REMARK  Name = 
REMARK  8 active torsions:
REMARK  status: ('A' for Active; 'I' for Inactive)
REMARK    1  A    between atoms: C_1  and  O_2
REMARK    2  A    between atoms: O_2  and  C_3
REMARK    3  A    between atoms: C_6  and  C_7
REMARK    4  A    between atoms: C_7  and  C_20
REMARK    5  A    between atoms: C_8  and  C_9
REMARK    6  A    between atoms: N_11  and  C_12
REMARK    7  A    between atoms: C_12  and  C_13
REMARK    8  A    between atoms: C_13  and  C_14
REMARK                            x       y       z     vdW  Elec       q    Type
REMARK                         _______ _______ _______ _____ _____    ______ ____
ROOT
ATOM      1  C   UNL     1       2.656   6.581  19.450  0.00  0.00    +0.000 C 
ATOM      2  C   UNL     1       3.843   6.764  18.832  0.00  0.00    +0.000 C 
ENDROOT
BRANCH   1   3
ATOM      3  C   UNL     1       2.241   5.235  19.901  0.00  0.00    +0.000 A 
ATOM      4  C   UNL     1       2.495   4.835  21.216  0.00  0.00    +0.000 A 
ATOM      5  C   UNL     1       2.083   3.574  21.612  0.00  0.00    +0.000 A 
ATOM      6  N   UNL     1       1.442   2.707  20.804  0.00  0.00    +0.000 NA
ATOM      7  C   UNL     1       1.221   3.121  19.537  0.00  0.00    +0.000 A 
ATOM      8 CL   UNL     1       0.398   1.981  18.554  0.00  0.00    +0.000 Cl
ATOM      9  C   UNL     1       1.589   4.356  19.037  0.00  0.00    +0.000 A 
ENDBRANCH   1   3
BRANCH   1  13
ATOM     10  C   UNL     1       0.144   9.976  20.266  0.00  0.00    +0.000 A 
ATOM     11  C   UNL     1       0.744   9.829  19.012  0.00  0.00    +0.000 A 
ATOM     12  C   UNL     1       1.574   8.733  18.742  0.00  0.00    +0.000 A 
ATOM     13  C   UNL     1       1.829   7.780  19.735  0.00  0.00    +0.000 A 
ATOM     14  C   UNL     1       1.245   7.944  20.996  0.00  0.00    +0.000 A 
ATOM     15  C   UNL     1       0.407   9.035  21.261  0.00  0.00    +0.000 A 
BRANCH  10  17
ATOM     16  C   UNL     1      -1.382  11.490  19.266  0.00  0.00    +0.000 C 
ATOM     17  O   UNL     1      -0.642  11.086  20.413  0.00  0.00    +0.000 OA
ENDBRANCH  10  17
ENDBRANCH   1  13
BRANCH   2  18
ATOM     18  C   UNL     1       4.737   5.644  18.445  0.00  0.00    +0.000 C 
ATOM     19  O   UNL     1       5.495   5.117  19.248  0.00  0.00    +0.000 OA
ATOM     20  N   UNL     1       4.618   5.267  17.125  0.00  0.00    +0.000 N 
ATOM     21  H   UNL     1       4.001   5.778  16.508  0.00  0.00    +0.000 HD
BRANCH  20  22
ATOM     22  C   UNL     1       5.464   4.206  16.596  0.00  0.00    +0.000 C 
BRANCH  22  23
ATOM     23  C   UNL     1       6.779   4.712  15.998  0.00  0.00    +0.000 C 
BRANCH  23  24
ATOM     24  C   UNL     1       6.836   4.519  14.500  0.00  0.00    +0.000 A 
ATOM     25  C   UNL     1       7.693   5.299  13.711  0.00  0.00    +0.000 A 
ATOM     26  C   UNL     1       7.730   5.135  12.323  0.00  0.00    +0.000 A 
ATOM     27  C   UNL     1       6.908   4.193  11.709  0.00  0.00    +0.000 A 
ATOM     28  C   UNL     1       6.048   3.414  12.481  0.00  0.00    +0.000 A 
ATOM     29  C   UNL     1       6.011   3.577  13.869  0.00  0.00    +0.000 A 
ENDBRANCH  23  24
ENDBRANCH  22  23
ENDBRANCH  20  22
ENDBRANCH   2  18
TORSDOF 7
ENDMDL
MODEL 7
REMARK VINA RESULT:      -8.0      0.946      1.565
REMARK  Name = 
REMARK  8 active torsions:
REMARK  status: ('A' for Active; 'I' for Inactive)
REMARK    1  A    between atoms: C_1  and  O_2
REMARK    2  A    between atoms: O_2  and  C_3
REMARK    3  A    between atoms: C_6  and  C_7
REMARK    4  A    between atoms: C_7  and  C_20
REMARK    5  A    between atoms: C_8  and  C_9
REMARK    6  A    between atoms: N_11  and  C_12
REMARK    7  A    between atoms: C_12  and  C_13
REMARK    8  A    between atoms: C_13  and  C_14
REMARK                            x       y       z     vdW  Elec       q    Type
REMARK                         _______ _______ _______ _____ _____    ______ ____
ROOT
ATOM      1  C   UNL     1       2.704   6.758  19.024  0.00  0.00    +0.000 C 
ATOM      2  C   UNL     1       3.907   6.876  18.421  0.00  0.00    +0.000 C 
ENDROOT
BRANCH   1   3
ATOM      3  C   UNL     1       2.272   5.465  19.598  0.00  0.00    +0.000 A 
ATOM      4  C   UNL     1       2.485   5.202  20.953  0.00  0.00    +0.000 A 
ATOM      5  C   UNL     1       2.056   3.988  21.464  0.00  0.00    +0.000 A 
ATOM      6  N   UNL     1       1.438   3.042  20.730  0.00  0.00    +0.000 NA
ATOM      7  C   UNL     1       1.258   3.325  19.421  0.00  0.00    +0.000 A 
ATOM      8 CL   UNL     1       0.462   2.090  18.534  0.00  0.00    +0.000 Cl
ATOM      9  C   UNL     1       1.644   4.502  18.809  0.00  0.00    +0.000 A 
ENDBRANCH   1   3
BRANCH   1  13
ATOM     10  C   UNL     1       0.190  10.222  19.444  0.00  0.00    +0.000 A 
ATOM     11  C   UNL     1       0.741   9.899  18.201  0.00  0.00    +0.000 A 
ATOM     12  C   UNL     1       1.572   8.780  18.058  0.00  0.00    +0.000 A 
ATOM     13  C   UNL     1       1.876   7.982  19.167  0.00  0.00    +0.000 A 
ATOM     14  C   UNL     1       1.340   8.323  20.414  0.00  0.00    +0.000 A 
ATOM     15  C   UNL     1       0.501   9.437  20.552  0.00  0.00    +0.000 A 
BRANCH  10  17
ATOM     16  C   UNL     1      -1.890  11.206  18.869  0.00  0.00    +0.000 C 
ATOM     17  O   UNL     1      -0.602  11.339  19.461  0.00  0.00    +0.000 OA
ENDBRANCH  10  17
ENDBRANCH   1  13
BRANCH   2  18
ATOM     18  C   UNL     1       4.805   5.721  18.170  0.00  0.00    +0.000 C 
ATOM     19  O   UNL     1       5.580   5.309  19.023  0.00  0.00    +0.000 OA
ATOM     20  N   UNL     1       4.669   5.171  16.914  0.00  0.00    +0.000 N 
ATOM     21  H   UNL     1       4.038   5.592  16.246  0.00  0.00    +0.000 HD
BRANCH  20  22
ATOM     22  C   UNL     1       5.516   4.056  16.516  0.00  0.00    +0.000 C 
BRANCH  22  23
ATOM     23  C   UNL     1       6.867   4.487  15.939  0.00  0.00    +0.000 C 
BRANCH  23  24
ATOM     24  C   UNL     1       6.885   4.432  14.429  0.00  0.00    +0.000 A 
ATOM     25  C   UNL     1       6.080   3.514  13.738  0.00  0.00    +0.000 A 
ATOM     26  C   UNL     1       6.112   3.449  12.342  0.00  0.00    +0.000 A 
ATOM     27  C   UNL     1       6.952   4.295  11.622  0.00  0.00    +0.000 A 
ATOM     28  C   UNL     1       7.761   5.208  12.296  0.00  0.00    +0.000 A 
ATOM     29  C   UNL     1       7.728   5.275  13.692  0.00  0.00    +0.000 A 
ENDBRANCH  23  24
ENDBRANCH  22  23
ENDBRANCH  20  22
ENDBRANCH   2  18
TORSDOF 7
ENDMDL
MODEL 8
REMARK VINA RESULT:      -8.0      1.399      1.860
REMARK  Name = 
REMARK  8 active torsions:
REMARK  status: ('A' for Active; 'I' for Inactive)
REMARK    1  A    between atoms: C_1  and  O_2
REMARK    2  A    between atoms: O_2  and  C_3
REMARK    3  A    between atoms: C_6  and  C_7
REMARK    4  A    between atoms: C_7  and  C_20
REMARK    5  A    between atoms: C_8  and  C_9
REMARK    6  A    between atoms: N_11  and  C_12
REMARK    7  A    between atoms: C_12  and  C_13
REMARK    8  A    between atoms: C_13  and  C_14
REMARK                            x       y       z     vdW  Elec       q    Type
REMARK                         _______ _______ _______ _____ _____    ______ ____
ROOT
ATOM      1  C   UNL     1       3.494   6.402  18.171  0.00  0.00    +0.000 C 
ATOM      2  C   UNL     1       4.680   6.703  17.600  0.00  0.00    +0.000 C 
ENDROOT
BRANCH   1   3
ATOM      3  C   UNL     1       3.140   4.999  18.480  0.00  0.00    +0.000 A 
ATOM      4  C   UNL     1       2.060   4.396  17.831  0.00  0.00    +0.000 A 
ATOM      5  C   UNL     1       1.762   3.078  18.131  0.00  0.00    +0.000 A 
ATOM      6  N   UNL     1       2.459   2.335  19.013  0.00  0.00    +0.000 NA
ATOM      7  C   UNL     1       3.491   2.951  19.631  0.00  0.00    +0.000 A 
ATOM      8 CL   UNL     1       4.346   1.959  20.739  0.00  0.00    +0.000 Cl
ATOM      9  C   UNL     1       3.875   4.259  19.406  0.00  0.00    +0.000 A 
ENDBRANCH   1   3
BRANCH   1  13
ATOM     10  C   UNL     1       0.801   9.568  19.277  0.00  0.00    +0.000 A 
ATOM     11  C   UNL     1       1.298   9.490  17.974  0.00  0.00    +0.000 A 
ATOM     12  C   UNL     1       2.186   8.470  17.608  0.00  0.00    +0.000 A 
ATOM     13  C   UNL     1       2.602   7.525  18.554  0.00  0.00    +0.000 A 
ATOM     14  C   UNL     1       2.120   7.621  19.864  0.00  0.00    +0.000 A 
ATOM     15  C   UNL     1       1.224   8.636  20.225  0.00  0.00    +0.000 A 
BRANCH  10  17
ATOM     16  C   UNL     1      -0.944  10.949  18.459  0.00  0.00    +0.000 C 
ATOM     17  O   UNL     1      -0.055  10.609  19.517  0.00  0.00    +0.000 OA
ENDBRANCH  10  17
ENDBRANCH   1  13
BRANCH   2  18
ATOM     18  C   UNL     1       5.636   5.671  17.124  0.00  0.00    +0.000 C 
ATOM     19  O   UNL     1       6.603   5.331  17.793  0.00  0.00    +0.000 OA
ATOM     20  N   UNL     1       5.321   5.146  15.890  0.00  0.00    +0.000 N 
ATOM     21  H   UNL     1       4.530   5.508  15.375  0.00  0.00    +0.000 HD
BRANCH  20  22
ATOM     22  C   UNL     1       6.194   4.152  15.282  0.00  0.00    +0.000 C 
BRANCH  22  23
ATOM     23  C   UNL     1       6.708   4.553  13.896  0.00  0.00    +0.000 C 
BRANCH  23  24
ATOM     24  C   UNL     1       6.125   3.689  12.802  0.00  0.00    +0.000 A 
ATOM     25  C   UNL     1       4.768   3.787  12.461  0.00  0.00    +0.000 A 
ATOM     26  C   UNL     1       4.224   2.974  11.462  0.00  0.00    +0.000 A 
ATOM     27  C   UNL     1       5.029   2.051  10.797  0.00  0.00    +0.000 A 
ATOM     28  C   UNL     1       6.378   1.941  11.129  0.00  0.00    +0.000 A 
ATOM     29  C   UNL     1       6.923   2.755  12.127  0.00  0.00    +0.000 A 
ENDBRANCH  23  24
ENDBRANCH  22  23
ENDBRANCH  20  22
ENDBRANCH   2  18
TORSDOF 7
ENDMDL
MODEL 9
REMARK VINA RESULT:      -8.0      1.431      2.020
REMARK  Name = 
REMARK  8 active torsions:
REMARK  status: ('A' for Active; 'I' for Inactive)
REMARK    1  A    between atoms: C_1  and  O_2
REMARK    2  A    between atoms: O_2  and  C_3
REMARK    3  A    between atoms: C_6  and  C_7
REMARK    4  A    between atoms: C_7  and  C_20
REMARK    5  A    between atoms: C_8  and  C_9
REMARK    6  A    between atoms: N_11  and  C_12
REMARK    7  A    between atoms: C_12  and  C_13
REMARK    8  A    between atoms: C_13  and  C_14
REMARK                            x       y       z     vdW  Elec       q    Type
REMARK                         _______ _______ _______ _____ _____    ______ ____
ROOT
ATOM      1  C   UNL     1       3.428   6.455  18.146  0.00  0.00    +0.000 C 
ATOM      2  C   UNL     1       4.570   6.825  17.528  0.00  0.00    +0.000 C 
ENDROOT
BRANCH   1   3
ATOM      3  C   UNL     1       3.153   5.031  18.435  0.00  0.00    +0.000 A 
ATOM      4  C   UNL     1       2.093   4.385  17.794  0.00  0.00    +0.000 A 
ATOM      5  C   UNL     1       1.870   3.048  18.075  0.00  0.00    +0.000 A 
ATOM      6  N   UNL     1       2.621   2.326  18.930  0.00  0.00    +0.000 NA
ATOM      7  C   UNL     1       3.631   2.984  19.540  0.00  0.00    +0.000 A 
ATOM      8 CL   UNL     1       4.558   2.018  20.614  0.00  0.00    +0.000 Cl
ATOM      9  C   UNL     1       3.943   4.314  19.333  0.00  0.00    +0.000 A 
ENDBRANCH   1   3
BRANCH   1  13
ATOM     10  C   UNL     1       0.865   9.648  19.466  0.00  0.00    +0.000 A 
ATOM     11  C   UNL     1       1.229   8.627  20.348  0.00  0.00    +0.000 A 
ATOM     12  C   UNL     1       2.053   7.576  19.923  0.00  0.00    +0.000 A 
ATOM     13  C   UNL     1       2.506   7.527  18.599  0.00  0.00    +0.000 A 
ATOM     14  C   UNL     1       2.119   8.539  17.714  0.00  0.00    +0.000 A 
ATOM     15  C   UNL     1       1.304   9.594  18.144  0.00  0.00    +0.000 A 
BRANCH  10  17
ATOM     16  C   UNL     1      -1.122  10.925  19.253  0.00  0.00    +0.000 C 
ATOM     17  O   UNL     1       0.055  10.617  19.993  0.00  0.00    +0.000 OA
ENDBRANCH  10  17
ENDBRANCH   1  13
BRANCH   2  18
ATOM     18  C   UNL     1       5.548   5.850  16.982  0.00  0.00    +0.000 C 
ATOM     19  O   UNL     1       6.632   5.656  17.516  0.00  0.00    +0.000 OA
ATOM     20  N   UNL     1       5.112   5.200  15.848  0.00  0.00    +0.000 N 
ATOM     21  H   UNL     1       4.221   5.444  15.437  0.00  0.00    +0.000 HD
BRANCH  20  22
ATOM     22  C   UNL     1       5.985   4.244  15.181  0.00  0.00    +0.000 C 
BRANCH  22  23
ATOM     23  C   UNL     1       6.480   4.718  13.811  0.00  0.00    +0.000 C 
BRANCH  23  24
ATOM     24  C   UNL     1       6.315   3.657  12.748  0.00  0.00    +0.000 A 
ATOM     25  C   UNL     1       7.436   3.081  12.133  0.00  0.00    +0.000 A 
ATOM     26  C   UNL     1       7.284   2.114  11.135  0.00  0.00    +0.000 A 
ATOM     27  C   UNL     1       6.009   1.716  10.737  0.00  0.00    +0.000 A 
ATOM     28  C   UNL     1       4.886   2.283  11.337  0.00  0.00    +0.000 A 
ATOM     29  C   UNL     1       5.038   3.249  12.336  0.00  0.00    +0.000 A 
ENDBRANCH  23  24
ENDBRANCH  22  23
ENDBRANCH  20  22
ENDBRANCH   2  18
TORSDOF 7
ENDMDL
