MODEL 1
REMARK VINA RESULT:      -7.3      0.000      0.000
REMARK  Name = 
REMARK  6 active torsions:
REMARK  status: ('A' for Active; 'I' for Inactive)
REMARK    1  A    between atoms: C_1  and  C_2
REMARK    2  A    between atoms: C_2  and  O_3
REMARK    3  A    between atoms: O_3  and  C_4
REMARK    4  A    between atoms: C_7  and  N_8
REMARK    5  A    between atoms: C_12  and  N_13
REMARK    6  A    between atoms: C_17  and  C_19
REMARK                            x       y       z     vdW  Elec       q    Type
REMARK                         _______ _______ _______ _____ _____    ______ ____
ROOT
ATOM      1  N   UNL     1       0.166   9.663  19.647  0.00  0.00    +0.000 N 
ATOM      2  C   UNL     1       0.129   9.127  20.915  0.00  0.00    +0.000 C 
ATOM      3  O   UNL     1      -0.775   9.109  21.745  0.00  0.00    +0.000 OA
ATOM      4  C   UNL     1       1.481   8.568  21.227  0.00  0.00    +0.000 C 
ATOM      5  C   UNL     1       2.099   8.340  19.849  0.00  0.00    +0.000 C 
ATOM      6  C   UNL     1       1.410   9.468  19.084  0.00  0.00    +0.000 C 
ATOM      7  O   UNL     1       1.931  10.065  18.150  0.00  0.00    +0.000 OA
ENDROOT
BRANCH   5   8
ATOM      8  N   UNL     1       1.757   7.057  19.182  0.00  0.00    +0.000 NA
ATOM      9  C   UNL     1       2.282   6.958  17.792  0.00  0.00    +0.000 C 
ATOM     10  C   UNL     1       3.728   6.415  17.581  0.00  0.00    +0.000 C 
ATOM     11  N   UNL     1       4.136   5.405  18.563  0.00  0.00    +0.000 N 
ATOM     12  C   UNL     1       5.015   4.339  18.338  0.00  0.00    +0.000 C 
ATOM     13  O   UNL     1       5.109   3.428  19.162  0.00  0.00    +0.000 OA
ATOM     14  C   UNL     1       3.661   5.624  19.923  0.00  0.00    +0.000 C 
ATOM     15  C   UNL     1       2.151   5.844  19.919  0.00  0.00    +0.000 C 
BRANCH  12  16
ATOM     16  C   UNL     1       5.829   4.329  17.136  0.00  0.00    +0.000 A 
ATOM     17  C   UNL     1       7.029   4.963  16.874  0.00  0.00    +0.000 A 
ATOM     18  C   UNL     1       7.313   4.760  15.504  0.00  0.00    +0.000 A 
ATOM     19  C   UNL     1       6.272   4.013  15.008  0.00  0.00    +0.000 A 
ATOM     20  O   UNL     1       5.370   3.740  15.986  0.00  0.00    +0.000 OA
ENDBRANCH  12  16
ENDBRANCH   5   8
BRANCH   1  24
ATOM     21  C   UNL     1      -3.287  11.397  17.855  0.00  0.00    +0.000 A 
ATOM     22  C   UNL     1      -2.712  11.959  18.991  0.00  0.00    +0.000 A 
ATOM     23  C   UNL     1      -1.551  11.417  19.549  0.00  0.00    +0.000 A 
ATOM     24  C   UNL     1      -0.928  10.296  18.993  0.00  0.00    +0.000 A 
ATOM     25  C   UNL     1      -1.482   9.772  17.813  0.00  0.00    +0.000 A 
ATOM     26  C   UNL     1      -2.654  10.312  17.256  0.00  0.00    +0.000 A 
BRANCH  21  27
ATOM     27  O   UNL     1      -4.456  11.821  17.273  0.00  0.00    +0.000 OA
BRANCH  27  29
ATOM     28  C   UNL     1      -6.212  10.754  18.548  0.00  0.00    +0.000 C 
ATOM     29  C   UNL     1      -5.531  12.057  18.186  0.00  0.00    +0.000 C 
ENDBRANCH  27  29
ENDBRANCH  21  27
ENDBRANCH   1  24
TORSDOF 5
ENDMDL
MODEL 2
REMARK VINA RESULT:      -6.9      4.176      9.415
REMARK  Name = 
REMARK  6 active torsions:
REMARK  status: ('A' for Active; 'I' for Inactive)
REMARK    1  A    between atoms: C_1  and  C_2
REMARK    2  A    between atoms: C_2  and  O_3
REMARK    3  A    between atoms: O_3  and  C_4
REMARK    4  A    between atoms: C_7  and  N_8
REMARK    5  A    between atoms: C_12  and  N_13
REMARK    6  A    between atoms: C_17  and  C_19
REMARK                            x       y       z     vdW  Elec       q    Type
REMARK                         _______ _______ _______ _____ _____    ______ ____
ROOT
ATOM      1  N   UNL     1       1.046   9.333  20.214  0.00  0.00    +0.000 N 
ATOM      2  C   UNL     1       1.072   9.783  21.516  0.00  0.00    +0.000 C 
ATOM      3  O   UNL     1       1.540   9.269  22.526  0.00  0.00    +0.000 OA
ATOM      4  C   UNL     1       0.324  11.078  21.578  0.00  0.00    +0.000 C 
ATOM      5  C   UNL     1       0.363  11.581  20.137  0.00  0.00    +0.000 C 
ATOM      6  C   UNL     1       0.384  10.239  19.411  0.00  0.00    +0.000 C 
ATOM      7  O   UNL     1      -0.126  10.058  18.312  0.00  0.00    +0.000 OA
ENDROOT
BRANCH   5   8
ATOM      8  N   UNL     1       1.578  12.338  19.740  0.00  0.00    +0.000 NA
ATOM      9  C   UNL     1       1.437  13.034  18.432  0.00  0.00    +0.000 C 
ATOM     10  C   UNL     1       0.821  14.467  18.416  0.00  0.00    +0.000 C 
ATOM     11  N   UNL     1       1.129  15.263  19.609  0.00  0.00    +0.000 N 
ATOM     12  C   UNL     1       1.280  16.653  19.660  0.00  0.00    +0.000 C 
ATOM     13  O   UNL     1       1.757  17.188  20.662  0.00  0.00    +0.000 OA
ATOM     14  C   UNL     1       1.154  14.525  20.865  0.00  0.00    +0.000 C 
ATOM     15  C   UNL     1       2.065  13.308  20.737  0.00  0.00    +0.000 C 
BRANCH  12  16
ATOM     16  C   UNL     1       0.852  17.459  18.531  0.00  0.00    +0.000 A 
ATOM     17  C   UNL     1      -0.425  17.767  18.098  0.00  0.00    +0.000 A 
ATOM     18  C   UNL     1      -0.289  18.443  16.864  0.00  0.00    +0.000 A 
ATOM     19  C   UNL     1       1.060  18.510  16.614  0.00  0.00    +0.000 A 
ATOM     20  O   UNL     1       1.762  17.924  17.618  0.00  0.00    +0.000 OA
ENDBRANCH  12  16
ENDBRANCH   5   8
BRANCH   1  24
ATOM     21  C   UNL     1       3.075   5.794  18.987  0.00  0.00    +0.000 A 
ATOM     22  C   UNL     1       2.299   5.811  20.142  0.00  0.00    +0.000 A 
ATOM     23  C   UNL     1       1.595   6.958  20.517  0.00  0.00    +0.000 A 
ATOM     24  C   UNL     1       1.645   8.127  19.752  0.00  0.00    +0.000 A 
ATOM     25  C   UNL     1       2.383   8.084  18.558  0.00  0.00    +0.000 A 
ATOM     26  C   UNL     1       3.096   6.932  18.185  0.00  0.00    +0.000 A 
BRANCH  21  27
ATOM     27  O   UNL     1       3.847   4.739  18.572  0.00  0.00    +0.000 OA
BRANCH  27  29
ATOM     28  C   UNL     1       2.433   3.105  17.486  0.00  0.00    +0.000 C 
ATOM     29  C   UNL     1       3.238   3.454  18.720  0.00  0.00    +0.000 C 
ENDBRANCH  27  29
ENDBRANCH  21  27
ENDBRANCH   1  24
TORSDOF 5
ENDMDL
MODEL 3
REMARK VINA RESULT:      -6.9      4.125      9.485
REMARK  Name = 
REMARK  6 active torsions:
REMARK  status: ('A' for Active; 'I' for Inactive)
REMARK    1  A    between atoms: C_1  and  C_2
REMARK    2  A    between atoms: C_2  and  O_3
REMARK    3  A    between atoms: O_3  and  C_4
REMARK    4  A    between atoms: C_7  and  N_8
REMARK    5  A    between atoms: C_12  and  N_13
REMARK    6  A    between atoms: C_17  and  C_19
REMARK                            x       y       z     vdW  Elec       q    Type
REMARK                         _______ _______ _______ _____ _____    ______ ____
ROOT
ATOM      1  N   UNL     1       0.943   9.370  20.385  0.00  0.00    +0.000 N 
ATOM      2  C   UNL     1       0.896   9.864  21.671  0.00  0.00    +0.000 C 
ATOM      3  O   UNL     1       1.319   9.390  22.720  0.00  0.00    +0.000 OA
ATOM      4  C   UNL     1       0.131  11.150  21.651  0.00  0.00    +0.000 C 
ATOM      5  C   UNL     1       0.236  11.605  20.197  0.00  0.00    +0.000 C 
ATOM      6  C   UNL     1       0.311  10.239  19.519  0.00  0.00    +0.000 C 
ATOM      7  O   UNL     1      -0.141  10.015  18.403  0.00  0.00    +0.000 OA
ENDROOT
BRANCH   5   8
ATOM      8  N   UNL     1       1.461  12.364  19.836  0.00  0.00    +0.000 NA
ATOM      9  C   UNL     1       1.361  13.051  18.519  0.00  0.00    +0.000 C 
ATOM     10  C   UNL     1       0.740  14.481  18.472  0.00  0.00    +0.000 C 
ATOM     11  N   UNL     1       1.003  15.286  19.669  0.00  0.00    +0.000 N 
ATOM     12  C   UNL     1       1.147  16.678  19.716  0.00  0.00    +0.000 C 
ATOM     13  O   UNL     1       1.587  17.222  20.729  0.00  0.00    +0.000 OA
ATOM     14  C   UNL     1       0.989  14.558  20.931  0.00  0.00    +0.000 C 
ATOM     15  C   UNL     1       1.910  13.344  20.842  0.00  0.00    +0.000 C 
BRANCH  12  16
ATOM     16  C   UNL     1       0.753  17.473  18.567  0.00  0.00    +0.000 A 
ATOM     17  C   UNL     1      -0.509  17.802  18.109  0.00  0.00    +0.000 A 
ATOM     18  C   UNL     1      -0.340  18.455  16.866  0.00  0.00    +0.000 A 
ATOM     19  C   UNL     1       1.014  18.487  16.636  0.00  0.00    +0.000 A 
ATOM     20  O   UNL     1       1.687  17.903  17.660  0.00  0.00    +0.000 OA
ENDBRANCH  12  16
ENDBRANCH   5   8
BRANCH   1  24
ATOM     21  C   UNL     1       2.605   5.677  19.067  0.00  0.00    +0.000 A 
ATOM     22  C   UNL     1       2.769   6.842  18.323  0.00  0.00    +0.000 A 
ATOM     23  C   UNL     1       2.265   8.062  18.782  0.00  0.00    +0.000 A 
ATOM     24  C   UNL     1       1.578   8.158  19.995  0.00  0.00    +0.000 A 
ATOM     25  C   UNL     1       1.468   6.990  20.767  0.00  0.00    +0.000 A 
ATOM     26  C   UNL     1       1.969   5.761  20.302  0.00  0.00    +0.000 A 
BRANCH  21  27
ATOM     27  O   UNL     1       3.010   4.427  18.671  0.00  0.00    +0.000 OA
BRANCH  27  29
ATOM     28  C   UNL     1       4.404   3.906  16.766  0.00  0.00    +0.000 C 
ATOM     29  C   UNL     1       4.362   4.350  18.213  0.00  0.00    +0.000 C 
ENDBRANCH  27  29
ENDBRANCH  21  27
ENDBRANCH   1  24
TORSDOF 5
ENDMDL
MODEL 4
REMARK VINA RESULT:      -6.8      4.049      9.547
REMARK  Name = 
REMARK  6 active torsions:
REMARK  status: ('A' for Active; 'I' for Inactive)
REMARK    1  A    between atoms: C_1  and  C_2
REMARK    2  A    between atoms: C_2  and  O_3
REMARK    3  A    between atoms: O_3  and  C_4
REMARK    4  A    between atoms: C_7  and  N_8
REMARK    5  A    between atoms: C_12  and  N_13
REMARK    6  A    between atoms: C_17  and  C_19
REMARK                            x       y       z     vdW  Elec       q    Type
REMARK                         _______ _______ _______ _____ _____    ______ ____
ROOT
ATOM      1  N   UNL     1       1.145   9.179  19.990  0.00  0.00    +0.000 N 
ATOM      2  C   UNL     1       1.056   9.551  21.314  0.00  0.00    +0.000 C 
ATOM      3  O   UNL     1       1.466   8.993  22.326  0.00  0.00    +0.000 OA
ATOM      4  C   UNL     1       0.259  10.815  21.391  0.00  0.00    +0.000 C 
ATOM      5  C   UNL     1       0.387  11.405  19.989  0.00  0.00    +0.000 C 
ATOM      6  C   UNL     1       0.513  10.110  19.191  0.00  0.00    +0.000 C 
ATOM      7  O   UNL     1       0.093   9.979  18.047  0.00  0.00    +0.000 OA
ENDROOT
BRANCH   5   8
ATOM      8  N   UNL     1       1.600  12.223  19.731  0.00  0.00    +0.000 NA
ATOM      9  C   UNL     1       1.554  12.951  18.433  0.00  0.00    +0.000 C 
ATOM     10  C   UNL     1       0.880  14.357  18.394  0.00  0.00    +0.000 C 
ATOM     11  N   UNL     1       1.037  15.129  19.630  0.00  0.00    +0.000 N 
ATOM     12  C   UNL     1       1.121  16.523  19.731  0.00  0.00    +0.000 C 
ATOM     13  O   UNL     1       1.476  17.047  20.788  0.00  0.00    +0.000 OA
ATOM     14  C   UNL     1       0.974  14.356  20.864  0.00  0.00    +0.000 C 
ATOM     15  C   UNL     1       1.947  13.182  20.794  0.00  0.00    +0.000 C 
BRANCH  12  16
ATOM     16  C   UNL     1       0.767  17.342  18.587  0.00  0.00    +0.000 A 
ATOM     17  C   UNL     1      -0.478  17.645  18.066  0.00  0.00    +0.000 A 
ATOM     18  C   UNL     1      -0.259  18.343  16.856  0.00  0.00    +0.000 A 
ATOM     19  C   UNL     1       1.104  18.427  16.707  0.00  0.00    +0.000 A 
ATOM     20  O   UNL     1       1.737  17.832  17.750  0.00  0.00    +0.000 OA
ENDBRANCH  12  16
ENDBRANCH   5   8
BRANCH   1  24
ATOM     21  C   UNL     1       3.400   5.802  18.702  0.00  0.00    +0.000 A 
ATOM     22  C   UNL     1       2.624   5.748  19.857  0.00  0.00    +0.000 A 
ATOM     23  C   UNL     1       1.847   6.840  20.251  0.00  0.00    +0.000 A 
ATOM     24  C   UNL     1       1.821   8.024  19.507  0.00  0.00    +0.000 A 
ATOM     25  C   UNL     1       2.559   8.049  18.313  0.00  0.00    +0.000 A 
ATOM     26  C   UNL     1       3.346   6.953  17.920  0.00  0.00    +0.000 A 
BRANCH  21  27
ATOM     27  O   UNL     1       4.238   4.807  18.269  0.00  0.00    +0.000 OA
BRANCH  27  29
ATOM     28  C   UNL     1       6.596   5.295  18.495  0.00  0.00    +0.000 C 
ATOM     29  C   UNL     1       5.391   4.594  19.087  0.00  0.00    +0.000 C 
ENDBRANCH  27  29
ENDBRANCH  21  27
ENDBRANCH   1  24
TORSDOF 5
ENDMDL
MODEL 5
REMARK VINA RESULT:      -6.7      4.412     10.355
REMARK  Name = 
REMARK  6 active torsions:
REMARK  status: ('A' for Active; 'I' for Inactive)
REMARK    1  A    between atoms: C_1  and  C_2
REMARK    2  A    between atoms: C_2  and  O_3
REMARK    3  A    between atoms: O_3  and  C_4
REMARK    4  A    between atoms: C_7  and  N_8
REMARK    5  A    between atoms: C_12  and  N_13
REMARK    6  A    between atoms: C_17  and  C_19
REMARK                            x       y       z     vdW  Elec       q    Type
REMARK                         _______ _______ _______ _____ _____    ______ ____
ROOT
ATOM      1  N   UNL     1       0.227  10.746  19.034  0.00  0.00    +0.000 N 
ATOM      2  C   UNL     1      -0.978  10.824  18.369  0.00  0.00    +0.000 C 
ATOM      3  O   UNL     1      -1.542  10.007  17.649  0.00  0.00    +0.000 OA
ATOM      4  C   UNL     1      -1.550  12.188  18.595  0.00  0.00    +0.000 C 
ATOM      5  C   UNL     1      -0.854  12.661  19.869  0.00  0.00    +0.000 C 
ATOM      6  C   UNL     1       0.474  11.925  19.708  0.00  0.00    +0.000 C 
ATOM      7  O   UNL     1       1.542  12.363  20.119  0.00  0.00    +0.000 OA
ENDROOT
BRANCH   5   8
ATOM      8  N   UNL     1      -1.468  12.226  21.150  0.00  0.00    +0.000 NA
ATOM      9  C   UNL     1      -0.658  12.591  22.345  0.00  0.00    +0.000 C 
ATOM     10  C   UNL     1      -0.873  13.996  22.986  0.00  0.00    +0.000 C 
ATOM     11  N   UNL     1      -2.249  14.494  22.887  0.00  0.00    +0.000 N 
ATOM     12  C   UNL     1      -2.897  15.326  23.808  0.00  0.00    +0.000 C 
ATOM     13  O   UNL     1      -4.115  15.496  23.740  0.00  0.00    +0.000 OA
ATOM     14  C   UNL     1      -2.943  14.177  21.646  0.00  0.00    +0.000 C 
ATOM     15  C   UNL     1      -2.853  12.679  21.366  0.00  0.00    +0.000 C 
BRANCH  12  16
ATOM     16  C   UNL     1      -2.117  16.001  24.830  0.00  0.00    +0.000 A 
ATOM     17  C   UNL     1      -1.498  17.237  24.799  0.00  0.00    +0.000 A 
ATOM     18  C   UNL     1      -0.737  17.347  25.985  0.00  0.00    +0.000 A 
ATOM     19  C   UNL     1      -0.934  16.174  26.672  0.00  0.00    +0.000 A 
ATOM     20  O   UNL     1      -1.772  15.353  25.988  0.00  0.00    +0.000 OA
ENDBRANCH  12  16
ENDBRANCH   5   8
BRANCH   1  24
ATOM     21  C   UNL     1       2.557   7.182  18.986  0.00  0.00    +0.000 A 
ATOM     22  C   UNL     1       2.528   8.033  17.885  0.00  0.00    +0.000 A 
ATOM     23  C   UNL     1       1.802   9.226  17.921  0.00  0.00    +0.000 A 
ATOM     24  C   UNL     1       1.079   9.607  19.055  0.00  0.00    +0.000 A 
ATOM     25  C   UNL     1       1.162   8.772  20.181  0.00  0.00    +0.000 A 
ATOM     26  C   UNL     1       1.887   7.569  20.143  0.00  0.00    +0.000 A 
BRANCH  21  27
ATOM     27  O   UNL     1       3.190   5.965  19.024  0.00  0.00    +0.000 OA
BRANCH  27  29
ATOM     28  C   UNL     1       1.911   4.366  17.738  0.00  0.00    +0.000 C 
ATOM     29  C   UNL     1       3.153   5.230  17.798  0.00  0.00    +0.000 C 
ENDBRANCH  27  29
ENDBRANCH  21  27
ENDBRANCH   1  24
TORSDOF 5
ENDMDL
MODEL 6
REMARK VINA RESULT:      -6.7      4.010      9.478
REMARK  Name = 
REMARK  6 active torsions:
REMARK  status: ('A' for Active; 'I' for Inactive)
REMARK    1  A    between atoms: C_1  and  C_2
REMARK    2  A    between atoms: C_2  and  O_3
REMARK    3  A    between atoms: O_3  and  C_4
REMARK    4  A    between atoms: C_7  and  N_8
REMARK    5  A    between atoms: C_12  and  N_13
REMARK    6  A    between atoms: C_17  and  C_19
REMARK                            x       y       z     vdW  Elec       q    Type
REMARK                         _______ _______ _______ _____ _____    ______ ____
ROOT
ATOM      1  N   UNL     1       1.141   9.104  20.048  0.00  0.00    +0.000 N 
ATOM      2  C   UNL     1       1.064   9.489  21.369  0.00  0.00    +0.000 C 
ATOM      3  O   UNL     1       1.491   8.946  22.382  0.00  0.00    +0.000 OA
ATOM      4  C   UNL     1       0.256  10.746  21.442  0.00  0.00    +0.000 C 
ATOM      5  C   UNL     1       0.362  11.322  20.032  0.00  0.00    +0.000 C 
ATOM      6  C   UNL     1       0.491  10.020  19.247  0.00  0.00    +0.000 C 
ATOM      7  O   UNL     1       0.059   9.873  18.109  0.00  0.00    +0.000 OA
ENDROOT
BRANCH   5   8
ATOM      8  N   UNL     1       1.564  12.148  19.751  0.00  0.00    +0.000 NA
ATOM      9  C   UNL     1       1.517  12.825  18.426  0.00  0.00    +0.000 C 
ATOM     10  C   UNL     1       0.822  14.217  18.326  0.00  0.00    +0.000 C 
ATOM     11  N   UNL     1       0.956  15.039  19.533  0.00  0.00    +0.000 N 
ATOM     12  C   UNL     1       1.018  16.437  19.580  0.00  0.00    +0.000 C 
ATOM     13  O   UNL     1       1.356  17.008  20.618  0.00  0.00    +0.000 OA
ATOM     14  C   UNL     1       0.895  14.315  20.795  0.00  0.00    +0.000 C 
ATOM     15  C   UNL     1       1.887  13.154  20.779  0.00  0.00    +0.000 C 
BRANCH  12  16
ATOM     16  C   UNL     1       0.660  17.206  18.401  0.00  0.00    +0.000 A 
ATOM     17  C   UNL     1       1.472  17.799  17.452  0.00  0.00    +0.000 A 
ATOM     18  C   UNL     1       0.631  18.560  16.609  0.00  0.00    +0.000 A 
ATOM     19  C   UNL     1      -0.644  18.389  17.089  0.00  0.00    +0.000 A 
ATOM     20  O   UNL     1      -0.642  17.566  18.169  0.00  0.00    +0.000 OA
ENDBRANCH  12  16
ENDBRANCH   5   8
BRANCH   1  24
ATOM     21  C   UNL     1       3.412   5.733  18.772  0.00  0.00    +0.000 A 
ATOM     22  C   UNL     1       2.642   5.681  19.931  0.00  0.00    +0.000 A 
ATOM     23  C   UNL     1       1.860   6.771  20.322  0.00  0.00    +0.000 A 
ATOM     24  C   UNL     1       1.822   7.949  19.570  0.00  0.00    +0.000 A 
ATOM     25  C   UNL     1       2.555   7.972  18.372  0.00  0.00    +0.000 A 
ATOM     26  C   UNL     1       3.347   6.878  17.983  0.00  0.00    +0.000 A 
BRANCH  21  27
ATOM     27  O   UNL     1       4.255   4.740  18.342  0.00  0.00    +0.000 OA
BRANCH  27  29
ATOM     28  C   UNL     1       5.072   4.164  16.141  0.00  0.00    +0.000 C 
ATOM     29  C   UNL     1       3.895   4.145  17.093  0.00  0.00    +0.000 C 
ENDBRANCH  27  29
ENDBRANCH  21  27
ENDBRANCH   1  24
TORSDOF 5
ENDMDL
MODEL 7
REMARK VINA RESULT:      -6.7      3.982      9.412
REMARK  Name = 
REMARK  6 active torsions:
REMARK  status: ('A' for Active; 'I' for Inactive)
REMARK    1  A    between atoms: C_1  and  C_2
REMARK    2  A    between atoms: C_2  and  O_3
REMARK    3  A    between atoms: O_3  and  C_4
REMARK    4  A    between atoms: C_7  and  N_8
REMARK    5  A    between atoms: C_12  and  N_13
REMARK    6  A    between atoms: C_17  and  C_19
REMARK                            x       y       z     vdW  Elec       q    Type
REMARK                         _______ _______ _______ _____ _____    ______ ____
ROOT
ATOM      1  N   UNL     1       1.066   9.024  19.989  0.00  0.00    +0.000 N 
ATOM      2  C   UNL     1       0.764   9.386  21.284  0.00  0.00    +0.000 C 
ATOM      3  O   UNL     1       1.045   8.842  22.347  0.00  0.00    +0.000 OA
ATOM      4  C   UNL     1      -0.095  10.610  21.240  0.00  0.00    +0.000 C 
ATOM      5  C   UNL     1       0.211  11.212  19.870  0.00  0.00    +0.000 C 
ATOM      6  C   UNL     1       0.515   9.927  19.103  0.00  0.00    +0.000 C 
ATOM      7  O   UNL     1       0.276   9.782  17.910  0.00  0.00    +0.000 OA
ENDROOT
BRANCH   5   8
ATOM      8  N   UNL     1       1.409  12.087  19.793  0.00  0.00    +0.000 NA
ATOM      9  C   UNL     1       1.535  12.799  18.492  0.00  0.00    +0.000 C 
ATOM     10  C   UNL     1       0.809  14.169  18.321  0.00  0.00    +0.000 C 
ATOM     11  N   UNL     1       0.729  14.960  19.553  0.00  0.00    +0.000 N 
ATOM     12  C   UNL     1       0.729  16.357  19.642  0.00  0.00    +0.000 C 
ATOM     13  O   UNL     1       0.886  16.909  20.732  0.00  0.00    +0.000 OA
ATOM     14  C   UNL     1       0.509  14.197  20.775  0.00  0.00    +0.000 C 
ATOM     15  C   UNL     1       1.536  13.073  20.880  0.00  0.00    +0.000 C 
BRANCH  12  16
ATOM     16  C   UNL     1       0.523  17.147  18.442  0.00  0.00    +0.000 A 
ATOM     17  C   UNL     1       1.449  17.723  17.591  0.00  0.00    +0.000 A 
ATOM     18  C   UNL     1       0.725  18.517  16.672  0.00  0.00    +0.000 A 
ATOM     19  C   UNL     1      -0.598  18.381  17.013  0.00  0.00    +0.000 A 
ATOM     20  O   UNL     1      -0.736  17.550  18.077  0.00  0.00    +0.000 OA
ENDBRANCH  12  16
ENDBRANCH   5   8
BRANCH   1  24
ATOM     21  C   UNL     1       3.214   5.575  18.712  0.00  0.00    +0.000 A 
ATOM     22  C   UNL     1       3.246   6.754  17.972  0.00  0.00    +0.000 A 
ATOM     23  C   UNL     1       2.581   7.898  18.418  0.00  0.00    +0.000 A 
ATOM     24  C   UNL     1       1.859   7.904  19.615  0.00  0.00    +0.000 A 
ATOM     25  C   UNL     1       1.881   6.729  20.384  0.00  0.00    +0.000 A 
ATOM     26  C   UNL     1       2.544   5.575  19.933  0.00  0.00    +0.000 A 
BRANCH  21  27
ATOM     27  O   UNL     1       3.784   4.388  18.327  0.00  0.00    +0.000 OA
BRANCH  27  29
ATOM     28  C   UNL     1       2.413   2.502  17.686  0.00  0.00    +0.000 C 
ATOM     29  C   UNL     1       3.123   3.217  18.816  0.00  0.00    +0.000 C 
ENDBRANCH  27  29
ENDBRANCH  21  27
ENDBRANCH   1  24
TORSDOF 5
ENDMDL
MODEL 8
REMARK VINA RESULT:      -6.5      4.365     10.648
REMARK  Name = 
REMARK  6 active torsions:
REMARK  status: ('A' for Active; 'I' for Inactive)
REMARK    1  A    between atoms: C_1  and  C_2
REMARK    2  A    between atoms: C_2  and  O_3
REMARK    3  A    between atoms: O_3  and  C_4
REMARK    4  A    between atoms: C_7  and  N_8
REMARK    5  A    between atoms: C_12  and  N_13
REMARK    6  A    between atoms: C_17  and  C_19
REMARK                            x       y       z     vdW  Elec       q    Type
REMARK                         _______ _______ _______ _____ _____    ______ ____
ROOT
ATOM      1  N   UNL     1       0.268  10.801  18.889  0.00  0.00    +0.000 N 
ATOM      2  C   UNL     1      -0.954  10.832  18.254  0.00  0.00    +0.000 C 
ATOM      3  O   UNL     1      -1.545   9.961  17.623  0.00  0.00    +0.000 OA
ATOM      4  C   UNL     1      -1.510  12.216  18.374  0.00  0.00    +0.000 C 
ATOM      5  C   UNL     1      -0.775  12.791  19.583  0.00  0.00    +0.000 C 
ATOM      6  C   UNL     1       0.542  12.031  19.451  0.00  0.00    +0.000 C 
ATOM      7  O   UNL     1       1.625  12.494  19.792  0.00  0.00    +0.000 OA
ENDROOT
BRANCH   5   8
ATOM      8  N   UNL     1      -1.356  12.476  20.913  0.00  0.00    +0.000 NA
ATOM      9  C   UNL     1      -0.741  13.254  22.024  0.00  0.00    +0.000 C 
ATOM     10  C   UNL     1      -1.327  14.660  22.358  0.00  0.00    +0.000 C 
ATOM     11  N   UNL     1      -2.771  14.774  22.132  0.00  0.00    +0.000 N 
ATOM     12  C   UNL     1      -3.660  15.584  22.850  0.00  0.00    +0.000 C 
ATOM     13  O   UNL     1      -4.876  15.431  22.724  0.00  0.00    +0.000 OA
ATOM     14  C   UNL     1      -3.282  14.062  20.969  0.00  0.00    +0.000 C 
ATOM     15  C   UNL     1      -2.821  12.607  21.004  0.00  0.00    +0.000 C 
BRANCH  12  16
ATOM     16  C   UNL     1      -3.136  16.615  23.727  0.00  0.00    +0.000 A 
ATOM     17  C   UNL     1      -3.096  16.665  25.108  0.00  0.00    +0.000 A 
ATOM     18  C   UNL     1      -2.633  17.954  25.460  0.00  0.00    +0.000 A 
ATOM     19  C   UNL     1      -2.417  18.616  24.276  0.00  0.00    +0.000 A 
ATOM     20  O   UNL     1      -2.710  17.815  23.219  0.00  0.00    +0.000 OA
ENDBRANCH  12  16
ENDBRANCH   5   8
BRANCH   1  24
ATOM     21  C   UNL     1       2.580   7.228  19.063  0.00  0.00    +0.000 A 
ATOM     22  C   UNL     1       2.612   8.048  17.938  0.00  0.00    +0.000 A 
ATOM     23  C   UNL     1       1.890   9.244  17.902  0.00  0.00    +0.000 A 
ATOM     24  C   UNL     1       1.112   9.660  18.986  0.00  0.00    +0.000 A 
ATOM     25  C   UNL     1       1.132   8.857  20.138  0.00  0.00    +0.000 A 
ATOM     26  C   UNL     1       1.852   7.650  20.172  0.00  0.00    +0.000 A 
BRANCH  21  27
ATOM     27  O   UNL     1       3.203   6.011  19.167  0.00  0.00    +0.000 OA
BRANCH  27  29
ATOM     28  C   UNL     1       1.820   4.487  17.897  0.00  0.00    +0.000 C 
ATOM     29  C   UNL     1       3.150   5.205  17.987  0.00  0.00    +0.000 C 
ENDBRANCH  27  29
ENDBRANCH  21  27
ENDBRANCH   1  24
TORSDOF 5
ENDMDL
MODEL 9
REMARK VINA RESULT:      -6.4      4.373      9.573
REMARK  Name = 
REMARK  6 active torsions:
REMARK  status: ('A' for Active; 'I' for Inactive)
REMARK    1  A    between atoms: C_1  and  C_2
REMARK    2  A    between atoms: C_2  and  O_3
REMARK    3  A    between atoms: O_3  and  C_4
REMARK    4  A    between atoms: C_7  and  N_8
REMARK    5  A    between atoms: C_12  and  N_13
REMARK    6  A    between atoms: C_17  and  C_19
REMARK                            x       y       z     vdW  Elec       q    Type
REMARK                         _______ _______ _______ _____ _____    ______ ____
ROOT
ATOM      1  N   UNL     1       0.363  10.107  20.592  0.00  0.00    +0.000 N 
ATOM      2  C   UNL     1       0.092  10.162  21.942  0.00  0.00    +0.000 C 
ATOM      3  O   UNL     1       0.415   9.402  22.849  0.00  0.00    +0.000 OA
ATOM      4  C   UNL     1      -0.791  11.343  22.194  0.00  0.00    +0.000 C 
ATOM      5  C   UNL     1      -0.537  12.243  20.988  0.00  0.00    +0.000 C 
ATOM      6  C   UNL     1      -0.230  11.171  19.945  0.00  0.00    +0.000 C 
ATOM      7  O   UNL     1      -0.501  11.291  18.756  0.00  0.00    +0.000 OA
ENDROOT
BRANCH   5   8
ATOM      8  N   UNL     1       0.641  13.144  21.080  0.00  0.00    +0.000 NA
ATOM      9  C   UNL     1       1.108  13.640  19.756  0.00  0.00    +0.000 C 
ATOM     10  C   UNL     1       0.457  14.931  19.175  0.00  0.00    +0.000 C 
ATOM     11  N   UNL     1       0.056  15.908  20.192  0.00  0.00    +0.000 N 
ATOM     12  C   UNL     1       0.036  17.300  20.041  0.00  0.00    +0.000 C 
ATOM     13  O   UNL     1      -0.100  18.028  21.026  0.00  0.00    +0.000 OA
ATOM     14  C   UNL     1      -0.482  15.346  21.424  0.00  0.00    +0.000 C 
ATOM     15  C   UNL     1       0.478  14.298  21.981  0.00  0.00    +0.000 C 
BRANCH  12  16
ATOM     16  C   UNL     1       0.156  17.874  18.714  0.00  0.00    +0.000 A 
ATOM     17  C   UNL     1      -0.821  18.134  17.770  0.00  0.00    +0.000 A 
ATOM     18  C   UNL     1      -0.156  18.540  16.590  0.00  0.00    +0.000 A 
ATOM     19  C   UNL     1       1.186  18.507  16.880  0.00  0.00    +0.000 A 
ATOM     20  O   UNL     1       1.389  18.112  18.163  0.00  0.00    +0.000 OA
ENDBRANCH  12  16
ENDBRANCH   5   8
BRANCH   1  24
ATOM     21  C   UNL     1       2.523   7.019  18.607  0.00  0.00    +0.000 A 
ATOM     22  C   UNL     1       2.150   8.179  17.934  0.00  0.00    +0.000 A 
ATOM     23  C   UNL     1       1.485   9.212  18.600  0.00  0.00    +0.000 A 
ATOM     24  C   UNL     1       1.167   9.119  19.958  0.00  0.00    +0.000 A 
ATOM     25  C   UNL     1       1.599   7.972  20.643  0.00  0.00    +0.000 A 
ATOM     26  C   UNL     1       2.262   6.930  19.972  0.00  0.00    +0.000 A 
BRANCH  21  27
ATOM     27  O   UNL     1       3.124   5.930  18.027  0.00  0.00    +0.000 OA
BRANCH  27  29
ATOM     28  C   UNL     1       1.420   4.246  17.702  0.00  0.00    +0.000 C 
ATOM     29  C   UNL     1       2.645   4.664  18.487  0.00  0.00    +0.000 C 
ENDBRANCH  27  29
ENDBRANCH  21  27
ENDBRANCH   1  24
TORSDOF 5
ENDMDL
