MODEL 1
REMARK VINA RESULT:      -6.7      0.000      0.000
REMARK  Name = 
REMARK  12 active torsions:
REMARK  status: ('A' for Active; 'I' for Inactive)
REMARK    1  A    between atoms: C_1  and  C_2
REMARK    2  A    between atoms: C_2  and  O_3
REMARK    3  A    between atoms: O_3  and  C_4
REMARK    4  A    between atoms: C_4  and  C_6
REMARK    5  A    between atoms: C_6  and  C_7
REMARK    6  A    between atoms: C_7  and  C_8
REMARK    7  A    between atoms: C_8  and  C_9
REMARK    8  A    between atoms: C_9  and  C_10
REMARK    9  A    between atoms: C_10  and  O_12
REMARK   10  A    between atoms: N_13  and  N_14
REMARK   11  A    between atoms: N_14  and  C_15
REMARK   12  A    between atoms: C_18  and  C_19
REMARK                            x       y       z     vdW  Elec       q    Type
REMARK                         _______ _______ _______ _____ _____    ______ ____
ROOT
ATOM      1  C   UNL     1       4.089   3.537  17.714  0.00  0.00    +0.000 C 
ATOM      2  N   UNL     1       4.976   3.671  16.770  0.00  0.00    +0.000 NA
ENDROOT
BRANCH   1   3
ATOM      3  C   UNL     1       4.356   3.683  19.209  0.00  0.00    +0.000 C 
ATOM      4  O   UNL     1       5.078   2.910  19.814  0.00  0.00    +0.000 OA
BRANCH   3   5
ATOM      5  O   UNL     1       3.597   4.671  19.729  0.00  0.00    +0.000 OA
BRANCH   5   7
ATOM      6  C   UNL     1       2.644   6.794  19.189  0.00  0.00    +0.000 C 
ATOM      7  C   UNL     1       3.934   6.009  19.333  0.00  0.00    +0.000 C 
ENDBRANCH   5   7
ENDBRANCH   3   5
ENDBRANCH   1   3
BRANCH   2   8
ATOM      8  N   UNL     1       6.267   3.894  17.097  0.00  0.00    +0.000 N 
ATOM      9  H   UNL     1       6.843   3.157  17.507  0.00  0.00    +0.000 HD
BRANCH   8  10
ATOM     10  C   UNL     1       6.696   5.201  17.391  0.00  0.00    +0.000 A 
ATOM     11  C   UNL     1       6.384   6.301  16.585  0.00  0.00    +0.000 A 
ATOM     12  C   UNL     1       6.922   7.565  16.850  0.00  0.00    +0.000 A 
ATOM     13  C   UNL     1       7.798   7.750  17.923  0.00  0.00    +0.000 A 
ATOM     14  C   UNL     1       8.412   9.089  18.202  0.00  0.00    +0.000 C 
ATOM     15  C   UNL     1       8.115   6.655  18.733  0.00  0.00    +0.000 A 
ATOM     16  C   UNL     1       7.573   5.396  18.466  0.00  0.00    +0.000 A 
ENDBRANCH   8  10
ENDBRANCH   2   8
BRANCH   1  17
ATOM     17  C   UNL     1       2.654   3.177  17.364  0.00  0.00    +0.000 C 
BRANCH  17  18
ATOM     18  C   UNL     1       2.015   2.068  18.201  0.00  0.00    +0.000 C 
BRANCH  18  19
ATOM     19  C   UNL     1       0.738   2.489  18.934  0.00  0.00    +0.000 C 
BRANCH  19  20
ATOM     20  C   UNL     1       1.052   2.997  20.322  0.00  0.00    +0.000 C 
ATOM     21  O   UNL     1       1.472   2.305  21.237  0.00  0.00    +0.000 OA
BRANCH  20  22
ATOM     22  O   UNL     1       0.783   4.314  20.481  0.00  0.00    +0.000 OA
ATOM     23  H   UNL     1       1.385   4.772  21.100  0.00  0.00    +0.000 HD
ENDBRANCH  20  22
ENDBRANCH  19  20
ENDBRANCH  18  19
ENDBRANCH  17  18
ENDBRANCH   1  17
TORSDOF 10
ENDMDL
MODEL 2
REMARK VINA RESULT:      -6.7      3.297      7.109
REMARK  Name = 
REMARK  12 active torsions:
REMARK  status: ('A' for Active; 'I' for Inactive)
REMARK    1  A    between atoms: C_1  and  C_2
REMARK    2  A    between atoms: C_2  and  O_3
REMARK    3  A    between atoms: O_3  and  C_4
REMARK    4  A    between atoms: C_4  and  C_6
REMARK    5  A    between atoms: C_6  and  C_7
REMARK    6  A    between atoms: C_7  and  C_8
REMARK    7  A    between atoms: C_8  and  C_9
REMARK    8  A    between atoms: C_9  and  C_10
REMARK    9  A    between atoms: C_10  and  O_12
REMARK   10  A    between atoms: N_13  and  N_14
REMARK   11  A    between atoms: N_14  and  C_15
REMARK   12  A    between atoms: C_18  and  C_19
REMARK                            x       y       z     vdW  Elec       q    Type
REMARK                         _______ _______ _______ _____ _____    ______ ____
ROOT
ATOM      1  C   UNL     1       6.909   5.830  17.877  0.00  0.00    +0.000 C 
ATOM      2  N   UNL     1       6.024   5.746  18.828  0.00  0.00    +0.000 NA
ENDROOT
BRANCH   1   3
ATOM      3  C   UNL     1       7.685   4.660  17.281  0.00  0.00    +0.000 C 
ATOM      4  O   UNL     1       8.502   4.031  17.931  0.00  0.00    +0.000 OA
BRANCH   3   5
ATOM      5  O   UNL     1       7.422   4.542  15.963  0.00  0.00    +0.000 OA
BRANCH   5   7
ATOM      6  C   UNL     1       5.529   4.694  14.513  0.00  0.00    +0.000 C 
ATOM      7  C   UNL     1       6.192   3.890  15.615  0.00  0.00    +0.000 C 
ENDBRANCH   5   7
ENDBRANCH   3   5
ENDBRANCH   1   3
BRANCH   2   8
ATOM      8  N   UNL     1       5.787   4.551  19.412  0.00  0.00    +0.000 N 
ATOM      9  H   UNL     1       6.539   3.875  19.557  0.00  0.00    +0.000 HD
BRANCH   8  10
ATOM     10  C   UNL     1       4.500   3.986  19.350  0.00  0.00    +0.000 A 
ATOM     11  C   UNL     1       4.270   2.610  19.465  0.00  0.00    +0.000 A 
ATOM     12  C   UNL     1       2.989   2.077  19.286  0.00  0.00    +0.000 A 
ATOM     13  C   UNL     1       1.913   2.911  18.974  0.00  0.00    +0.000 A 
ATOM     14  C   UNL     1       0.540   2.354  18.745  0.00  0.00    +0.000 C 
ATOM     15  C   UNL     1       2.135   4.287  18.856  0.00  0.00    +0.000 A 
ATOM     16  C   UNL     1       3.415   4.815  19.039  0.00  0.00    +0.000 A 
ENDBRANCH   8  10
ENDBRANCH   2   8
BRANCH   1  17
ATOM     17  C   UNL     1       7.264   7.186  17.287  0.00  0.00    +0.000 C 
BRANCH  17  18
ATOM     18  C   UNL     1       8.147   8.086  18.151  0.00  0.00    +0.000 C 
BRANCH  18  19
ATOM     19  C   UNL     1       8.165   9.555  17.717  0.00  0.00    +0.000 C 
BRANCH  19  20
ATOM     20  C   UNL     1       9.090  10.368  18.592  0.00  0.00    +0.000 C 
ATOM     21  O   UNL     1       9.438  10.051  19.719  0.00  0.00    +0.000 OA
BRANCH  20  22
ATOM     22  O   UNL     1       9.480  11.531  18.019  0.00  0.00    +0.000 OA
ATOM     23  H   UNL     1       9.043  11.722  17.166  0.00  0.00    +0.000 HD
ENDBRANCH  20  22
ENDBRANCH  19  20
ENDBRANCH  18  19
ENDBRANCH  17  18
ENDBRANCH   1  17
TORSDOF 10
ENDMDL
MODEL 3
REMARK VINA RESULT:      -6.7      3.437      7.151
REMARK  Name = 
REMARK  12 active torsions:
REMARK  status: ('A' for Active; 'I' for Inactive)
REMARK    1  A    between atoms: C_1  and  C_2
REMARK    2  A    between atoms: C_2  and  O_3
REMARK    3  A    between atoms: O_3  and  C_4
REMARK    4  A    between atoms: C_4  and  C_6
REMARK    5  A    between atoms: C_6  and  C_7
REMARK    6  A    between atoms: C_7  and  C_8
REMARK    7  A    between atoms: C_8  and  C_9
REMARK    8  A    between atoms: C_9  and  C_10
REMARK    9  A    between atoms: C_10  and  O_12
REMARK   10  A    between atoms: N_13  and  N_14
REMARK   11  A    between atoms: N_14  and  C_15
REMARK   12  A    between atoms: C_18  and  C_19
REMARK                            x       y       z     vdW  Elec       q    Type
REMARK                         _______ _______ _______ _____ _____    ______ ____
ROOT
ATOM      1  C   UNL     1       6.904   6.210  17.692  0.00  0.00    +0.000 C 
ATOM      2  N   UNL     1       6.150   5.988  18.730  0.00  0.00    +0.000 NA
ENDROOT
BRANCH   1   3
ATOM      3  C   UNL     1       7.519   5.139  16.796  0.00  0.00    +0.000 C 
ATOM      4  O   UNL     1       8.109   4.176  17.254  0.00  0.00    +0.000 OA
BRANCH   3   5
ATOM      5  O   UNL     1       7.414   5.493  15.498  0.00  0.00    +0.000 OA
BRANCH   5   7
ATOM      6  C   UNL     1       5.350   4.595  14.697  0.00  0.00    +0.000 C 
ATOM      7  C   UNL     1       6.863   4.509  14.611  0.00  0.00    +0.000 C 
ENDBRANCH   5   7
ENDBRANCH   3   5
ENDBRANCH   1   3
BRANCH   2   8
ATOM      8  N   UNL     1       5.919   4.717  19.124  0.00  0.00    +0.000 N 
ATOM      9  H   UNL     1       6.679   4.038  19.192  0.00  0.00    +0.000 HD
BRANCH   8  10
ATOM     10  C   UNL     1       4.645   4.149  18.937  0.00  0.00    +0.000 A 
ATOM     11  C   UNL     1       3.630   4.785  18.212  0.00  0.00    +0.000 A 
ATOM     12  C   UNL     1       2.344   4.240  18.143  0.00  0.00    +0.000 A 
ATOM     13  C   UNL     1       2.044   3.050  18.812  0.00  0.00    +0.000 A 
ATOM     14  C   UNL     1       0.662   2.469  18.778  0.00  0.00    +0.000 C 
ATOM     15  C   UNL     1       3.051   2.409  19.538  0.00  0.00    +0.000 A 
ATOM     16  C   UNL     1       4.336   2.957  19.602  0.00  0.00    +0.000 A 
ENDBRANCH   8  10
ENDBRANCH   2   8
BRANCH   1  17
ATOM     17  C   UNL     1       7.262   7.635  17.303  0.00  0.00    +0.000 C 
BRANCH  17  18
ATOM     18  C   UNL     1       8.196   8.379  18.257  0.00  0.00    +0.000 C 
BRANCH  18  19
ATOM     19  C   UNL     1       8.405   9.857  17.910  0.00  0.00    +0.000 C 
BRANCH  19  20
ATOM     20  C   UNL     1       9.380  10.506  18.864  0.00  0.00    +0.000 C 
ATOM     21  O   UNL     1       9.427  10.289  20.065  0.00  0.00    +0.000 OA
BRANCH  20  22
ATOM     22  O   UNL     1      10.197  11.402  18.262  0.00  0.00    +0.000 OA
ATOM     23  H   UNL     1      10.187  11.359  17.287  0.00  0.00    +0.000 HD
ENDBRANCH  20  22
ENDBRANCH  19  20
ENDBRANCH  18  19
ENDBRANCH  17  18
ENDBRANCH   1  17
TORSDOF 10
ENDMDL
MODEL 4
REMARK VINA RESULT:      -6.7      3.609      5.861
REMARK  Name = 
REMARK  12 active torsions:
REMARK  status: ('A' for Active; 'I' for Inactive)
REMARK    1  A    between atoms: C_1  and  C_2
REMARK    2  A    between atoms: C_2  and  O_3
REMARK    3  A    between atoms: O_3  and  C_4
REMARK    4  A    between atoms: C_4  and  C_6
REMARK    5  A    between atoms: C_6  and  C_7
REMARK    6  A    between atoms: C_7  and  C_8
REMARK    7  A    between atoms: C_8  and  C_9
REMARK    8  A    between atoms: C_9  and  C_10
REMARK    9  A    between atoms: C_10  and  O_12
REMARK   10  A    between atoms: N_13  and  N_14
REMARK   11  A    between atoms: N_14  and  C_15
REMARK   12  A    between atoms: C_18  and  C_19
REMARK                            x       y       z     vdW  Elec       q    Type
REMARK                         _______ _______ _______ _____ _____    ______ ____
ROOT
ATOM      1  C   UNL     1       6.400   4.461  16.532  0.00  0.00    +0.000 C 
ATOM      2  N   UNL     1       5.180   4.124  16.836  0.00  0.00    +0.000 NA
ENDROOT
BRANCH   1   3
ATOM      3  C   UNL     1       7.405   5.105  17.482  0.00  0.00    +0.000 C 
ATOM      4  O   UNL     1       7.927   4.481  18.389  0.00  0.00    +0.000 OA
BRANCH   3   5
ATOM      5  O   UNL     1       7.505   6.429  17.237  0.00  0.00    +0.000 OA
BRANCH   5   7
ATOM      6  C   UNL     1       8.061   8.677  17.825  0.00  0.00    +0.000 C 
ATOM      7  C   UNL     1       8.009   7.239  18.308  0.00  0.00    +0.000 C 
ENDBRANCH   5   7
ENDBRANCH   3   5
ENDBRANCH   1   3
BRANCH   2   8
ATOM      8  N   UNL     1       4.698   4.408  18.065  0.00  0.00    +0.000 N 
ATOM      9  H   UNL     1       4.592   3.679  18.773  0.00  0.00    +0.000 HD
BRANCH   8  10
ATOM     10  C   UNL     1       3.857   5.521  18.245  0.00  0.00    +0.000 A 
ATOM     11  C   UNL     1       3.878   6.633  17.395  0.00  0.00    +0.000 A 
ATOM     12  C   UNL     1       3.106   7.766  17.672  0.00  0.00    +0.000 A 
ATOM     13  C   UNL     1       2.305   7.814  18.816  0.00  0.00    +0.000 A 
ATOM     14  C   UNL     1       1.498   9.033  19.147  0.00  0.00    +0.000 C 
ATOM     15  C   UNL     1       2.278   6.708  19.670  0.00  0.00    +0.000 A 
ATOM     16  C   UNL     1       3.049   5.577  19.388  0.00  0.00    +0.000 A 
ENDBRANCH   8  10
ENDBRANCH   2   8
BRANCH   1  17
ATOM     17  C   UNL     1       6.919   4.248  15.119  0.00  0.00    +0.000 C 
BRANCH  17  18
ATOM     18  C   UNL     1       5.859   4.120  14.025  0.00  0.00    +0.000 C 
BRANCH  18  19
ATOM     19  C   UNL     1       6.410   3.693  12.661  0.00  0.00    +0.000 C 
BRANCH  19  20
ATOM     20  C   UNL     1       5.386   2.895  11.887  0.00  0.00    +0.000 C 
ATOM     21  O   UNL     1       4.274   3.300  11.584  0.00  0.00    +0.000 OA
BRANCH  20  22
ATOM     22  O   UNL     1       5.804   1.644  11.583  0.00  0.00    +0.000 OA
ATOM     23  H   UNL     1       5.081   0.998  11.472  0.00  0.00    +0.000 HD
ENDBRANCH  20  22
ENDBRANCH  19  20
ENDBRANCH  18  19
ENDBRANCH  17  18
ENDBRANCH   1  17
TORSDOF 10
ENDMDL
MODEL 5
REMARK VINA RESULT:      -6.6      3.529      6.366
REMARK  Name = 
REMARK  12 active torsions:
REMARK  status: ('A' for Active; 'I' for Inactive)
REMARK    1  A    between atoms: C_1  and  C_2
REMARK    2  A    between atoms: C_2  and  O_3
REMARK    3  A    between atoms: O_3  and  C_4
REMARK    4  A    between atoms: C_4  and  C_6
REMARK    5  A    between atoms: C_6  and  C_7
REMARK    6  A    between atoms: C_7  and  C_8
REMARK    7  A    between atoms: C_8  and  C_9
REMARK    8  A    between atoms: C_9  and  C_10
REMARK    9  A    between atoms: C_10  and  O_12
REMARK   10  A    between atoms: N_13  and  N_14
REMARK   11  A    between atoms: N_14  and  C_15
REMARK   12  A    between atoms: C_18  and  C_19
REMARK                            x       y       z     vdW  Elec       q    Type
REMARK                         _______ _______ _______ _____ _____    ______ ____
ROOT
ATOM      1  C   UNL     1       5.904   5.655  16.435  0.00  0.00    +0.000 C 
ATOM      2  N   UNL     1       4.701   5.886  16.875  0.00  0.00    +0.000 NA
ENDROOT
BRANCH   1   3
ATOM      3  C   UNL     1       7.164   5.584  17.292  0.00  0.00    +0.000 C 
ATOM      4  O   UNL     1       7.843   4.574  17.359  0.00  0.00    +0.000 OA
BRANCH   3   5
ATOM      5  O   UNL     1       7.308   6.716  18.013  0.00  0.00    +0.000 OA
BRANCH   5   7
ATOM      6  C   UNL     1       8.338   8.864  18.193  0.00  0.00    +0.000 C 
ATOM      7  C   UNL     1       7.600   7.911  17.273  0.00  0.00    +0.000 C 
ENDBRANCH   5   7
ENDBRANCH   3   5
ENDBRANCH   1   3
BRANCH   2   8
ATOM      8  N   UNL     1       4.513   6.158  18.185  0.00  0.00    +0.000 N 
ATOM      9  H   UNL     1       5.148   6.776  18.693  0.00  0.00    +0.000 HD
BRANCH   8  10
ATOM     10  C   UNL     1       3.820   5.240  18.995  0.00  0.00    +0.000 A 
ATOM     11  C   UNL     1       3.905   3.854  18.815  0.00  0.00    +0.000 A 
ATOM     12  C   UNL     1       3.115   2.980  19.569  0.00  0.00    +0.000 A 
ATOM     13  C   UNL     1       2.212   3.477  20.512  0.00  0.00    +0.000 A 
ATOM     14  C   UNL     1       1.332   2.558  21.304  0.00  0.00    +0.000 C 
ATOM     15  C   UNL     1       2.121   4.860  20.698  0.00  0.00    +0.000 A 
ATOM     16  C   UNL     1       2.914   5.729  19.944  0.00  0.00    +0.000 A 
ENDBRANCH   8  10
ENDBRANCH   2   8
BRANCH   1  17
ATOM     17  C   UNL     1       6.144   5.457  14.947  0.00  0.00    +0.000 C 
BRANCH  17  18
ATOM     18  C   UNL     1       5.708   4.111  14.368  0.00  0.00    +0.000 C 
BRANCH  18  19
ATOM     19  C   UNL     1       6.417   3.725  13.067  0.00  0.00    +0.000 C 
BRANCH  19  20
ATOM     20  C   UNL     1       5.479   3.001  12.130  0.00  0.00    +0.000 C 
ATOM     21  O   UNL     1       4.389   3.423  11.774  0.00  0.00    +0.000 OA
BRANCH  20  22
ATOM     22  O   UNL     1       5.945   1.792  11.738  0.00  0.00    +0.000 OA
ATOM     23  H   UNL     1       5.413   1.037  12.057  0.00  0.00    +0.000 HD
ENDBRANCH  20  22
ENDBRANCH  19  20
ENDBRANCH  18  19
ENDBRANCH  17  18
ENDBRANCH   1  17
TORSDOF 10
ENDMDL
MODEL 6
REMARK VINA RESULT:      -6.5      2.703      6.349
REMARK  Name = 
REMARK  12 active torsions:
REMARK  status: ('A' for Active; 'I' for Inactive)
REMARK    1  A    between atoms: C_1  and  C_2
REMARK    2  A    between atoms: C_2  and  O_3
REMARK    3  A    between atoms: O_3  and  C_4
REMARK    4  A    between atoms: C_4  and  C_6
REMARK    5  A    between atoms: C_6  and  C_7
REMARK    6  A    between atoms: C_7  and  C_8
REMARK    7  A    between atoms: C_8  and  C_9
REMARK    8  A    between atoms: C_9  and  C_10
REMARK    9  A    between atoms: C_10  and  O_12
REMARK   10  A    between atoms: N_13  and  N_14
REMARK   11  A    between atoms: N_14  and  C_15
REMARK   12  A    between atoms: C_18  and  C_19
REMARK                            x       y       z     vdW  Elec       q    Type
REMARK                         _______ _______ _______ _____ _____    ______ ____
ROOT
ATOM      1  C   UNL     1       5.589   5.523  16.153  0.00  0.00    +0.000 C 
ATOM      2  N   UNL     1       4.471   5.334  16.793  0.00  0.00    +0.000 NA
ENDROOT
BRANCH   1   3
ATOM      3  C   UNL     1       6.342   4.468  15.348  0.00  0.00    +0.000 C 
ATOM      4  O   UNL     1       7.501   4.181  15.588  0.00  0.00    +0.000 OA
BRANCH   3   5
ATOM      5  O   UNL     1       5.589   4.038  14.314  0.00  0.00    +0.000 OA
BRANCH   5   7
ATOM      6  C   UNL     1       5.270   3.288  12.068  0.00  0.00    +0.000 C 
ATOM      7  C   UNL     1       6.286   3.762  13.090  0.00  0.00    +0.000 C 
ENDBRANCH   5   7
ENDBRANCH   3   5
ENDBRANCH   1   3
BRANCH   2   8
ATOM      8  N   UNL     1       3.928   4.097  16.829  0.00  0.00    +0.000 N 
ATOM      9  H   UNL     1       3.576   3.649  15.981  0.00  0.00    +0.000 HD
BRANCH   8  10
ATOM     10  C   UNL     1       3.348   3.625  18.020  0.00  0.00    +0.000 A 
ATOM     11  C   UNL     1       2.527   2.492  18.067  0.00  0.00    +0.000 A 
ATOM     12  C   UNL     1       1.880   2.119  19.250  0.00  0.00    +0.000 A 
ATOM     13  C   UNL     1       2.032   2.882  20.410  0.00  0.00    +0.000 A 
ATOM     14  C   UNL     1       1.320   2.518  21.678  0.00  0.00    +0.000 C 
ATOM     15  C   UNL     1       2.851   4.015  20.372  0.00  0.00    +0.000 A 
ATOM     16  C   UNL     1       3.497   4.382  19.188  0.00  0.00    +0.000 A 
ENDBRANCH   8  10
ENDBRANCH   2   8
BRANCH   1  17
ATOM     17  C   UNL     1       6.268   6.883  16.196  0.00  0.00    +0.000 C 
BRANCH  17  18
ATOM     18  C   UNL     1       6.595   7.429  17.586  0.00  0.00    +0.000 C 
BRANCH  18  19
ATOM     19  C   UNL     1       7.873   6.854  18.204  0.00  0.00    +0.000 C 
BRANCH  19  20
ATOM     20  C   UNL     1       7.592   5.557  18.925  0.00  0.00    +0.000 C 
ATOM     21  O   UNL     1       6.952   5.463  19.962  0.00  0.00    +0.000 OA
BRANCH  20  22
ATOM     22  O   UNL     1       8.157   4.481  18.328  0.00  0.00    +0.000 OA
ATOM     23  H   UNL     1       9.133   4.510  18.296  0.00  0.00    +0.000 HD
ENDBRANCH  20  22
ENDBRANCH  19  20
ENDBRANCH  18  19
ENDBRANCH  17  18
ENDBRANCH   1  17
TORSDOF 10
ENDMDL
MODEL 7
REMARK VINA RESULT:      -6.5      3.175      6.117
REMARK  Name = 
REMARK  12 active torsions:
REMARK  status: ('A' for Active; 'I' for Inactive)
REMARK    1  A    between atoms: C_1  and  C_2
REMARK    2  A    between atoms: C_2  and  O_3
REMARK    3  A    between atoms: O_3  and  C_4
REMARK    4  A    between atoms: C_4  and  C_6
REMARK    5  A    between atoms: C_6  and  C_7
REMARK    6  A    between atoms: C_7  and  C_8
REMARK    7  A    between atoms: C_8  and  C_9
REMARK    8  A    between atoms: C_9  and  C_10
REMARK    9  A    between atoms: C_10  and  O_12
REMARK   10  A    between atoms: N_13  and  N_14
REMARK   11  A    between atoms: N_14  and  C_15
REMARK   12  A    between atoms: C_18  and  C_19
REMARK                            x       y       z     vdW  Elec       q    Type
REMARK                         _______ _______ _______ _____ _____    ______ ____
ROOT
ATOM      1  C   UNL     1       3.426   4.801  17.862  0.00  0.00    +0.000 C 
ATOM      2  N   UNL     1       3.747   5.887  18.504  0.00  0.00    +0.000 NA
ENDROOT
BRANCH   1   3
ATOM      3  C   UNL     1       2.220   3.916  18.161  0.00  0.00    +0.000 C 
ATOM      4  O   UNL     1       1.180   4.009  17.533  0.00  0.00    +0.000 OA
BRANCH   3   5
ATOM      5  O   UNL     1       2.451   3.159  19.254  0.00  0.00    +0.000 OA
BRANCH   5   7
ATOM      6  C   UNL     1       1.383   2.929  21.379  0.00  0.00    +0.000 C 
ATOM      7  C   UNL     1       1.296   2.604  19.900  0.00  0.00    +0.000 C 
ENDBRANCH   5   7
ENDBRANCH   3   5
ENDBRANCH   1   3
BRANCH   2   8
ATOM      8  N   UNL     1       3.017   6.265  19.576  0.00  0.00    +0.000 N 
ATOM      9  H   UNL     1       2.656   5.578  20.239  0.00  0.00    +0.000 HD
BRANCH   8  10
ATOM     10  C   UNL     1       2.297   7.473  19.538  0.00  0.00    +0.000 A 
ATOM     11  C   UNL     1       1.555   7.948  20.626  0.00  0.00    +0.000 A 
ATOM     12  C   UNL     1       0.763   9.095  20.512  0.00  0.00    +0.000 A 
ATOM     13  C   UNL     1       0.685   9.784  19.299  0.00  0.00    +0.000 A 
ATOM     14  C   UNL     1      -0.186  10.994  19.148  0.00  0.00    +0.000 C 
ATOM     15  C   UNL     1       1.422   9.315  18.207  0.00  0.00    +0.000 A 
ATOM     16  C   UNL     1       2.214   8.170  18.326  0.00  0.00    +0.000 A 
ENDBRANCH   8  10
ENDBRANCH   2   8
BRANCH   1  17
ATOM     17  C   UNL     1       4.302   4.304  16.723  0.00  0.00    +0.000 C 
BRANCH  17  18
ATOM     18  C   UNL     1       5.393   5.263  16.245  0.00  0.00    +0.000 C 
BRANCH  18  19
ATOM     19  C   UNL     1       6.747   4.597  15.984  0.00  0.00    +0.000 C 
BRANCH  19  20
ATOM     20  C   UNL     1       7.077   4.597  14.509  0.00  0.00    +0.000 C 
ATOM     21  O   UNL     1       7.767   5.437  13.952  0.00  0.00    +0.000 OA
BRANCH  20  22
ATOM     22  O   UNL     1       6.496   3.579  13.833  0.00  0.00    +0.000 OA
ATOM     23  H   UNL     1       5.546   3.462  14.028  0.00  0.00    +0.000 HD
ENDBRANCH  20  22
ENDBRANCH  19  20
ENDBRANCH  18  19
ENDBRANCH  17  18
ENDBRANCH   1  17
TORSDOF 10
ENDMDL
MODEL 8
REMARK VINA RESULT:      -6.5      2.975      5.776
REMARK  Name = 
REMARK  12 active torsions:
REMARK  status: ('A' for Active; 'I' for Inactive)
REMARK    1  A    between atoms: C_1  and  C_2
REMARK    2  A    between atoms: C_2  and  O_3
REMARK    3  A    between atoms: O_3  and  C_4
REMARK    4  A    between atoms: C_4  and  C_6
REMARK    5  A    between atoms: C_6  and  C_7
REMARK    6  A    between atoms: C_7  and  C_8
REMARK    7  A    between atoms: C_8  and  C_9
REMARK    8  A    between atoms: C_9  and  C_10
REMARK    9  A    between atoms: C_10  and  O_12
REMARK   10  A    between atoms: N_13  and  N_14
REMARK   11  A    between atoms: N_14  and  C_15
REMARK   12  A    between atoms: C_18  and  C_19
REMARK                            x       y       z     vdW  Elec       q    Type
REMARK                         _______ _______ _______ _____ _____    ______ ____
ROOT
ATOM      1  C   UNL     1       3.627   4.856  18.648  0.00  0.00    +0.000 C 
ATOM      2  N   UNL     1       3.790   5.886  19.427  0.00  0.00    +0.000 NA
ENDROOT
BRANCH   1   3
ATOM      3  C   UNL     1       2.307   4.136  18.393  0.00  0.00    +0.000 C 
ATOM      4  O   UNL     1       1.492   4.550  17.588  0.00  0.00    +0.000 OA
BRANCH   3   5
ATOM      5  O   UNL     1       2.157   3.107  19.254  0.00  0.00    +0.000 OA
BRANCH   5   7
ATOM      6  C   UNL     1       1.520   2.772  21.532  0.00  0.00    +0.000 C 
ATOM      7  C   UNL     1       1.041   3.185  20.153  0.00  0.00    +0.000 C 
ENDBRANCH   5   7
ENDBRANCH   3   5
ENDBRANCH   1   3
BRANCH   2   8
ATOM      8  N   UNL     1       2.743   6.352  20.141  0.00  0.00    +0.000 N 
ATOM      9  H   UNL     1       2.163   5.723  20.700  0.00  0.00    +0.000 HD
BRANCH   8  10
ATOM     10  C   UNL     1       2.100   7.538  19.745  0.00  0.00    +0.000 A 
ATOM     11  C   UNL     1       2.260   8.099  18.471  0.00  0.00    +0.000 A 
ATOM     12  C   UNL     1       1.693   9.337  18.153  0.00  0.00    +0.000 A 
ATOM     13  C   UNL     1       0.964  10.048  19.110  0.00  0.00    +0.000 A 
ATOM     14  C   UNL     1       0.379  11.393  18.797  0.00  0.00    +0.000 C 
ATOM     15  C   UNL     1       0.800   9.496  20.383  0.00  0.00    +0.000 A 
ATOM     16  C   UNL     1       1.366   8.257  20.696  0.00  0.00    +0.000 A 
ENDBRANCH   8  10
ENDBRANCH   2   8
BRANCH   1  17
ATOM     17  C   UNL     1       4.821   4.254  17.923  0.00  0.00    +0.000 C 
BRANCH  17  18
ATOM     18  C   UNL     1       4.782   4.315  16.396  0.00  0.00    +0.000 C 
BRANCH  18  19
ATOM     19  C   UNL     1       5.535   5.506  15.795  0.00  0.00    +0.000 C 
BRANCH  19  20
ATOM     20  C   UNL     1       7.005   5.449  16.139  0.00  0.00    +0.000 C 
ATOM     21  O   UNL     1       7.690   4.438  16.098  0.00  0.00    +0.000 OA
BRANCH  20  22
ATOM     22  O   UNL     1       7.504   6.640  16.545  0.00  0.00    +0.000 OA
ATOM     23  H   UNL     1       6.966   7.086  17.227  0.00  0.00    +0.000 HD
ENDBRANCH  20  22
ENDBRANCH  19  20
ENDBRANCH  18  19
ENDBRANCH  17  18
ENDBRANCH   1  17
TORSDOF 10
ENDMDL
MODEL 9
REMARK VINA RESULT:      -6.5      2.945      5.835
REMARK  Name = 
REMARK  12 active torsions:
REMARK  status: ('A' for Active; 'I' for Inactive)
REMARK    1  A    between atoms: C_1  and  C_2
REMARK    2  A    between atoms: C_2  and  O_3
REMARK    3  A    between atoms: O_3  and  C_4
REMARK    4  A    between atoms: C_4  and  C_6
REMARK    5  A    between atoms: C_6  and  C_7
REMARK    6  A    between atoms: C_7  and  C_8
REMARK    7  A    between atoms: C_8  and  C_9
REMARK    8  A    between atoms: C_9  and  C_10
REMARK    9  A    between atoms: C_10  and  O_12
REMARK   10  A    between atoms: N_13  and  N_14
REMARK   11  A    between atoms: N_14  and  C_15
REMARK   12  A    between atoms: C_18  and  C_19
REMARK                            x       y       z     vdW  Elec       q    Type
REMARK                         _______ _______ _______ _____ _____    ______ ____
ROOT
ATOM      1  C   UNL     1       3.707   4.636  18.703  0.00  0.00    +0.000 C 
ATOM      2  N   UNL     1       3.828   5.772  19.326  0.00  0.00    +0.000 NA
ENDROOT
BRANCH   1   3
ATOM      3  C   UNL     1       2.463   3.753  18.699  0.00  0.00    +0.000 C 
ATOM      4  O   UNL     1       1.402   4.136  18.236  0.00  0.00    +0.000 OA
BRANCH   3   5
ATOM      5  O   UNL     1       2.697   2.606  19.370  0.00  0.00    +0.000 OA
BRANCH   5   7
ATOM      6  C   UNL     1       1.460   2.779  21.407  0.00  0.00    +0.000 C 
ATOM      7  C   UNL     1       2.846   2.719  20.793  0.00  0.00    +0.000 C 
ENDBRANCH   5   7
ENDBRANCH   3   5
ENDBRANCH   1   3
BRANCH   2   8
ATOM      8  N   UNL     1       2.814   6.216  20.101  0.00  0.00    +0.000 N 
ATOM      9  H   UNL     1       2.230   5.567  20.630  0.00  0.00    +0.000 HD
BRANCH   8  10
ATOM     10  C   UNL     1       2.199   7.447  19.809  0.00  0.00    +0.000 A 
ATOM     11  C   UNL     1       1.423   8.147  20.740  0.00  0.00    +0.000 A 
ATOM     12  C   UNL     1       0.737   9.311  20.376  0.00  0.00    +0.000 A 
ATOM     13  C   UNL     1       0.804   9.791  19.066  0.00  0.00    +0.000 A 
ATOM     14  C   UNL     1       0.049  11.017  18.649  0.00  0.00    +0.000 C 
ATOM     15  C   UNL     1       1.577   9.098  18.130  0.00  0.00    +0.000 A 
ATOM     16  C   UNL     1       2.262   7.937  18.499  0.00  0.00    +0.000 A 
ENDBRANCH   8  10
ENDBRANCH   2   8
BRANCH   1  17
ATOM     17  C   UNL     1       4.880   4.072  17.916  0.00  0.00    +0.000 C 
BRANCH  17  18
ATOM     18  C   UNL     1       4.834   4.275  16.402  0.00  0.00    +0.000 C 
BRANCH  18  19
ATOM     19  C   UNL     1       5.374   5.629  15.931  0.00  0.00    +0.000 C 
BRANCH  19  20
ATOM     20  C   UNL     1       6.879   5.682  16.042  0.00  0.00    +0.000 C 
ATOM     21  O   UNL     1       7.503   6.562  16.616  0.00  0.00    +0.000 OA
BRANCH  20  22
ATOM     22  O   UNL     1       7.498   4.663  15.400  0.00  0.00    +0.000 OA
ATOM     23  H   UNL     1       6.953   4.237  14.710  0.00  0.00    +0.000 HD
ENDBRANCH  20  22
ENDBRANCH  19  20
ENDBRANCH  18  19
ENDBRANCH  17  18
ENDBRANCH   1  17
TORSDOF 10
ENDMDL
