MODEL 1
REMARK VINA RESULT:      -7.5      0.000      0.000
REMARK  Name = 
REMARK  7 active torsions:
REMARK  status: ('A' for Active; 'I' for Inactive)
REMARK    1  A    between atoms: C_1  and  C_2
REMARK    2  A    between atoms: C_6  and  O_7
REMARK    3  A    between atoms: O_7  and  C_8
REMARK    4  A    between atoms: C_8  and  C_9
REMARK    5  A    between atoms: C_9  and  C_10
REMARK    6  A    between atoms: C_10  and  C_11
REMARK    7  A    between atoms: N_13  and  C_14
REMARK                            x       y       z     vdW  Elec       q    Type
REMARK                         _______ _______ _______ _____ _____    ______ ____
ROOT
ATOM      1  C   UNL     1       1.984   4.646  20.557  0.00  0.00    +0.000 C 
ATOM      2  O   UNL     1       0.779   4.525  20.356  0.00  0.00    +0.000 OA
ATOM      3  N   UNL     1       2.756   5.764  20.275  0.00  0.00    +0.000 N 
ATOM      4  H   UNL     1       3.762   5.670  20.333  0.00  0.00    +0.000 HD
ENDROOT
BRANCH   3   5
ATOM      5  C   UNL     1       2.267   6.974  19.729  0.00  0.00    +0.000 A 
ATOM      6  C   UNL     1       2.445   7.322  18.376  0.00  0.00    +0.000 A 
ATOM      7  C   UNL     1       2.027   8.557  17.875  0.00  0.00    +0.000 A 
ATOM      8  C   UNL     1       1.430   9.430  18.754  0.00  0.00    +0.000 A 
ATOM      9  C   UNL     1       1.214   9.090  20.069  0.00  0.00    +0.000 A 
ATOM     10  C   UNL     1       1.598   7.865  20.583  0.00  0.00    +0.000 A 
ATOM     11  O   UNL     1       0.618  10.099  20.763  0.00  0.00    +0.000 OA
ATOM     12  C   UNL     1       0.565  11.131  19.753  0.00  0.00    +0.000 C 
ATOM     13  O   UNL     1       1.005  10.683  18.455  0.00  0.00    +0.000 OA
ENDBRANCH   3   5
BRANCH   1  14
ATOM     14  C   UNL     1       2.775   3.469  21.093  0.00  0.00    +0.000 C 
BRANCH  14  15
ATOM     15  C   UNL     1       2.811   2.333  20.071  0.00  0.00    +0.000 C 
BRANCH  15  16
ATOM     16  C   UNL     1       4.117   2.317  19.280  0.00  0.00    +0.000 C 
BRANCH  16  17
ATOM     17  O   UNL     1       4.901   3.446  19.663  0.00  0.00    +0.000 OA
BRANCH  17  23
ATOM     18  C   UNL     1       7.568   7.190  17.766  0.00  0.00    +0.000 C 
ATOM     19  C   UNL     1       6.527   6.117  17.638  0.00  0.00    +0.000 A 
ATOM     20  C   UNL     1       5.845   5.909  16.435  0.00  0.00    +0.000 A 
ATOM     21  C   UNL     1       4.878   4.909  16.340  0.00  0.00    +0.000 A 
ATOM     22  C   UNL     1       4.589   4.109  17.447  0.00  0.00    +0.000 A 
ATOM     23  C   UNL     1       5.262   4.301  18.654  0.00  0.00    +0.000 A 
ATOM     24  C   UNL     1       6.225   5.309  18.745  0.00  0.00    +0.000 A 
ENDBRANCH  17  23
ENDBRANCH  16  17
ENDBRANCH  15  16
ENDBRANCH  14  15
ENDBRANCH   1  14
TORSDOF 6
ENDMDL
MODEL 2
REMARK VINA RESULT:      -7.5      3.851      6.913
REMARK  Name = 
REMARK  7 active torsions:
REMARK  status: ('A' for Active; 'I' for Inactive)
REMARK    1  A    between atoms: C_1  and  C_2
REMARK    2  A    between atoms: C_6  and  O_7
REMARK    3  A    between atoms: O_7  and  C_8
REMARK    4  A    between atoms: C_8  and  C_9
REMARK    5  A    between atoms: C_9  and  C_10
REMARK    6  A    between atoms: C_10  and  C_11
REMARK    7  A    between atoms: N_13  and  C_14
REMARK                            x       y       z     vdW  Elec       q    Type
REMARK                         _______ _______ _______ _____ _____    ______ ____
ROOT
ATOM      1  C   UNL     1       7.012   5.581  18.475  0.00  0.00    +0.000 C 
ATOM      2  O   UNL     1       7.475   4.456  18.314  0.00  0.00    +0.000 OA
ATOM      3  N   UNL     1       5.667   5.922  18.489  0.00  0.00    +0.000 N 
ATOM      4  H   UNL     1       5.428   6.904  18.461  0.00  0.00    +0.000 HD
ENDROOT
BRANCH   3   5
ATOM      5  C   UNL     1       4.594   5.009  18.348  0.00  0.00    +0.000 A 
ATOM      6  C   UNL     1       4.255   4.423  17.112  0.00  0.00    +0.000 A 
ATOM      7  C   UNL     1       3.143   3.590  16.977  0.00  0.00    +0.000 A 
ATOM      8  C   UNL     1       2.384   3.355  18.100  0.00  0.00    +0.000 A 
ATOM      9  C   UNL     1       2.725   3.887  19.321  0.00  0.00    +0.000 A 
ATOM     10  C   UNL     1       3.833   4.698  19.484  0.00  0.00    +0.000 A 
ATOM     11  O   UNL     1       1.837   3.537  20.293  0.00  0.00    +0.000 OA
ATOM     12  C   UNL     1       0.865   2.798  19.521  0.00  0.00    +0.000 C 
ATOM     13  O   UNL     1       1.251   2.611  18.144  0.00  0.00    +0.000 OA
ENDBRANCH   3   5
BRANCH   1  14
ATOM     14  C   UNL     1       7.950   6.765  18.600  0.00  0.00    +0.000 C 
BRANCH  14  15
ATOM     15  C   UNL     1       7.778   7.716  17.417  0.00  0.00    +0.000 C 
BRANCH  15  16
ATOM     16  C   UNL     1       7.904   9.179  17.836  0.00  0.00    +0.000 C 
BRANCH  16  17
ATOM     17  O   UNL     1       8.787   9.264  18.953  0.00  0.00    +0.000 OA
BRANCH  17  23
ATOM     18  C   UNL     1      11.225  13.144  17.023  0.00  0.00    +0.000 C 
ATOM     19  C   UNL     1      10.737  12.347  18.196  0.00  0.00    +0.000 A 
ATOM     20  C   UNL     1      11.007  12.748  19.508  0.00  0.00    +0.000 A 
ATOM     21  C   UNL     1      10.547  11.989  20.584  0.00  0.00    +0.000 A 
ATOM     22  C   UNL     1       9.810  10.826  20.354  0.00  0.00    +0.000 A 
ATOM     23  C   UNL     1       9.528  10.413  19.051  0.00  0.00    +0.000 A 
ATOM     24  C   UNL     1       9.998  11.174  17.977  0.00  0.00    +0.000 A 
ENDBRANCH  17  23
ENDBRANCH  16  17
ENDBRANCH  15  16
ENDBRANCH  14  15
ENDBRANCH   1  14
TORSDOF 6
ENDMDL
MODEL 3
REMARK VINA RESULT:      -7.5      2.069      6.186
REMARK  Name = 
REMARK  7 active torsions:
REMARK  status: ('A' for Active; 'I' for Inactive)
REMARK    1  A    between atoms: C_1  and  C_2
REMARK    2  A    between atoms: C_6  and  O_7
REMARK    3  A    between atoms: O_7  and  C_8
REMARK    4  A    between atoms: C_8  and  C_9
REMARK    5  A    between atoms: C_9  and  C_10
REMARK    6  A    between atoms: C_10  and  C_11
REMARK    7  A    between atoms: N_13  and  C_14
REMARK                            x       y       z     vdW  Elec       q    Type
REMARK                         _______ _______ _______ _____ _____    ______ ____
ROOT
ATOM      1  C   UNL     1       3.926   3.055  19.698  0.00  0.00    +0.000 C 
ATOM      2  O   UNL     1       4.899   2.363  19.982  0.00  0.00    +0.000 OA
ATOM      3  N   UNL     1       3.872   4.032  18.714  0.00  0.00    +0.000 N 
ATOM      4  H   UNL     1       3.065   4.643  18.698  0.00  0.00    +0.000 HD
ENDROOT
BRANCH   3   5
ATOM      5  C   UNL     1       4.936   4.372  17.845  0.00  0.00    +0.000 A 
ATOM      6  C   UNL     1       6.011   5.189  18.246  0.00  0.00    +0.000 A 
ATOM      7  C   UNL     1       7.008   5.581  17.351  0.00  0.00    +0.000 A 
ATOM      8  C   UNL     1       6.907   5.137  16.053  0.00  0.00    +0.000 A 
ATOM      9  C   UNL     1       5.886   4.307  15.656  0.00  0.00    +0.000 A 
ATOM     10  C   UNL     1       4.899   3.888  16.529  0.00  0.00    +0.000 A 
ATOM     11  O   UNL     1       5.970   3.995  14.333  0.00  0.00    +0.000 OA
ATOM     12  C   UNL     1       7.110   4.791  13.937  0.00  0.00    +0.000 C 
ATOM     13  O   UNL     1       7.756   5.453  15.043  0.00  0.00    +0.000 OA
ENDBRANCH   3   5
BRANCH   1  14
ATOM     14  C   UNL     1       2.655   2.932  20.516  0.00  0.00    +0.000 C 
BRANCH  14  15
ATOM     15  C   UNL     1       2.435   4.185  21.363  0.00  0.00    +0.000 C 
BRANCH  15  16
ATOM     16  C   UNL     1       1.657   5.257  20.605  0.00  0.00    +0.000 C 
BRANCH  16  17
ATOM     17  O   UNL     1       2.583   6.156  19.996  0.00  0.00    +0.000 OA
BRANCH  17  23
ATOM     18  C   UNL     1       0.204  10.409  20.984  0.00  0.00    +0.000 C 
ATOM     19  C   UNL     1       0.949   9.503  20.049  0.00  0.00    +0.000 A 
ATOM     20  C   UNL     1       1.206   9.880  18.727  0.00  0.00    +0.000 A 
ATOM     21  C   UNL     1       1.897   9.020  17.873  0.00  0.00    +0.000 A 
ATOM     22  C   UNL     1       2.337   7.779  18.337  0.00  0.00    +0.000 A 
ATOM     23  C   UNL     1       2.092   7.389  19.654  0.00  0.00    +0.000 A 
ATOM     24  C   UNL     1       1.393   8.252  20.503  0.00  0.00    +0.000 A 
ENDBRANCH  17  23
ENDBRANCH  16  17
ENDBRANCH  15  16
ENDBRANCH  14  15
ENDBRANCH   1  14
TORSDOF 6
ENDMDL
MODEL 4
REMARK VINA RESULT:      -7.4      0.820      1.533
REMARK  Name = 
REMARK  7 active torsions:
REMARK  status: ('A' for Active; 'I' for Inactive)
REMARK    1  A    between atoms: C_1  and  C_2
REMARK    2  A    between atoms: C_6  and  O_7
REMARK    3  A    between atoms: O_7  and  C_8
REMARK    4  A    between atoms: C_8  and  C_9
REMARK    5  A    between atoms: C_9  and  C_10
REMARK    6  A    between atoms: C_10  and  C_11
REMARK    7  A    between atoms: N_13  and  C_14
REMARK                            x       y       z     vdW  Elec       q    Type
REMARK                         _______ _______ _______ _____ _____    ______ ____
ROOT
ATOM      1  C   UNL     1       1.905   4.383  20.492  0.00  0.00    +0.000 C 
ATOM      2  O   UNL     1       0.941   4.161  19.766  0.00  0.00    +0.000 OA
ATOM      3  N   UNL     1       2.684   5.531  20.497  0.00  0.00    +0.000 N 
ATOM      4  H   UNL     1       3.546   5.515  21.025  0.00  0.00    +0.000 HD
ENDROOT
BRANCH   3   5
ATOM      5  C   UNL     1       2.471   6.662  19.673  0.00  0.00    +0.000 A 
ATOM      6  C   UNL     1       2.991   6.758  18.368  0.00  0.00    +0.000 A 
ATOM      7  C   UNL     1       2.840   7.915  17.601  0.00  0.00    +0.000 A 
ATOM      8  C   UNL     1       2.159   8.967  18.166  0.00  0.00    +0.000 A 
ATOM      9  C   UNL     1       1.611   8.876  19.424  0.00  0.00    +0.000 A 
ATOM     10  C   UNL     1       1.728   7.733  20.194  0.00  0.00    +0.000 A 
ATOM     11  O   UNL     1       0.989  10.030  19.793  0.00  0.00    +0.000 OA
ATOM     12  C   UNL     1       1.284  10.874  18.657  0.00  0.00    +0.000 C 
ATOM     13  O   UNL     1       1.957  10.178  17.588  0.00  0.00    +0.000 OA
ENDBRANCH   3   5
BRANCH   1  14
ATOM     14  C   UNL     1       2.387   3.307  21.445  0.00  0.00    +0.000 C 
BRANCH  14  15
ATOM     15  C   UNL     1       3.396   2.389  20.756  0.00  0.00    +0.000 C 
BRANCH  15  16
ATOM     16  C   UNL     1       3.884   2.969  19.430  0.00  0.00    +0.000 C 
BRANCH  16  17
ATOM     17  O   UNL     1       5.189   3.515  19.618  0.00  0.00    +0.000 OA
BRANCH  17  23
ATOM     18  C   UNL     1       5.518   4.986  14.879  0.00  0.00    +0.000 C 
ATOM     19  C   UNL     1       5.860   5.137  16.332  0.00  0.00    +0.000 A 
ATOM     20  C   UNL     1       6.687   6.173  16.778  0.00  0.00    +0.000 A 
ATOM     21  C   UNL     1       6.995   6.291  18.133  0.00  0.00    +0.000 A 
ATOM     22  C   UNL     1       6.476   5.377  19.051  0.00  0.00    +0.000 A 
ATOM     23  C   UNL     1       5.646   4.340  18.624  0.00  0.00    +0.000 A 
ATOM     24  C   UNL     1       5.346   4.222  17.264  0.00  0.00    +0.000 A 
ENDBRANCH  17  23
ENDBRANCH  16  17
ENDBRANCH  15  16
ENDBRANCH  14  15
ENDBRANCH   1  14
TORSDOF 6
ENDMDL
MODEL 5
REMARK VINA RESULT:      -7.2      1.049      1.696
REMARK  Name = 
REMARK  7 active torsions:
REMARK  status: ('A' for Active; 'I' for Inactive)
REMARK    1  A    between atoms: C_1  and  C_2
REMARK    2  A    between atoms: C_6  and  O_7
REMARK    3  A    between atoms: O_7  and  C_8
REMARK    4  A    between atoms: C_8  and  C_9
REMARK    5  A    between atoms: C_9  and  C_10
REMARK    6  A    between atoms: C_10  and  C_11
REMARK    7  A    between atoms: N_13  and  C_14
REMARK                            x       y       z     vdW  Elec       q    Type
REMARK                         _______ _______ _______ _____ _____    ______ ____
ROOT
ATOM      1  C   UNL     1       1.815   4.288  20.637  0.00  0.00    +0.000 C 
ATOM      2  O   UNL     1       0.677   4.167  20.195  0.00  0.00    +0.000 OA
ATOM      3  N   UNL     1       2.604   5.428  20.578  0.00  0.00    +0.000 N 
ATOM      4  H   UNL     1       3.580   5.342  20.828  0.00  0.00    +0.000 HD
ENDROOT
BRANCH   3   5
ATOM      5  C   UNL     1       2.205   6.664  20.016  0.00  0.00    +0.000 A 
ATOM      6  C   UNL     1       2.470   7.009  18.676  0.00  0.00    +0.000 A 
ATOM      7  C   UNL     1       2.142   8.265  18.163  0.00  0.00    +0.000 A 
ATOM      8  C   UNL     1       1.545   9.164  19.016  0.00  0.00    +0.000 A 
ATOM      9  C   UNL     1       1.245   8.830  20.315  0.00  0.00    +0.000 A 
ATOM     10  C   UNL     1       1.540   7.585  20.840  0.00  0.00    +0.000 A 
ATOM     11  O   UNL     1       0.666   9.865  20.985  0.00  0.00    +0.000 OA
ATOM     12  C   UNL     1       0.717  10.903  19.980  0.00  0.00    +0.000 C 
ATOM     13  O   UNL     1       1.200  10.438  18.704  0.00  0.00    +0.000 OA
ENDBRANCH   3   5
BRANCH   1  14
ATOM     14  C   UNL     1       2.511   3.089  21.251  0.00  0.00    +0.000 C 
BRANCH  14  15
ATOM     15  C   UNL     1       3.820   2.792  20.522  0.00  0.00    +0.000 C 
BRANCH  15  16
ATOM     16  C   UNL     1       3.606   2.585  19.024  0.00  0.00    +0.000 C 
BRANCH  16  17
ATOM     17  O   UNL     1       3.685   3.850  18.368  0.00  0.00    +0.000 OA
BRANCH  17  23
ATOM     18  C   UNL     1       6.229   3.898  14.096  0.00  0.00    +0.000 C 
ATOM     19  C   UNL     1       6.132   4.136  15.574  0.00  0.00    +0.000 A 
ATOM     20  C   UNL     1       7.221   4.626  16.302  0.00  0.00    +0.000 A 
ATOM     21  C   UNL     1       7.110   4.835  17.676  0.00  0.00    +0.000 A 
ATOM     22  C   UNL     1       5.908   4.558  18.331  0.00  0.00    +0.000 A 
ATOM     23  C   UNL     1       4.811   4.072  17.619  0.00  0.00    +0.000 A 
ATOM     24  C   UNL     1       4.931   3.857  16.243  0.00  0.00    +0.000 A 
ENDBRANCH  17  23
ENDBRANCH  16  17
ENDBRANCH  15  16
ENDBRANCH  14  15
ENDBRANCH   1  14
TORSDOF 6
ENDMDL
MODEL 6
REMARK VINA RESULT:      -7.1      4.118      7.202
REMARK  Name = 
REMARK  7 active torsions:
REMARK  status: ('A' for Active; 'I' for Inactive)
REMARK    1  A    between atoms: C_1  and  C_2
REMARK    2  A    between atoms: C_6  and  O_7
REMARK    3  A    between atoms: O_7  and  C_8
REMARK    4  A    between atoms: C_8  and  C_9
REMARK    5  A    between atoms: C_9  and  C_10
REMARK    6  A    between atoms: C_10  and  C_11
REMARK    7  A    between atoms: N_13  and  C_14
REMARK                            x       y       z     vdW  Elec       q    Type
REMARK                         _______ _______ _______ _____ _____    ______ ____
ROOT
ATOM      1  C   UNL     1       6.378   6.324  18.062  0.00  0.00    +0.000 C 
ATOM      2  O   UNL     1       7.113   5.652  18.779  0.00  0.00    +0.000 OA
ATOM      3  N   UNL     1       5.038   6.077  17.798  0.00  0.00    +0.000 N 
ATOM      4  H   UNL     1       4.596   6.609  17.059  0.00  0.00    +0.000 HD
ENDROOT
BRANCH   3   5
ATOM      5  C   UNL     1       4.283   5.013  18.344  0.00  0.00    +0.000 A 
ATOM      6  C   UNL     1       4.099   3.790  17.671  0.00  0.00    +0.000 A 
ATOM      7  C   UNL     1       3.283   2.782  18.189  0.00  0.00    +0.000 A 
ATOM      8  C   UNL     1       2.661   3.024  19.392  0.00  0.00    +0.000 A 
ATOM      9  C   UNL     1       2.862   4.197  20.081  0.00  0.00    +0.000 A 
ATOM     10  C   UNL     1       3.682   5.200  19.598  0.00  0.00    +0.000 A 
ATOM     11  O   UNL     1       2.147   4.234  21.240  0.00  0.00    +0.000 OA
ATOM     12  C   UNL     1       1.418   2.989  21.151  0.00  0.00    +0.000 C 
ATOM     13  O   UNL     1       1.803   2.182  20.020  0.00  0.00    +0.000 OA
ENDBRANCH   3   5
BRANCH   1  14
ATOM     14  C   UNL     1       6.949   7.506  17.303  0.00  0.00    +0.000 C 
BRANCH  14  15
ATOM     15  C   UNL     1       8.259   7.972  17.937  0.00  0.00    +0.000 C 
BRANCH  15  16
ATOM     16  C   UNL     1       8.325   9.492  18.061  0.00  0.00    +0.000 C 
BRANCH  16  17
ATOM     17  O   UNL     1       9.065   9.828  19.234  0.00  0.00    +0.000 OA
BRANCH  17  23
ATOM     18  C   UNL     1      11.632  13.261  16.714  0.00  0.00    +0.000 C 
ATOM     19  C   UNL     1      11.131  12.671  18.000  0.00  0.00    +0.000 A 
ATOM     20  C   UNL     1      11.442  13.252  19.233  0.00  0.00    +0.000 A 
ATOM     21  C   UNL     1      10.968  12.685  20.416  0.00  0.00    +0.000 A 
ATOM     22  C   UNL     1      10.179  11.534  20.372  0.00  0.00    +0.000 A 
ATOM     23  C   UNL     1       9.856  10.944  19.150  0.00  0.00    +0.000 A 
ATOM     24  C   UNL     1      10.339  11.513  17.968  0.00  0.00    +0.000 A 
ENDBRANCH  17  23
ENDBRANCH  16  17
ENDBRANCH  15  16
ENDBRANCH  14  15
ENDBRANCH   1  14
TORSDOF 6
ENDMDL
MODEL 7
REMARK VINA RESULT:      -7.1      1.756      4.167
REMARK  Name = 
REMARK  7 active torsions:
REMARK  status: ('A' for Active; 'I' for Inactive)
REMARK    1  A    between atoms: C_1  and  C_2
REMARK    2  A    between atoms: C_6  and  O_7
REMARK    3  A    between atoms: O_7  and  C_8
REMARK    4  A    between atoms: C_8  and  C_9
REMARK    5  A    between atoms: C_9  and  C_10
REMARK    6  A    between atoms: C_10  and  C_11
REMARK    7  A    between atoms: N_13  and  C_14
REMARK                            x       y       z     vdW  Elec       q    Type
REMARK                         _______ _______ _______ _____ _____    ______ ____
ROOT
ATOM      1  C   UNL     1       4.974   6.694  16.881  0.00  0.00    +0.000 C 
ATOM      2  O   UNL     1       5.770   7.349  17.545  0.00  0.00    +0.000 OA
ATOM      3  N   UNL     1       3.608   6.592  17.102  0.00  0.00    +0.000 N 
ATOM      4  H   UNL     1       3.096   5.888  16.585  0.00  0.00    +0.000 HD
ENDROOT
BRANCH   3   5
ATOM      5  C   UNL     1       2.897   7.260  18.127  0.00  0.00    +0.000 A 
ATOM      6  C   UNL     1       2.680   6.689  19.396  0.00  0.00    +0.000 A 
ATOM      7  C   UNL     1       1.906   7.329  20.366  0.00  0.00    +0.000 A 
ATOM      8  C   UNL     1       1.359   8.548  20.040  0.00  0.00    +0.000 A 
ATOM      9  C   UNL     1       1.593   9.137  18.820  0.00  0.00    +0.000 A 
ATOM     10  C   UNL     1       2.374   8.533  17.851  0.00  0.00    +0.000 A 
ATOM     11  O   UNL     1       0.953  10.333  18.701  0.00  0.00    +0.000 OA
ATOM     12  C   UNL     1       0.229  10.380  19.952  0.00  0.00    +0.000 C 
ATOM     13  O   UNL     1       0.548   9.288  20.837  0.00  0.00    +0.000 OA
ENDBRANCH   3   5
BRANCH   1  14
ATOM     14  C   UNL     1       5.480   5.832  15.741  0.00  0.00    +0.000 C 
BRANCH  14  15
ATOM     15  C   UNL     1       5.952   4.474  16.261  0.00  0.00    +0.000 C 
BRANCH  15  16
ATOM     16  C   UNL     1       4.783   3.583  16.674  0.00  0.00    +0.000 C 
BRANCH  16  17
ATOM     17  O   UNL     1       4.742   3.508  18.099  0.00  0.00    +0.000 OA
BRANCH  17  23
ATOM     18  C   UNL     1       1.700   2.643  21.936  0.00  0.00    +0.000 C 
ATOM     19  C   UNL     1       1.941   2.890  20.476  0.00  0.00    +0.000 A 
ATOM     20  C   UNL     1       0.881   2.940  19.565  0.00  0.00    +0.000 A 
ATOM     21  C   UNL     1       1.129   3.166  18.211  0.00  0.00    +0.000 A 
ATOM     22  C   UNL     1       2.438   3.347  17.761  0.00  0.00    +0.000 A 
ATOM     23  C   UNL     1       3.506   3.304  18.657  0.00  0.00    +0.000 A 
ATOM     24  C   UNL     1       3.253   3.070  20.011  0.00  0.00    +0.000 A 
ENDBRANCH  17  23
ENDBRANCH  16  17
ENDBRANCH  15  16
ENDBRANCH  14  15
ENDBRANCH   1  14
TORSDOF 6
ENDMDL
MODEL 8
REMARK VINA RESULT:      -7.0      2.353      6.151
REMARK  Name = 
REMARK  7 active torsions:
REMARK  status: ('A' for Active; 'I' for Inactive)
REMARK    1  A    between atoms: C_1  and  C_2
REMARK    2  A    between atoms: C_6  and  O_7
REMARK    3  A    between atoms: O_7  and  C_8
REMARK    4  A    between atoms: C_8  and  C_9
REMARK    5  A    between atoms: C_9  and  C_10
REMARK    6  A    between atoms: C_10  and  C_11
REMARK    7  A    between atoms: N_13  and  C_14
REMARK                            x       y       z     vdW  Elec       q    Type
REMARK                         _______ _______ _______ _____ _____    ______ ____
ROOT
ATOM      1  C   UNL     1       3.963   2.944  19.000  0.00  0.00    +0.000 C 
ATOM      2  O   UNL     1       4.959   2.948  19.717  0.00  0.00    +0.000 OA
ATOM      3  N   UNL     1       3.886   3.420  17.699  0.00  0.00    +0.000 N 
ATOM      4  H   UNL     1       2.969   3.511  17.282  0.00  0.00    +0.000 HD
ENDROOT
BRANCH   3   5
ATOM      5  C   UNL     1       4.967   3.967  16.967  0.00  0.00    +0.000 A 
ATOM      6  C   UNL     1       5.858   4.908  17.519  0.00  0.00    +0.000 A 
ATOM      7  C   UNL     1       6.867   5.498  16.757  0.00  0.00    +0.000 A 
ATOM      8  C   UNL     1       6.966   5.126  15.436  0.00  0.00    +0.000 A 
ATOM      9  C   UNL     1       6.130   4.180  14.892  0.00  0.00    +0.000 A 
ATOM     10  C   UNL     1       5.137   3.565  15.633  0.00  0.00    +0.000 A 
ATOM     11  O   UNL     1       6.394   3.967  13.573  0.00  0.00    +0.000 OA
ATOM     12  C   UNL     1       7.432   4.946  13.341  0.00  0.00    +0.000 C 
ATOM     13  O   UNL     1       7.853   5.626  14.540  0.00  0.00    +0.000 OA
ENDBRANCH   3   5
BRANCH   1  14
ATOM     14  C   UNL     1       2.641   2.455  19.557  0.00  0.00    +0.000 C 
BRANCH  14  15
ATOM     15  C   UNL     1       2.321   3.153  20.879  0.00  0.00    +0.000 C 
BRANCH  15  16
ATOM     16  C   UNL     1       1.466   4.401  20.673  0.00  0.00    +0.000 C 
BRANCH  16  17
ATOM     17  O   UNL     1       2.247   5.552  20.990  0.00  0.00    +0.000 OA
BRANCH  17  23
ATOM     18  C   UNL     1       0.911  10.200  19.832  0.00  0.00    +0.000 C 
ATOM     19  C   UNL     1       1.522   8.877  19.475  0.00  0.00    +0.000 A 
ATOM     20  C   UNL     1       2.044   8.641  18.199  0.00  0.00    +0.000 A 
ATOM     21  C   UNL     1       2.604   7.403  17.888  0.00  0.00    +0.000 A 
ATOM     22  C   UNL     1       2.648   6.393  18.850  0.00  0.00    +0.000 A 
ATOM     23  C   UNL     1       2.135   6.613  20.129  0.00  0.00    +0.000 A 
ATOM     24  C   UNL     1       1.569   7.854  20.434  0.00  0.00    +0.000 A 
ENDBRANCH  17  23
ENDBRANCH  16  17
ENDBRANCH  15  16
ENDBRANCH  14  15
ENDBRANCH   1  14
TORSDOF 6
ENDMDL
MODEL 9
REMARK VINA RESULT:      -7.0      2.318      6.121
REMARK  Name = 
REMARK  7 active torsions:
REMARK  status: ('A' for Active; 'I' for Inactive)
REMARK    1  A    between atoms: C_1  and  C_2
REMARK    2  A    between atoms: C_6  and  O_7
REMARK    3  A    between atoms: O_7  and  C_8
REMARK    4  A    between atoms: C_8  and  C_9
REMARK    5  A    between atoms: C_9  and  C_10
REMARK    6  A    between atoms: C_10  and  C_11
REMARK    7  A    between atoms: N_13  and  C_14
REMARK                            x       y       z     vdW  Elec       q    Type
REMARK                         _______ _______ _______ _____ _____    ______ ____
ROOT
ATOM      1  C   UNL     1       2.987   2.508  18.217  0.00  0.00    +0.000 C 
ATOM      2  O   UNL     1       3.701   1.513  18.150  0.00  0.00    +0.000 OA
ATOM      3  N   UNL     1       3.306   3.780  17.763  0.00  0.00    +0.000 N 
ATOM      4  H   UNL     1       2.698   4.544  18.031  0.00  0.00    +0.000 HD
ENDROOT
BRANCH   3   5
ATOM      5  C   UNL     1       4.512   4.135  17.114  0.00  0.00    +0.000 A 
ATOM      6  C   UNL     1       5.551   4.825  17.769  0.00  0.00    +0.000 A 
ATOM      7  C   UNL     1       6.699   5.238  17.091  0.00  0.00    +0.000 A 
ATOM      8  C   UNL     1       6.785   4.944  15.750  0.00  0.00    +0.000 A 
ATOM      9  C   UNL     1       5.798   4.237  15.105  0.00  0.00    +0.000 A 
ATOM     10  C   UNL     1       4.662   3.798  15.760  0.00  0.00    +0.000 A 
ATOM     11  O   UNL     1       6.078   4.063  13.784  0.00  0.00    +0.000 OA
ATOM     12  C   UNL     1       7.308   4.813  13.664  0.00  0.00    +0.000 C 
ATOM     13  O   UNL     1       7.801   5.305  14.927  0.00  0.00    +0.000 OA
ENDBRANCH   3   5
BRANCH   1  14
ATOM     14  C   UNL     1       1.645   2.422  18.918  0.00  0.00    +0.000 C 
BRANCH  14  15
ATOM     15  C   UNL     1       1.798   2.712  20.411  0.00  0.00    +0.000 C 
BRANCH  15  16
ATOM     16  C   UNL     1       1.407   4.147  20.756  0.00  0.00    +0.000 C 
BRANCH  16  17
ATOM     17  O   UNL     1       2.457   5.022  20.345  0.00  0.00    +0.000 OA
BRANCH  17  23
ATOM     18  C   UNL     1       2.332   9.198  17.649  0.00  0.00    +0.000 C 
ATOM     19  C   UNL     1       1.987   8.415  18.881  0.00  0.00    +0.000 A 
ATOM     20  C   UNL     1       1.250   8.989  19.922  0.00  0.00    +0.000 A 
ATOM     21  C   UNL     1       0.944   8.244  21.060  0.00  0.00    +0.000 A 
ATOM     22  C   UNL     1       1.372   6.919  21.164  0.00  0.00    +0.000 A 
ATOM     23  C   UNL     1       2.105   6.330  20.134  0.00  0.00    +0.000 A 
ATOM     24  C   UNL     1       2.414   7.084  18.998  0.00  0.00    +0.000 A 
ENDBRANCH  17  23
ENDBRANCH  16  17
ENDBRANCH  15  16
ENDBRANCH  14  15
ENDBRANCH   1  14
TORSDOF 6
ENDMDL
