MODEL 1
REMARK VINA RESULT:      -8.8      0.000      0.000
REMARK  Name = 
REMARK  6 active torsions:
REMARK  status: ('A' for Active; 'I' for Inactive)
REMARK    1  A    between atoms: C_1  and  C_2
REMARK    2  A    between atoms: C_4  and  C_5
REMARK    3  A    between atoms: N_6  and  C_7
REMARK    4  A    between atoms: C_7  and  C_8
REMARK    5  A    between atoms: N_17  and  C_18
REMARK    6  A    between atoms: C_18  and  C_19
REMARK                            x       y       z     vdW  Elec       q    Type
REMARK                         _______ _______ _______ _____ _____    ______ ____
ROOT
ATOM      1  C   UNL     1       4.463   4.534  19.497  0.00  0.00    +0.000 C 
ATOM      2  O   UNL     1       4.145   5.685  19.832  0.00  0.00    +0.000 OA
ATOM      3  N   UNL     1       3.802   3.235  19.937  0.00  0.00    +0.000 N 
ATOM      4  C   UNL     1       3.846   2.276  18.913  0.00  0.00    +0.000 C 
ATOM      5  C   UNL     1       2.709   2.702  17.966  0.00  0.00    +0.000 C 
ATOM      6  C   UNL     1       1.547   1.712  18.200  0.00  0.00    +0.000 C 
ATOM      7  C   UNL     1       0.466   2.400  19.014  0.00  0.00    +0.000 C 
ATOM      8  C   UNL     1       1.077   3.368  20.090  0.00  0.00    +0.000 C 
ATOM      9  C   UNL     1       2.416   2.883  20.742  0.00  0.00    +0.000 C 
ATOM     10  N   UNL     1       1.466   4.630  19.508  0.00  0.00    +0.000 NA
ATOM     11  C   UNL     1       2.152   4.278  18.180  0.00  0.00    +0.000 C 
ENDROOT
BRANCH   1  12
ATOM     12  C   UNL     1       5.719   4.489  18.535  0.00  0.00    +0.000 C 
BRANCH  12  18
ATOM     13  C   UNL     1       8.759   9.307  17.925  0.00  0.00    +0.000 C 
ATOM     14  C   UNL     1       7.985   8.013  18.002  0.00  0.00    +0.000 A 
ATOM     15  C   UNL     1       6.919   7.762  17.058  0.00  0.00    +0.000 A 
ATOM     16  C   UNL     1       6.220   6.627  17.176  0.00  0.00    +0.000 A 
ATOM     17  C   UNL     1       5.105   6.403  16.202  0.00  0.00    +0.000 C 
ATOM     18  N   UNL     1       6.531   5.717  18.199  0.00  0.00    +0.000 N 
ATOM     19  C   UNL     1       7.591   6.021  19.093  0.00  0.00    +0.000 A 
ATOM     20  O   UNL     1       7.877   5.254  20.017  0.00  0.00    +0.000 OA
ATOM     21  N   UNL     1       8.288   7.191  18.969  0.00  0.00    +0.000 NA
ENDBRANCH  12  18
ENDBRANCH   1  12
BRANCH  10  22
ATOM     22  C   UNL     1       1.931   5.634  20.664  0.00  0.00    +0.000 C 
BRANCH  22  23
ATOM     23  C   UNL     1       1.687   7.329  20.735  0.00  0.00    +0.000 C 
ATOM     24  C   UNL     1       1.514   8.508  19.565  0.00  0.00    +0.000 C 
ATOM     25  C   UNL     1       0.887   9.390  20.619  0.00  0.00    +0.000 C 
ATOM     26  C   UNL     1       0.396   8.068  21.295  0.00  0.00    +0.000 C 
ENDBRANCH  22  23
ENDBRANCH  10  22
TORSDOF 4
ENDMDL
MODEL 2
REMARK VINA RESULT:      -8.1      2.536      6.067
REMARK  Name = 
REMARK  6 active torsions:
REMARK  status: ('A' for Active; 'I' for Inactive)
REMARK    1  A    between atoms: C_1  and  C_2
REMARK    2  A    between atoms: C_4  and  C_5
REMARK    3  A    between atoms: N_6  and  C_7
REMARK    4  A    between atoms: C_7  and  C_8
REMARK    5  A    between atoms: N_17  and  C_18
REMARK    6  A    between atoms: C_18  and  C_19
REMARK                            x       y       z     vdW  Elec       q    Type
REMARK                         _______ _______ _______ _____ _____    ______ ____
ROOT
ATOM      1  C   UNL     1       2.636   6.257  18.623  0.00  0.00    +0.000 C 
ATOM      2  O   UNL     1       3.547   6.296  17.783  0.00  0.00    +0.000 OA
ATOM      3  N   UNL     1       1.603   5.154  18.806  0.00  0.00    +0.000 N 
ATOM      4  C   UNL     1       1.252   5.011  20.157  0.00  0.00    +0.000 C 
ATOM      5  C   UNL     1       2.425   4.210  20.755  0.00  0.00    +0.000 C 
ATOM      6  C   UNL     1       1.913   2.767  20.956  0.00  0.00    +0.000 C 
ATOM      7  C   UNL     1       2.498   1.878  19.874  0.00  0.00    +0.000 C 
ATOM      8  C   UNL     1       2.603   2.630  18.499  0.00  0.00    +0.000 C 
ATOM      9  C   UNL     1       1.443   3.638  18.199  0.00  0.00    +0.000 C 
ATOM     10  N   UNL     1       3.764   3.485  18.449  0.00  0.00    +0.000 NA
ATOM     11  C   UNL     1       3.823   4.181  19.816  0.00  0.00    +0.000 C 
ENDROOT
BRANCH   1  12
ATOM     12  C   UNL     1       2.585   7.541  19.548  0.00  0.00    +0.000 C 
BRANCH  12  18
ATOM     13  C   UNL     1      -1.046  11.915  18.830  0.00  0.00    +0.000 C 
ATOM     14  C   UNL     1      -0.161  10.708  19.033  0.00  0.00    +0.000 A 
ATOM     15  C   UNL     1      -0.177  10.018  20.303  0.00  0.00    +0.000 A 
ATOM     16  C   UNL     1       0.649   8.978  20.472  0.00  0.00    +0.000 A 
ATOM     17  C   UNL     1       0.632   8.297  21.805  0.00  0.00    +0.000 C 
ATOM     18  N   UNL     1       1.501   8.586  19.428  0.00  0.00    +0.000 N 
ATOM     19  C   UNL     1       1.468   9.304  18.203  0.00  0.00    +0.000 A 
ATOM     20  O   UNL     1       2.219   9.000  17.272  0.00  0.00    +0.000 OA
ATOM     21  N   UNL     1       0.628  10.372  18.050  0.00  0.00    +0.000 NA
ENDBRANCH  12  18
ENDBRANCH   1  12
BRANCH  10  22
ATOM     22  C   UNL     1       3.914   4.101  16.980  0.00  0.00    +0.000 C 
BRANCH  22  23
ATOM     23  C   UNL     1       5.318   4.128  15.997  0.00  0.00    +0.000 C 
ATOM     24  C   UNL     1       5.560   4.319  14.356  0.00  0.00    +0.000 C 
ATOM     25  C   UNL     1       6.994   4.682  14.661  0.00  0.00    +0.000 C 
ATOM     26  C   UNL     1       6.463   5.229  16.027  0.00  0.00    +0.000 C 
ENDBRANCH  22  23
ENDBRANCH  10  22
TORSDOF 4
ENDMDL
MODEL 3
REMARK VINA RESULT:      -7.9      2.682      3.176
REMARK  Name = 
REMARK  6 active torsions:
REMARK  status: ('A' for Active; 'I' for Inactive)
REMARK    1  A    between atoms: C_1  and  C_2
REMARK    2  A    between atoms: C_4  and  C_5
REMARK    3  A    between atoms: N_6  and  C_7
REMARK    4  A    between atoms: C_7  and  C_8
REMARK    5  A    between atoms: N_17  and  C_18
REMARK    6  A    between atoms: C_18  and  C_19
REMARK                            x       y       z     vdW  Elec       q    Type
REMARK                         _______ _______ _______ _____ _____    ______ ____
ROOT
ATOM      1  C   UNL     1       4.525   4.432  17.160  0.00  0.00    +0.000 C 
ATOM      2  O   UNL     1       4.296   5.581  16.753  0.00  0.00    +0.000 OA
ATOM      3  N   UNL     1       4.275   3.887  18.560  0.00  0.00    +0.000 N 
ATOM      4  C   UNL     1       3.923   2.529  18.516  0.00  0.00    +0.000 C 
ATOM      5  C   UNL     1       2.439   2.551  18.102  0.00  0.00    +0.000 C 
ATOM      6  C   UNL     1       1.623   2.237  19.375  0.00  0.00    +0.000 C 
ATOM      7  C   UNL     1       0.993   3.518  19.890  0.00  0.00    +0.000 C 
ATOM      8  C   UNL     1       1.944   4.753  19.691  0.00  0.00    +0.000 C 
ATOM      9  C   UNL     1       3.470   4.456  19.872  0.00  0.00    +0.000 C 
ATOM     10  N   UNL     1       1.892   5.250  18.338  0.00  0.00    +0.000 NA
ATOM     11  C   UNL     1       1.902   4.004  17.440  0.00  0.00    +0.000 C 
ENDROOT
BRANCH   1  12
ATOM     12  C   UNL     1       5.179   3.500  16.061  0.00  0.00    +0.000 C 
BRANCH  12  18
ATOM     13  C   UNL     1       8.738   6.086  12.391  0.00  0.00    +0.000 C 
ATOM     14  C   UNL     1       7.821   5.325  13.318  0.00  0.00    +0.000 A 
ATOM     15  C   UNL     1       6.697   4.599  12.771  0.00  0.00    +0.000 A 
ATOM     16  C   UNL     1       5.875   3.969  13.619  0.00  0.00    +0.000 A 
ATOM     17  C   UNL     1       4.704   3.245  13.029  0.00  0.00    +0.000 C 
ATOM     18  N   UNL     1       6.116   4.027  15.000  0.00  0.00    +0.000 N 
ATOM     19  C   UNL     1       7.239   4.756  15.475  0.00  0.00    +0.000 A 
ATOM     20  O   UNL     1       7.468   4.846  16.684  0.00  0.00    +0.000 OA
ATOM     21  N   UNL     1       8.063   5.405  14.598  0.00  0.00    +0.000 NA
ENDBRANCH  12  18
ENDBRANCH   1  12
BRANCH  10  22
ATOM     22  C   UNL     1       2.749   6.597  18.227  0.00  0.00    +0.000 C 
BRANCH  22  23
ATOM     23  C   UNL     1       2.240   8.191  18.598  0.00  0.00    +0.000 C 
ATOM     24  C   UNL     1       1.207   9.265  17.846  0.00  0.00    +0.000 C 
ATOM     25  C   UNL     1       1.106  10.007  19.157  0.00  0.00    +0.000 C 
ATOM     26  C   UNL     1       1.360   8.627  19.847  0.00  0.00    +0.000 C 
ENDBRANCH  22  23
ENDBRANCH  10  22
TORSDOF 4
ENDMDL
MODEL 4
REMARK VINA RESULT:      -7.9      1.944      2.720
REMARK  Name = 
REMARK  6 active torsions:
REMARK  status: ('A' for Active; 'I' for Inactive)
REMARK    1  A    between atoms: C_1  and  C_2
REMARK    2  A    between atoms: C_4  and  C_5
REMARK    3  A    between atoms: N_6  and  C_7
REMARK    4  A    between atoms: C_7  and  C_8
REMARK    5  A    between atoms: N_17  and  C_18
REMARK    6  A    between atoms: C_18  and  C_19
REMARK                            x       y       z     vdW  Elec       q    Type
REMARK                         _______ _______ _______ _____ _____    ______ ____
ROOT
ATOM      1  C   UNL     1       4.671   4.774  19.275  0.00  0.00    +0.000 C 
ATOM      2  O   UNL     1       4.486   5.986  19.091  0.00  0.00    +0.000 OA
ATOM      3  N   UNL     1       3.858   3.847  20.168  0.00  0.00    +0.000 N 
ATOM      4  C   UNL     1       3.803   2.551  19.631  0.00  0.00    +0.000 C 
ATOM      5  C   UNL     1       2.734   2.661  18.527  0.00  0.00    +0.000 C 
ATOM      6  C   UNL     1       1.463   1.979  19.077  0.00  0.00    +0.000 C 
ATOM      7  C   UNL     1       0.459   3.047  19.474  0.00  0.00    +0.000 C 
ATOM      8  C   UNL     1       1.166   4.306  20.093  0.00  0.00    +0.000 C 
ATOM      9  C   UNL     1       2.432   4.001  20.964  0.00  0.00    +0.000 C 
ATOM     10  N   UNL     1       1.706   5.168  19.070  0.00  0.00    +0.000 NA
ATOM     11  C   UNL     1       2.362   4.231  18.045  0.00  0.00    +0.000 C 
ENDROOT
BRANCH   1  12
ATOM     12  C   UNL     1       5.925   4.208  18.492  0.00  0.00    +0.000 C 
BRANCH  12  18
ATOM     13  C   UNL     1       7.277   5.008  12.982  0.00  0.00    +0.000 C 
ATOM     14  C   UNL     1       6.877   4.878  14.432  0.00  0.00    +0.000 A 
ATOM     15  C   UNL     1       7.357   5.846  15.393  0.00  0.00    +0.000 A 
ATOM     16  C   UNL     1       7.024   5.683  16.679  0.00  0.00    +0.000 A 
ATOM     17  C   UNL     1       7.554   6.684  17.658  0.00  0.00    +0.000 C 
ATOM     18  N   UNL     1       6.231   4.590  17.063  0.00  0.00    +0.000 N 
ATOM     19  C   UNL     1       5.790   3.675  16.071  0.00  0.00    +0.000 A 
ATOM     20  O   UNL     1       5.110   2.692  16.376  0.00  0.00    +0.000 OA
ATOM     21  N   UNL     1       6.148   3.848  14.762  0.00  0.00    +0.000 NA
ENDBRANCH  12  18
ENDBRANCH   1  12
BRANCH  10  22
ATOM     22  C   UNL     1       2.271   6.507  19.739  0.00  0.00    +0.000 C 
BRANCH  22  23
ATOM     23  C   UNL     1       2.114   8.112  19.157  0.00  0.00    +0.000 C 
ATOM     24  C   UNL     1       1.653   8.753  17.686  0.00  0.00    +0.000 C 
ATOM     25  C   UNL     1       1.385  10.058  18.396  0.00  0.00    +0.000 C 
ATOM     26  C   UNL     1       1.064   9.193  19.659  0.00  0.00    +0.000 C 
ENDBRANCH  22  23
ENDBRANCH  10  22
TORSDOF 4
ENDMDL
MODEL 5
REMARK VINA RESULT:      -7.8      2.508      5.982
REMARK  Name = 
REMARK  6 active torsions:
REMARK  status: ('A' for Active; 'I' for Inactive)
REMARK    1  A    between atoms: C_1  and  C_2
REMARK    2  A    between atoms: C_4  and  C_5
REMARK    3  A    between atoms: N_6  and  C_7
REMARK    4  A    between atoms: C_7  and  C_8
REMARK    5  A    between atoms: N_17  and  C_18
REMARK    6  A    between atoms: C_18  and  C_19
REMARK                            x       y       z     vdW  Elec       q    Type
REMARK                         _______ _______ _______ _____ _____    ______ ____
ROOT
ATOM      1  C   UNL     1       2.564   6.233  18.915  0.00  0.00    +0.000 C 
ATOM      2  O   UNL     1       3.526   6.357  18.142  0.00  0.00    +0.000 OA
ATOM      3  N   UNL     1       1.506   5.139  18.895  0.00  0.00    +0.000 N 
ATOM      4  C   UNL     1       1.070   4.837  20.195  0.00  0.00    +0.000 C 
ATOM      5  C   UNL     1       2.191   3.941  20.755  0.00  0.00    +0.000 C 
ATOM      6  C   UNL     1       1.647   2.496  20.742  0.00  0.00    +0.000 C 
ATOM      7  C   UNL     1       2.285   1.736  19.594  0.00  0.00    +0.000 C 
ATOM      8  C   UNL     1       2.485   2.652  18.333  0.00  0.00    +0.000 C 
ATOM      9  C   UNL     1       1.361   3.715  18.093  0.00  0.00    +0.000 C 
ATOM     10  N   UNL     1       3.660   3.480  18.460  0.00  0.00    +0.000 NA
ATOM     11  C   UNL     1       3.644   3.999  19.905  0.00  0.00    +0.000 C 
ENDROOT
BRANCH   1  12
ATOM     12  C   UNL     1       2.475   7.392  19.989  0.00  0.00    +0.000 C 
BRANCH  12  18
ATOM     13  C   UNL     1      -1.580  11.428  19.678  0.00  0.00    +0.000 C 
ATOM     14  C   UNL     1      -0.449  10.430  19.748  0.00  0.00    +0.000 A 
ATOM     15  C   UNL     1       0.414  10.250  18.602  0.00  0.00    +0.000 A 
ATOM     16  C   UNL     1       1.381   9.327  18.675  0.00  0.00    +0.000 A 
ATOM     17  C   UNL     1       2.245   9.141  17.466  0.00  0.00    +0.000 C 
ATOM     18  N   UNL     1       1.535   8.565  19.843  0.00  0.00    +0.000 N 
ATOM     19  C   UNL     1       0.656   8.792  20.935  0.00  0.00    +0.000 A 
ATOM     20  O   UNL     1       0.748   8.125  21.970  0.00  0.00    +0.000 OA
ATOM     21  N   UNL     1      -0.337   9.729  20.842  0.00  0.00    +0.000 NA
ENDBRANCH  12  18
ENDBRANCH   1  12
BRANCH  10  22
ATOM     22  C   UNL     1       3.910   4.272  17.092  0.00  0.00    +0.000 C 
BRANCH  22  23
ATOM     23  C   UNL     1       5.311   4.236  16.106  0.00  0.00    +0.000 C 
ATOM     24  C   UNL     1       5.552   4.360  14.459  0.00  0.00    +0.000 C 
ATOM     25  C   UNL     1       6.992   4.710  14.747  0.00  0.00    +0.000 C 
ATOM     26  C   UNL     1       6.475   5.318  16.092  0.00  0.00    +0.000 C 
ENDBRANCH  22  23
ENDBRANCH  10  22
TORSDOF 4
ENDMDL
MODEL 6
REMARK VINA RESULT:      -7.6      1.861      2.675
REMARK  Name = 
REMARK  6 active torsions:
REMARK  status: ('A' for Active; 'I' for Inactive)
REMARK    1  A    between atoms: C_1  and  C_2
REMARK    2  A    between atoms: C_4  and  C_5
REMARK    3  A    between atoms: N_6  and  C_7
REMARK    4  A    between atoms: C_7  and  C_8
REMARK    5  A    between atoms: N_17  and  C_18
REMARK    6  A    between atoms: C_18  and  C_19
REMARK                            x       y       z     vdW  Elec       q    Type
REMARK                         _______ _______ _______ _____ _____    ______ ____
ROOT
ATOM      1  C   UNL     1       4.632   4.962  19.369  0.00  0.00    +0.000 C 
ATOM      2  O   UNL     1       4.402   6.151  19.102  0.00  0.00    +0.000 OA
ATOM      3  N   UNL     1       3.864   4.074  20.339  0.00  0.00    +0.000 N 
ATOM      4  C   UNL     1       3.847   2.742  19.896  0.00  0.00    +0.000 C 
ATOM      5  C   UNL     1       2.761   2.736  18.804  0.00  0.00    +0.000 C 
ATOM      6  C   UNL     1       1.521   2.053  19.421  0.00  0.00    +0.000 C 
ATOM      7  C   UNL     1       0.486   3.111  19.756  0.00  0.00    +0.000 C 
ATOM      8  C   UNL     1       1.157   4.435  20.273  0.00  0.00    +0.000 C 
ATOM      9  C   UNL     1       2.443   4.236  21.143  0.00  0.00    +0.000 C 
ATOM     10  N   UNL     1       1.652   5.239  19.183  0.00  0.00    +0.000 NA
ATOM     11  C   UNL     1       2.327   4.254  18.217  0.00  0.00    +0.000 C 
ENDROOT
BRANCH   1  12
ATOM     12  C   UNL     1       5.894   4.385  18.608  0.00  0.00    +0.000 C 
BRANCH  12  18
ATOM     13  C   UNL     1       7.179   4.929  13.051  0.00  0.00    +0.000 C 
ATOM     14  C   UNL     1       6.799   4.867  14.511  0.00  0.00    +0.000 A 
ATOM     15  C   UNL     1       7.310   5.865  15.424  0.00  0.00    +0.000 A 
ATOM     16  C   UNL     1       6.993   5.762  16.720  0.00  0.00    +0.000 A 
ATOM     17  C   UNL     1       7.556   6.793  17.649  0.00  0.00    +0.000 C 
ATOM     18  N   UNL     1       6.186   4.701  17.161  0.00  0.00    +0.000 N 
ATOM     19  C   UNL     1       5.714   3.755  16.214  0.00  0.00    +0.000 A 
ATOM     20  O   UNL     1       5.020   2.798  16.569  0.00  0.00    +0.000 OA
ATOM     21  N   UNL     1       6.056   3.866  14.894  0.00  0.00    +0.000 NA
ENDBRANCH  12  18
ENDBRANCH   1  12
BRANCH  10  22
ATOM     22  C   UNL     1       2.179   6.641  19.746  0.00  0.00    +0.000 C 
BRANCH  22  23
ATOM     23  C   UNL     1       1.253   7.890  20.469  0.00  0.00    +0.000 C 
ATOM     24  C   UNL     1       1.426   8.770  21.877  0.00  0.00    +0.000 C 
ATOM     25  C   UNL     1       0.495   9.802  21.287  0.00  0.00    +0.000 C 
ATOM     26  C   UNL     1       1.042   9.355  19.891  0.00  0.00    +0.000 C 
ENDBRANCH  22  23
ENDBRANCH  10  22
TORSDOF 4
ENDMDL
MODEL 7
REMARK VINA RESULT:      -7.6      1.653      2.229
REMARK  Name = 
REMARK  6 active torsions:
REMARK  status: ('A' for Active; 'I' for Inactive)
REMARK    1  A    between atoms: C_1  and  C_2
REMARK    2  A    between atoms: C_4  and  C_5
REMARK    3  A    between atoms: N_6  and  C_7
REMARK    4  A    between atoms: C_7  and  C_8
REMARK    5  A    between atoms: N_17  and  C_18
REMARK    6  A    between atoms: C_18  and  C_19
REMARK                            x       y       z     vdW  Elec       q    Type
REMARK                         _______ _______ _______ _____ _____    ______ ____
ROOT
ATOM      1  C   UNL     1       4.647   5.286  19.625  0.00  0.00    +0.000 C 
ATOM      2  O   UNL     1       4.032   6.319  19.929  0.00  0.00    +0.000 OA
ATOM      3  N   UNL     1       4.253   3.853  19.954  0.00  0.00    +0.000 N 
ATOM      4  C   UNL     1       4.650   2.975  18.934  0.00  0.00    +0.000 C 
ATOM      5  C   UNL     1       3.577   3.173  17.845  0.00  0.00    +0.000 C 
ATOM      6  C   UNL     1       2.655   1.936  17.907  0.00  0.00    +0.000 C 
ATOM      7  C   UNL     1       1.348   2.324  18.574  0.00  0.00    +0.000 C 
ATOM      8  C   UNL     1       1.575   3.357  19.736  0.00  0.00    +0.000 C 
ATOM      9  C   UNL     1       2.893   3.161  20.558  0.00  0.00    +0.000 C 
ATOM     10  N   UNL     1       1.734   4.699  19.228  0.00  0.00    +0.000 NA
ATOM     11  C   UNL     1       2.649   4.570  18.002  0.00  0.00    +0.000 C 
ENDROOT
BRANCH   1  12
ATOM     12  C   UNL     1       5.994   5.570  18.843  0.00  0.00    +0.000 C 
BRANCH  12  18
ATOM     13  C   UNL     1       7.174   4.880  13.279  0.00  0.00    +0.000 C 
ATOM     14  C   UNL     1       6.781   5.026  14.729  0.00  0.00    +0.000 A 
ATOM     15  C   UNL     1       5.662   5.870  15.083  0.00  0.00    +0.000 A 
ATOM     16  C   UNL     1       5.362   6.017  16.379  0.00  0.00    +0.000 A 
ATOM     17  C   UNL     1       4.215   6.917  16.721  0.00  0.00    +0.000 C 
ATOM     18  N   UNL     1       6.128   5.359  17.354  0.00  0.00    +0.000 N 
ATOM     19  C   UNL     1       7.214   4.541  16.941  0.00  0.00    +0.000 A 
ATOM     20  O   UNL     1       7.922   3.966  17.771  0.00  0.00    +0.000 OA
ATOM     21  N   UNL     1       7.517   4.411  15.613  0.00  0.00    +0.000 NA
ENDBRANCH  12  18
ENDBRANCH   1  12
BRANCH  10  22
ATOM     22  C   UNL     1       1.801   5.730  20.450  0.00  0.00    +0.000 C 
BRANCH  22  23
ATOM     23  C   UNL     1       1.124   7.304  20.526  0.00  0.00    +0.000 C 
ATOM     24  C   UNL     1       1.173   8.513  21.675  0.00  0.00    +0.000 C 
ATOM     25  C   UNL     1       0.771   9.487  20.594  0.00  0.00    +0.000 C 
ATOM     26  C   UNL     1       1.507   8.534  19.596  0.00  0.00    +0.000 C 
ENDBRANCH  22  23
ENDBRANCH  10  22
TORSDOF 4
ENDMDL
MODEL 8
REMARK VINA RESULT:      -7.5      2.153      2.901
REMARK  Name = 
REMARK  6 active torsions:
REMARK  status: ('A' for Active; 'I' for Inactive)
REMARK    1  A    between atoms: C_1  and  C_2
REMARK    2  A    between atoms: C_4  and  C_5
REMARK    3  A    between atoms: N_6  and  C_7
REMARK    4  A    between atoms: C_7  and  C_8
REMARK    5  A    between atoms: N_17  and  C_18
REMARK    6  A    between atoms: C_18  and  C_19
REMARK                            x       y       z     vdW  Elec       q    Type
REMARK                         _______ _______ _______ _____ _____    ______ ____
ROOT
ATOM      1  C   UNL     1       4.882   5.137  18.714  0.00  0.00    +0.000 C 
ATOM      2  O   UNL     1       4.660   6.213  18.139  0.00  0.00    +0.000 OA
ATOM      3  N   UNL     1       4.111   4.547  19.887  0.00  0.00    +0.000 N 
ATOM      4  C   UNL     1       4.083   3.145  19.817  0.00  0.00    +0.000 C 
ATOM      5  C   UNL     1       2.992   2.856  18.768  0.00  0.00    +0.000 C 
ATOM      6  C   UNL     1       1.750   2.373  19.548  0.00  0.00    +0.000 C 
ATOM      7  C   UNL     1       0.724   3.491  19.589  0.00  0.00    +0.000 C 
ATOM      8  C   UNL     1       1.406   4.899  19.733  0.00  0.00    +0.000 C 
ATOM      9  C   UNL     1       2.695   4.930  20.622  0.00  0.00    +0.000 C 
ATOM     10  N   UNL     1       1.904   5.379  18.466  0.00  0.00    +0.000 NA
ATOM     11  C   UNL     1       2.567   4.166  17.797  0.00  0.00    +0.000 C 
ENDROOT
BRANCH   1  12
ATOM     12  C   UNL     1       6.137   4.367  18.132  0.00  0.00    +0.000 C 
BRANCH  12  18
ATOM     13  C   UNL     1       7.465   5.230  12.626  0.00  0.00    +0.000 C 
ATOM     14  C   UNL     1       7.152   4.919  14.070  0.00  0.00    +0.000 A 
ATOM     15  C   UNL     1       6.257   3.828  14.386  0.00  0.00    +0.000 A 
ATOM     16  C   UNL     1       5.962   3.602  15.672  0.00  0.00    +0.000 A 
ATOM     17  C   UNL     1       5.013   2.483  15.972  0.00  0.00    +0.000 C 
ATOM     18  N   UNL     1       6.516   4.417  16.672  0.00  0.00    +0.000 N 
ATOM     19  C   UNL     1       7.390   5.471  16.296  0.00  0.00    +0.000 A 
ATOM     20  O   UNL     1       7.878   6.221  17.146  0.00  0.00    +0.000 OA
ATOM     21  N   UNL     1       7.673   5.699  14.977  0.00  0.00    +0.000 NA
ENDBRANCH  12  18
ENDBRANCH   1  12
BRANCH  10  22
ATOM     22  C   UNL     1       2.443   6.876  18.632  0.00  0.00    +0.000 C 
BRANCH  22  23
ATOM     23  C   UNL     1       1.536   8.328  18.545  0.00  0.00    +0.000 C 
ATOM     24  C   UNL     1       0.976   9.396  19.700  0.00  0.00    +0.000 C 
ATOM     25  C   UNL     1       0.829  10.424  18.604  0.00  0.00    +0.000 C 
ATOM     26  C   UNL     1       2.016   9.695  17.893  0.00  0.00    +0.000 C 
ENDBRANCH  22  23
ENDBRANCH  10  22
TORSDOF 4
ENDMDL
MODEL 9
REMARK VINA RESULT:      -7.2      2.136      5.499
REMARK  Name = 
REMARK  6 active torsions:
REMARK  status: ('A' for Active; 'I' for Inactive)
REMARK    1  A    between atoms: C_1  and  C_2
REMARK    2  A    between atoms: C_4  and  C_5
REMARK    3  A    between atoms: N_6  and  C_7
REMARK    4  A    between atoms: C_7  and  C_8
REMARK    5  A    between atoms: N_17  and  C_18
REMARK    6  A    between atoms: C_18  and  C_19
REMARK                            x       y       z     vdW  Elec       q    Type
REMARK                         _______ _______ _______ _____ _____    ______ ____
ROOT
ATOM      1  C   UNL     1       2.720   6.141  18.979  0.00  0.00    +0.000 C 
ATOM      2  O   UNL     1       3.848   6.604  18.758  0.00  0.00    +0.000 OA
ATOM      3  N   UNL     1       2.051   4.972  18.268  0.00  0.00    +0.000 N 
ATOM      4  C   UNL     1       1.223   4.256  19.146  0.00  0.00    +0.000 C 
ATOM      5  C   UNL     1       2.210   3.389  19.951  0.00  0.00    +0.000 C 
ATOM      6  C   UNL     1       2.079   1.951  19.404  0.00  0.00    +0.000 C 
ATOM      7  C   UNL     1       3.281   1.641  18.531  0.00  0.00    +0.000 C 
ATOM      8  C   UNL     1       3.739   2.898  17.706  0.00  0.00    +0.000 C 
ATOM      9  C   UNL     1       2.582   3.832  17.214  0.00  0.00    +0.000 C 
ATOM     10  N   UNL     1       4.531   3.799  18.509  0.00  0.00    +0.000 NA
ATOM     11  C   UNL     1       3.821   3.874  19.868  0.00  0.00    +0.000 C 
ENDROOT
BRANCH   1  12
ATOM     12  C   UNL     1       1.937   6.921  20.112  0.00  0.00    +0.000 C 
BRANCH  12  18
ATOM     13  C   UNL     1       0.183  12.375  20.145  0.00  0.00    +0.000 C 
ATOM     14  C   UNL     1       0.724  10.966  20.099  0.00  0.00    +0.000 A 
ATOM     15  C   UNL     1       1.047  10.368  18.823  0.00  0.00    +0.000 A 
ATOM     16  C   UNL     1       1.483   9.103  18.808  0.00  0.00    +0.000 A 
ATOM     17  C   UNL     1       1.787   8.498  17.472  0.00  0.00    +0.000 C 
ATOM     18  N   UNL     1       1.613   8.392  20.011  0.00  0.00    +0.000 N 
ATOM     19  C   UNL     1       1.281   9.038  21.232  0.00  0.00    +0.000 A 
ATOM     20  O   UNL     1       1.363   8.436  22.307  0.00  0.00    +0.000 OA
ATOM     21  N   UNL     1       0.825  10.327  21.232  0.00  0.00    +0.000 NA
ENDBRANCH  12  18
ENDBRANCH   1  12
BRANCH  10  22
ATOM     22  C   UNL     1       5.104   4.975  17.588  0.00  0.00    +0.000 C 
BRANCH  22  23
ATOM     23  C   UNL     1       6.599   5.797  17.755  0.00  0.00    +0.000 C 
ATOM     24  C   UNL     1       7.049   7.395  17.581  0.00  0.00    +0.000 C 
ATOM     25  C   UNL     1       8.282   7.084  18.396  0.00  0.00    +0.000 C 
ATOM     26  C   UNL     1       7.420   5.987  19.102  0.00  0.00    +0.000 C 
ENDBRANCH  22  23
ENDBRANCH  10  22
TORSDOF 4
ENDMDL
