MODEL 1
REMARK VINA RESULT:      -8.0      0.000      0.000
REMARK  Name = 
REMARK  10 active torsions:
REMARK  status: ('A' for Active; 'I' for Inactive)
REMARK    1  A    between atoms: C_1  and  O_2
REMARK    2  A    between atoms: O_2  and  C_3
REMARK    3  A    between atoms: C_7  and  C_8
REMARK    4  A    between atoms: C_8  and  O_9
REMARK    5  A    between atoms: O_9  and  C_10
REMARK    6  A    between atoms: C_10  and  C_12
REMARK    7  A    between atoms: N_15  and  S_16
REMARK    8  A    between atoms: S_16  and  C_19
REMARK    9  A    between atoms: C_28  and  O_29
REMARK   10  A    between atoms: O_29  and  C_30
REMARK                            x       y       z     vdW  Elec       q    Type
REMARK                         _______ _______ _______ _____ _____    ______ ____
ROOT
ATOM      1  C   UNL     1       2.081   3.321  19.333  0.00  0.00    +0.000 C 
ATOM      2  C   UNL     1       3.364   2.489  19.433  0.00  0.00    +0.000 C 
ATOM      3  C   UNL     1       4.615   3.348  19.257  0.00  0.00    +0.000 C 
ATOM      4  N   UNL     1       4.565   4.061  17.949  0.00  0.00    +0.000 NA
ATOM      5  C   UNL     1       3.350   4.922  17.827  0.00  0.00    +0.000 C 
ATOM      6  C   UNL     1       2.079   4.101  18.019  0.00  0.00    +0.000 C 
ENDROOT
BRANCH   4   7
ATOM      7  S   UNL     1       6.001   4.949  17.592  0.00  0.00    +0.000 S 
ATOM      8  O   UNL     1       5.717   6.357  17.777  0.00  0.00    +0.000 OA
ATOM      9  O   UNL     1       7.097   4.311  18.288  0.00  0.00    +0.000 OA
BRANCH   7  10
ATOM     10  C   UNL     1       6.218   4.691  15.847  0.00  0.00    +0.000 A 
ATOM     11  C   UNL     1       7.359   5.211  15.225  0.00  0.00    +0.000 A 
ATOM     12  C   UNL     1       7.560   4.987  13.861  0.00  0.00    +0.000 A 
ATOM     13  C   UNL     1       6.623   4.246  13.143  0.00  0.00    +0.000 A 
ATOM     14  F   UNL     1       6.815   4.032  11.835  0.00  0.00    +0.000 F 
ATOM     15  C   UNL     1       5.491   3.722  13.761  0.00  0.00    +0.000 A 
ATOM     16  C   UNL     1       5.286   3.938  15.126  0.00  0.00    +0.000 A 
ENDBRANCH   7  10
ENDBRANCH   4   7
BRANCH   1  17
ATOM     17  C   UNL     1       1.899   4.202  20.566  0.00  0.00    +0.000 C 
ATOM     18  O   UNL     1       2.107   3.818  21.708  0.00  0.00    +0.000 OA
BRANCH  17  19
ATOM     19  O   UNL     1       1.374   5.411  20.225  0.00  0.00    +0.000 OA
BRANCH  19  20
ATOM     20  C   UNL     1       2.065   6.556  20.747  0.00  0.00    +0.000 C 
BRANCH  20  25
ATOM     21  C   UNL     1       0.552   9.849  19.504  0.00  0.00    +0.000 A 
ATOM     22  C   UNL     1       1.215   9.977  18.274  0.00  0.00    +0.000 A 
ATOM     23  C   UNL     1       2.102   9.000  17.834  0.00  0.00    +0.000 A 
ATOM     24  C   UNL     1       2.369   7.898  18.641  0.00  0.00    +0.000 A 
ATOM     25  C   UNL     1       1.774   7.782  19.908  0.00  0.00    +0.000 A 
ATOM     26  C   UNL     1       0.865   8.771  20.355  0.00  0.00    +0.000 A 
BRANCH  21  28
ATOM     27  C   UNL     1       0.053  12.149  19.764  0.00  0.00    +0.000 C 
ATOM     28  O   UNL     1      -0.361  10.790  19.899  0.00  0.00    +0.000 OA
ENDBRANCH  21  28
BRANCH  26  29
ATOM     29  O   UNL     1       0.382   8.536  21.616  0.00  0.00    +0.000 OA
ATOM     30  C   UNL     1       0.767   9.372  22.695  0.00  0.00    +0.000 C 
ENDBRANCH  26  29
ENDBRANCH  20  25
ENDBRANCH  19  20
ENDBRANCH  17  19
ENDBRANCH   1  17
TORSDOF 8
ENDMDL
MODEL 2
REMARK VINA RESULT:      -7.7      1.012      1.101
REMARK  Name = 
REMARK  10 active torsions:
REMARK  status: ('A' for Active; 'I' for Inactive)
REMARK    1  A    between atoms: C_1  and  O_2
REMARK    2  A    between atoms: O_2  and  C_3
REMARK    3  A    between atoms: C_7  and  C_8
REMARK    4  A    between atoms: C_8  and  O_9
REMARK    5  A    between atoms: O_9  and  C_10
REMARK    6  A    between atoms: C_10  and  C_12
REMARK    7  A    between atoms: N_15  and  S_16
REMARK    8  A    between atoms: S_16  and  C_19
REMARK    9  A    between atoms: C_28  and  O_29
REMARK   10  A    between atoms: O_29  and  C_30
REMARK                            x       y       z     vdW  Elec       q    Type
REMARK                         _______ _______ _______ _____ _____    ______ ____
ROOT
ATOM      1  C   UNL     1       2.177   4.201  19.162  0.00  0.00    +0.000 C 
ATOM      2  C   UNL     1       3.324   3.196  19.312  0.00  0.00    +0.000 C 
ATOM      3  C   UNL     1       4.687   3.852  19.101  0.00  0.00    +0.000 C 
ATOM      4  N   UNL     1       4.740   4.498  17.758  0.00  0.00    +0.000 NA
ATOM      5  C   UNL     1       3.665   5.520  17.585  0.00  0.00    +0.000 C 
ATOM      6  C   UNL     1       2.287   4.904  17.810  0.00  0.00    +0.000 C 
ENDROOT
BRANCH   4   7
ATOM      7  S   UNL     1       6.291   5.146  17.365  0.00  0.00    +0.000 S 
ATOM      8  O   UNL     1       6.225   6.585  17.507  0.00  0.00    +0.000 OA
ATOM      9  O   UNL     1       7.284   4.370  18.075  0.00  0.00    +0.000 OA
BRANCH   7  10
ATOM     10  C   UNL     1       6.448   4.805  15.628  0.00  0.00    +0.000 A 
ATOM     11  C   UNL     1       7.534   5.346  14.930  0.00  0.00    +0.000 A 
ATOM     12  C   UNL     1       7.689   5.059  13.571  0.00  0.00    +0.000 A 
ATOM     13  C   UNL     1       6.763   4.235  12.935  0.00  0.00    +0.000 A 
ATOM     14  F   UNL     1       6.912   3.960  11.633  0.00  0.00    +0.000 F 
ATOM     15  C   UNL     1       5.688   3.689  13.630  0.00  0.00    +0.000 A 
ATOM     16  C   UNL     1       5.528   3.968  14.989  0.00  0.00    +0.000 A 
ENDBRANCH   7  10
ENDBRANCH   4   7
BRANCH   1  17
ATOM     17  C   UNL     1       2.128   5.161  20.347  0.00  0.00    +0.000 C 
ATOM     18  O   UNL     1       2.225   4.803  21.513  0.00  0.00    +0.000 OA
BRANCH  17  19
ATOM     19  O   UNL     1       1.851   6.428  19.934  0.00  0.00    +0.000 OA
BRANCH  19  20
ATOM     20  C   UNL     1       1.510   7.358  20.973  0.00  0.00    +0.000 C 
BRANCH  20  25
ATOM     21  C   UNL     1       0.862  11.123  20.681  0.00  0.00    +0.000 A 
ATOM     22  C   UNL     1       0.992  11.290  19.294  0.00  0.00    +0.000 A 
ATOM     23  C   UNL     1       1.242  10.202  18.463  0.00  0.00    +0.000 A 
ATOM     24  C   UNL     1       1.407   8.936  19.016  0.00  0.00    +0.000 A 
ATOM     25  C   UNL     1       1.354   8.754  20.408  0.00  0.00    +0.000 A 
ATOM     26  C   UNL     1       1.092   9.858  21.255  0.00  0.00    +0.000 A 
BRANCH  21  28
ATOM     27  C   UNL     1       1.119  13.443  21.081  0.00  0.00    +0.000 C 
ATOM     28  O   UNL     1       0.560  12.192  21.481  0.00  0.00    +0.000 OA
ENDBRANCH  21  28
BRANCH  26  29
ATOM     29  O   UNL     1       1.093   9.533  22.587  0.00  0.00    +0.000 OA
ATOM     30  C   UNL     1      -0.121   9.530  23.321  0.00  0.00    +0.000 C 
ENDBRANCH  26  29
ENDBRANCH  20  25
ENDBRANCH  19  20
ENDBRANCH  17  19
ENDBRANCH   1  17
TORSDOF 8
ENDMDL
MODEL 3
REMARK VINA RESULT:      -7.6      1.039      2.154
REMARK  Name = 
REMARK  10 active torsions:
REMARK  status: ('A' for Active; 'I' for Inactive)
REMARK    1  A    between atoms: C_1  and  O_2
REMARK    2  A    between atoms: O_2  and  C_3
REMARK    3  A    between atoms: C_7  and  C_8
REMARK    4  A    between atoms: C_8  and  O_9
REMARK    5  A    between atoms: O_9  and  C_10
REMARK    6  A    between atoms: C_10  and  C_12
REMARK    7  A    between atoms: N_15  and  S_16
REMARK    8  A    between atoms: S_16  and  C_19
REMARK    9  A    between atoms: C_28  and  O_29
REMARK   10  A    between atoms: O_29  and  C_30
REMARK                            x       y       z     vdW  Elec       q    Type
REMARK                         _______ _______ _______ _____ _____    ______ ____
ROOT
ATOM      1  C   UNL     1       1.747   4.465  19.209  0.00  0.00    +0.000 C 
ATOM      2  C   UNL     1       2.739   3.301  19.097  0.00  0.00    +0.000 C 
ATOM      3  C   UNL     1       4.183   3.790  19.004  0.00  0.00    +0.000 C 
ATOM      4  N   UNL     1       4.336   4.711  17.842  0.00  0.00    +0.000 NA
ATOM      5  C   UNL     1       3.419   5.886  17.933  0.00  0.00    +0.000 C 
ATOM      6  C   UNL     1       1.966   5.435  18.049  0.00  0.00    +0.000 C 
ENDROOT
BRANCH   4   7
ATOM      7  S   UNL     1       5.966   5.207  17.565  0.00  0.00    +0.000 S 
ATOM      8  O   UNL     1       6.018   6.652  17.660  0.00  0.00    +0.000 OA
ATOM      9  O   UNL     1       6.824   4.374  18.380  0.00  0.00    +0.000 OA
BRANCH   7  10
ATOM     10  C   UNL     1       6.236   4.792  15.858  0.00  0.00    +0.000 A 
ATOM     11  C   UNL     1       5.225   4.121  15.159  0.00  0.00    +0.000 A 
ATOM     12  C   UNL     1       5.409   3.819  13.808  0.00  0.00    +0.000 A 
ATOM     13  C   UNL     1       6.594   4.194  13.177  0.00  0.00    +0.000 A 
ATOM     14  F   UNL     1       6.770   3.904  11.882  0.00  0.00    +0.000 F 
ATOM     15  C   UNL     1       7.597   4.869  13.868  0.00  0.00    +0.000 A 
ATOM     16  C   UNL     1       7.418   5.178  15.218  0.00  0.00    +0.000 A 
ENDBRANCH   7  10
ENDBRANCH   4   7
BRANCH   1  17
ATOM     17  C   UNL     1       1.828   5.126  20.581  0.00  0.00    +0.000 C 
ATOM     18  O   UNL     1       2.363   4.607  21.552  0.00  0.00    +0.000 OA
BRANCH  17  19
ATOM     19  O   UNL     1       1.136   6.298  20.597  0.00  0.00    +0.000 OA
BRANCH  19  20
ATOM     20  C   UNL     1       1.909   7.471  20.893  0.00  0.00    +0.000 C 
BRANCH  20  25
ATOM     21  C   UNL     1      -0.116  10.634  20.137  0.00  0.00    +0.000 A 
ATOM     22  C   UNL     1      -0.587  10.940  21.422  0.00  0.00    +0.000 A 
ATOM     23  C   UNL     1      -0.226  10.164  22.519  0.00  0.00    +0.000 A 
ATOM     24  C   UNL     1       0.582   9.046  22.337  0.00  0.00    +0.000 A 
ATOM     25  C   UNL     1       1.008   8.677  21.050  0.00  0.00    +0.000 A 
ATOM     26  C   UNL     1       0.647   9.468  19.933  0.00  0.00    +0.000 A 
BRANCH  21  28
ATOM     27  C   UNL     1      -1.729  11.237  18.511  0.00  0.00    +0.000 C 
ATOM     28  O   UNL     1      -0.433  11.438  19.074  0.00  0.00    +0.000 OA
ENDBRANCH  21  28
BRANCH  26  29
ATOM     29  O   UNL     1       1.115   8.974  18.743  0.00  0.00    +0.000 OA
ATOM     30  C   UNL     1       2.046   9.721  17.977  0.00  0.00    +0.000 C 
ENDBRANCH  26  29
ENDBRANCH  20  25
ENDBRANCH  19  20
ENDBRANCH  17  19
ENDBRANCH   1  17
TORSDOF 8
ENDMDL
MODEL 4
REMARK VINA RESULT:      -7.6      1.474      1.980
REMARK  Name = 
REMARK  10 active torsions:
REMARK  status: ('A' for Active; 'I' for Inactive)
REMARK    1  A    between atoms: C_1  and  O_2
REMARK    2  A    between atoms: O_2  and  C_3
REMARK    3  A    between atoms: C_7  and  C_8
REMARK    4  A    between atoms: C_8  and  O_9
REMARK    5  A    between atoms: O_9  and  C_10
REMARK    6  A    between atoms: C_10  and  C_12
REMARK    7  A    between atoms: N_15  and  S_16
REMARK    8  A    between atoms: S_16  and  C_19
REMARK    9  A    between atoms: C_28  and  O_29
REMARK   10  A    between atoms: O_29  and  C_30
REMARK                            x       y       z     vdW  Elec       q    Type
REMARK                         _______ _______ _______ _____ _____    ______ ____
ROOT
ATOM      1  C   UNL     1       2.334   6.025  18.250  0.00  0.00    +0.000 C 
ATOM      2  C   UNL     1       2.758   4.669  17.673  0.00  0.00    +0.000 C 
ATOM      3  C   UNL     1       4.276   4.517  17.632  0.00  0.00    +0.000 C 
ATOM      4  N   UNL     1       4.879   5.625  16.837  0.00  0.00    +0.000 NA
ATOM      5  C   UNL     1       4.530   6.967  17.392  0.00  0.00    +0.000 C 
ATOM      6  C   UNL     1       3.017   7.147  17.469  0.00  0.00    +0.000 C 
ENDROOT
BRANCH   4   7
ATOM      7  S   UNL     1       6.583   5.464  16.610  0.00  0.00    +0.000 S 
ATOM      8  O   UNL     1       7.173   6.784  16.692  0.00  0.00    +0.000 OA
ATOM      9  O   UNL     1       7.040   4.388  17.462  0.00  0.00    +0.000 OA
BRANCH   7  10
ATOM     10  C   UNL     1       6.722   4.940  14.918  0.00  0.00    +0.000 A 
ATOM     11  C   UNL     1       7.726   5.500  14.119  0.00  0.00    +0.000 A 
ATOM     12  C   UNL     1       7.870   5.073  12.796  0.00  0.00    +0.000 A 
ATOM     13  C   UNL     1       7.014   4.093  12.296  0.00  0.00    +0.000 A 
ATOM     14  F   UNL     1       7.151   3.684  11.029  0.00  0.00    +0.000 F 
ATOM     15  C   UNL     1       6.020   3.529  13.092  0.00  0.00    +0.000 A 
ATOM     16  C   UNL     1       5.873   3.949  14.416  0.00  0.00    +0.000 A 
ENDBRANCH   7  10
ENDBRANCH   4   7
BRANCH   1  17
ATOM     17  C   UNL     1       2.588   6.086  19.753  0.00  0.00    +0.000 C 
ATOM     18  O   UNL     1       2.711   5.095  20.460  0.00  0.00    +0.000 OA
BRANCH  17  19
ATOM     19  O   UNL     1       2.542   7.370  20.201  0.00  0.00    +0.000 OA
BRANCH  19  20
ATOM     20  C   UNL     1       1.269   7.808  20.698  0.00  0.00    +0.000 C 
BRANCH  20  25
ATOM     21  C   UNL     1       0.570  11.568  20.938  0.00  0.00    +0.000 A 
ATOM     22  C   UNL     1       0.478  11.890  19.576  0.00  0.00    +0.000 A 
ATOM     23  C   UNL     1       0.598  10.907  18.599  0.00  0.00    +0.000 A 
ATOM     24  C   UNL     1       0.852   9.591  18.972  0.00  0.00    +0.000 A 
ATOM     25  C   UNL     1       1.021   9.255  20.326  0.00  0.00    +0.000 A 
ATOM     26  C   UNL     1       0.892  10.252  21.322  0.00  0.00    +0.000 A 
BRANCH  21  28
ATOM     27  C   UNL     1      -0.960  12.831  22.231  0.00  0.00    +0.000 C 
ATOM     28  O   UNL     1       0.394  12.535  21.891  0.00  0.00    +0.000 OA
ENDBRANCH  21  28
BRANCH  26  29
ATOM     29  O   UNL     1       1.104   9.781  22.592  0.00  0.00    +0.000 OA
ATOM     30  C   UNL     1       0.004   9.454  23.425  0.00  0.00    +0.000 C 
ENDBRANCH  26  29
ENDBRANCH  20  25
ENDBRANCH  19  20
ENDBRANCH  17  19
ENDBRANCH   1  17
TORSDOF 8
ENDMDL
MODEL 5
REMARK VINA RESULT:      -7.6      0.915      1.305
REMARK  Name = 
REMARK  10 active torsions:
REMARK  status: ('A' for Active; 'I' for Inactive)
REMARK    1  A    between atoms: C_1  and  O_2
REMARK    2  A    between atoms: O_2  and  C_3
REMARK    3  A    between atoms: C_7  and  C_8
REMARK    4  A    between atoms: C_8  and  O_9
REMARK    5  A    between atoms: O_9  and  C_10
REMARK    6  A    between atoms: C_10  and  C_12
REMARK    7  A    between atoms: N_15  and  S_16
REMARK    8  A    between atoms: S_16  and  C_19
REMARK    9  A    between atoms: C_28  and  O_29
REMARK   10  A    between atoms: O_29  and  C_30
REMARK                            x       y       z     vdW  Elec       q    Type
REMARK                         _______ _______ _______ _____ _____    ______ ____
ROOT
ATOM      1  C   UNL     1       2.182   4.373  19.093  0.00  0.00    +0.000 C 
ATOM      2  C   UNL     1       3.220   3.247  19.047  0.00  0.00    +0.000 C 
ATOM      3  C   UNL     1       4.641   3.787  18.900  0.00  0.00    +0.000 C 
ATOM      4  N   UNL     1       4.742   4.630  17.674  0.00  0.00    +0.000 NA
ATOM      5  C   UNL     1       3.778   5.770  17.697  0.00  0.00    +0.000 C 
ATOM      6  C   UNL     1       2.346   5.269  17.865  0.00  0.00    +0.000 C 
ENDROOT
BRANCH   4   7
ATOM      7  S   UNL     1       6.346   5.172  17.340  0.00  0.00    +0.000 S 
ATOM      8  O   UNL     1       6.371   6.614  17.475  0.00  0.00    +0.000 OA
ATOM      9  O   UNL     1       7.258   4.336  18.089  0.00  0.00    +0.000 OA
BRANCH   7  10
ATOM     10  C   UNL     1       6.547   4.813  15.611  0.00  0.00    +0.000 A 
ATOM     11  C   UNL     1       5.621   3.970  14.985  0.00  0.00    +0.000 A 
ATOM     12  C   UNL     1       5.747   3.706  13.619  0.00  0.00    +0.000 A 
ATOM     13  C   UNL     1       6.789   4.290  12.901  0.00  0.00    +0.000 A 
ATOM     14  F   UNL     1       6.909   4.036  11.592  0.00  0.00    +0.000 F 
ATOM     15  C   UNL     1       7.706   5.135  13.520  0.00  0.00    +0.000 A 
ATOM     16  C   UNL     1       7.585   5.406  14.884  0.00  0.00    +0.000 A 
ENDBRANCH   7  10
ENDBRANCH   4   7
BRANCH   1  17
ATOM     17  C   UNL     1       2.252   5.132  20.415  0.00  0.00    +0.000 C 
ATOM     18  O   UNL     1       2.154   4.595  21.510  0.00  0.00    +0.000 OA
BRANCH  17  19
ATOM     19  O   UNL     1       2.321   6.475  20.201  0.00  0.00    +0.000 OA
BRANCH  19  20
ATOM     20  C   UNL     1       1.310   7.258  20.853  0.00  0.00    +0.000 C 
BRANCH  20  25
ATOM     21  C   UNL     1      -0.063  10.689  19.841  0.00  0.00    +0.000 A 
ATOM     22  C   UNL     1       0.700  10.931  18.689  0.00  0.00    +0.000 A 
ATOM     23  C   UNL     1       1.611   9.988  18.223  0.00  0.00    +0.000 A 
ATOM     24  C   UNL     1       1.799   8.804  18.929  0.00  0.00    +0.000 A 
ATOM     25  C   UNL     1       1.101   8.570  20.126  0.00  0.00    +0.000 A 
ATOM     26  C   UNL     1       0.168   9.524  20.597  0.00  0.00    +0.000 A 
BRANCH  21  28
ATOM     27  C   UNL     1      -2.102  11.800  19.375  0.00  0.00    +0.000 C 
ATOM     28  O   UNL     1      -0.997  11.600  20.256  0.00  0.00    +0.000 OA
ENDBRANCH  21  28
BRANCH  26  29
ATOM     29  O   UNL     1      -0.419   9.169  21.784  0.00  0.00    +0.000 OA
ATOM     30  C   UNL     1      -0.260   9.987  22.932  0.00  0.00    +0.000 C 
ENDBRANCH  26  29
ENDBRANCH  20  25
ENDBRANCH  19  20
ENDBRANCH  17  19
ENDBRANCH   1  17
TORSDOF 8
ENDMDL
MODEL 6
REMARK VINA RESULT:      -7.6      5.391      7.437
REMARK  Name = 
REMARK  10 active torsions:
REMARK  status: ('A' for Active; 'I' for Inactive)
REMARK    1  A    between atoms: C_1  and  O_2
REMARK    2  A    between atoms: O_2  and  C_3
REMARK    3  A    between atoms: C_7  and  C_8
REMARK    4  A    between atoms: C_8  and  O_9
REMARK    5  A    between atoms: O_9  and  C_10
REMARK    6  A    between atoms: C_10  and  C_12
REMARK    7  A    between atoms: N_15  and  S_16
REMARK    8  A    between atoms: S_16  and  C_19
REMARK    9  A    between atoms: C_28  and  O_29
REMARK   10  A    between atoms: O_29  and  C_30
REMARK                            x       y       z     vdW  Elec       q    Type
REMARK                         _______ _______ _______ _____ _____    ______ ____
ROOT
ATOM      1  C   UNL     1       7.853   5.982  18.088  0.00  0.00    +0.000 C 
ATOM      2  C   UNL     1       7.428   4.906  17.084  0.00  0.00    +0.000 C 
ATOM      3  C   UNL     1       5.914   4.704  17.072  0.00  0.00    +0.000 C 
ATOM      4  N   UNL     1       5.435   4.350  18.439  0.00  0.00    +0.000 NA
ATOM      5  C   UNL     1       5.788   5.396  19.444  0.00  0.00    +0.000 C 
ATOM      6  C   UNL     1       7.294   5.641  19.469  0.00  0.00    +0.000 C 
ENDROOT
BRANCH   4   7
ATOM      7  S   UNL     1       3.755   3.961  18.502  0.00  0.00    +0.000 S 
ATOM      8  O   UNL     1       3.323   3.614  17.164  0.00  0.00    +0.000 OA
ATOM      9  O   UNL     1       3.555   3.054  19.611  0.00  0.00    +0.000 OA
BRANCH   7  10
ATOM     10  C   UNL     1       2.991   5.515  18.903  0.00  0.00    +0.000 A 
ATOM     11  C   UNL     1       2.365   5.658  20.147  0.00  0.00    +0.000 A 
ATOM     12  C   UNL     1       1.790   6.884  20.490  0.00  0.00    +0.000 A 
ATOM     13  C   UNL     1       1.853   7.946  19.589  0.00  0.00    +0.000 A 
ATOM     14  F   UNL     1       1.301   9.121  19.918  0.00  0.00    +0.000 F 
ATOM     15  C   UNL     1       2.482   7.808  18.355  0.00  0.00    +0.000 A 
ATOM     16  C   UNL     1       3.062   6.587  18.007  0.00  0.00    +0.000 A 
ENDBRANCH   7  10
ENDBRANCH   4   7
BRANCH   1  17
ATOM     17  C   UNL     1       7.464   7.375  17.600  0.00  0.00    +0.000 C 
ATOM     18  O   UNL     1       6.634   7.577  16.724  0.00  0.00    +0.000 OA
BRANCH  17  19
ATOM     19  O   UNL     1       8.239   8.328  18.185  0.00  0.00    +0.000 OA
BRANCH  19  20
ATOM     20  C   UNL     1       8.014   9.672  17.734  0.00  0.00    +0.000 C 
BRANCH  20  25
ATOM     21  C   UNL     1       9.802  12.868  18.861  0.00  0.00    +0.000 A 
ATOM     22  C   UNL     1      10.505  12.379  19.973  0.00  0.00    +0.000 A 
ATOM     23  C   UNL     1      10.437  11.035  20.328  0.00  0.00    +0.000 A 
ATOM     24  C   UNL     1       9.631  10.169  19.597  0.00  0.00    +0.000 A 
ATOM     25  C   UNL     1       8.860  10.648  18.524  0.00  0.00    +0.000 A 
ATOM     26  C   UNL     1       8.933  12.013  18.157  0.00  0.00    +0.000 A 
BRANCH  21  28
ATOM     27  C   UNL     1       9.395  15.135  19.410  0.00  0.00    +0.000 C 
ATOM     28  O   UNL     1       9.922  14.180  18.489  0.00  0.00    +0.000 OA
ENDBRANCH  21  28
BRANCH  26  29
ATOM     29  O   UNL     1       8.111  12.338  17.109  0.00  0.00    +0.000 OA
ATOM     30  C   UNL     1       7.030  13.236  17.302  0.00  0.00    +0.000 C 
ENDBRANCH  26  29
ENDBRANCH  20  25
ENDBRANCH  19  20
ENDBRANCH  17  19
ENDBRANCH   1  17
TORSDOF 8
ENDMDL
MODEL 7
REMARK VINA RESULT:      -7.6      2.423      2.912
REMARK  Name = 
REMARK  10 active torsions:
REMARK  status: ('A' for Active; 'I' for Inactive)
REMARK    1  A    between atoms: C_1  and  O_2
REMARK    2  A    between atoms: O_2  and  C_3
REMARK    3  A    between atoms: C_7  and  C_8
REMARK    4  A    between atoms: C_8  and  O_9
REMARK    5  A    between atoms: O_9  and  C_10
REMARK    6  A    between atoms: C_10  and  C_12
REMARK    7  A    between atoms: N_15  and  S_16
REMARK    8  A    between atoms: S_16  and  C_19
REMARK    9  A    between atoms: C_28  and  O_29
REMARK   10  A    between atoms: O_29  and  C_30
REMARK                            x       y       z     vdW  Elec       q    Type
REMARK                         _______ _______ _______ _____ _____    ______ ____
ROOT
ATOM      1  C   UNL     1       2.805   2.629  19.879  0.00  0.00    +0.000 C 
ATOM      2  C   UNL     1       4.271   3.024  20.088  0.00  0.00    +0.000 C 
ATOM      3  C   UNL     1       4.777   3.942  18.977  0.00  0.00    +0.000 C 
ATOM      4  N   UNL     1       4.607   3.281  17.651  0.00  0.00    +0.000 NA
ATOM      5  C   UNL     1       3.183   2.919  17.385  0.00  0.00    +0.000 C 
ATOM      6  C   UNL     1       2.635   2.018  18.488  0.00  0.00    +0.000 C 
ENDROOT
BRANCH   4   7
ATOM      7  S   UNL     1       5.281   4.180  16.341  0.00  0.00    +0.000 S 
ATOM      8  O   UNL     1       6.106   3.282  15.558  0.00  0.00    +0.000 OA
ATOM      9  O   UNL     1       4.210   4.935  15.728  0.00  0.00    +0.000 OA
BRANCH   7  10
ATOM     10  C   UNL     1       6.381   5.319  17.149  0.00  0.00    +0.000 A 
ATOM     11  C   UNL     1       6.282   6.682  16.846  0.00  0.00    +0.000 A 
ATOM     12  C   UNL     1       7.116   7.593  17.498  0.00  0.00    +0.000 A 
ATOM     13  C   UNL     1       8.029   7.130  18.443  0.00  0.00    +0.000 A 
ATOM     14  F   UNL     1       8.829   8.003  19.068  0.00  0.00    +0.000 F 
ATOM     15  C   UNL     1       8.123   5.776  18.752  0.00  0.00    +0.000 A 
ATOM     16  C   UNL     1       7.290   4.859  18.107  0.00  0.00    +0.000 A 
ENDBRANCH   7  10
ENDBRANCH   4   7
BRANCH   1  17
ATOM     17  C   UNL     1       1.874   3.808  20.145  0.00  0.00    +0.000 C 
ATOM     18  O   UNL     1       0.668   3.778  19.938  0.00  0.00    +0.000 OA
BRANCH  17  19
ATOM     19  O   UNL     1       2.579   4.907  20.528  0.00  0.00    +0.000 OA
BRANCH  19  20
ATOM     20  C   UNL     1       1.794   6.053  20.889  0.00  0.00    +0.000 C 
BRANCH  20  25
ATOM     21  C   UNL     1       1.405   9.363  18.999  0.00  0.00    +0.000 A 
ATOM     22  C   UNL     1       2.229   9.114  17.892  0.00  0.00    +0.000 A 
ATOM     23  C   UNL     1       2.866   7.887  17.735  0.00  0.00    +0.000 A 
ATOM     24  C   UNL     1       2.717   6.904  18.709  0.00  0.00    +0.000 A 
ATOM     25  C   UNL     1       1.957   7.155  19.863  0.00  0.00    +0.000 A 
ATOM     26  C   UNL     1       1.302   8.400  20.021  0.00  0.00    +0.000 A 
BRANCH  21  28
ATOM     27  C   UNL     1       1.510  11.723  18.831  0.00  0.00    +0.000 C 
ATOM     28  O   UNL     1       0.740  10.555  19.113  0.00  0.00    +0.000 OA
ENDBRANCH  21  28
BRANCH  26  29
ATOM     29  O   UNL     1       0.617   8.507  21.204  0.00  0.00    +0.000 OA
ATOM     30  C   UNL     1       1.161   9.258  22.277  0.00  0.00    +0.000 C 
ENDBRANCH  26  29
ENDBRANCH  20  25
ENDBRANCH  19  20
ENDBRANCH  17  19
ENDBRANCH   1  17
TORSDOF 8
ENDMDL
MODEL 8
REMARK VINA RESULT:      -7.5      2.417      2.873
REMARK  Name = 
REMARK  10 active torsions:
REMARK  status: ('A' for Active; 'I' for Inactive)
REMARK    1  A    between atoms: C_1  and  O_2
REMARK    2  A    between atoms: O_2  and  C_3
REMARK    3  A    between atoms: C_7  and  C_8
REMARK    4  A    between atoms: C_8  and  O_9
REMARK    5  A    between atoms: O_9  and  C_10
REMARK    6  A    between atoms: C_10  and  C_12
REMARK    7  A    between atoms: N_15  and  S_16
REMARK    8  A    between atoms: S_16  and  C_19
REMARK    9  A    between atoms: C_28  and  O_29
REMARK   10  A    between atoms: O_29  and  C_30
REMARK                            x       y       z     vdW  Elec       q    Type
REMARK                         _______ _______ _______ _____ _____    ______ ____
ROOT
ATOM      1  C   UNL     1       2.636   2.659  19.811  0.00  0.00    +0.000 C 
ATOM      2  C   UNL     1       4.131   2.928  20.015  0.00  0.00    +0.000 C 
ATOM      3  C   UNL     1       4.697   3.842  18.930  0.00  0.00    +0.000 C 
ATOM      4  N   UNL     1       4.461   3.245  17.585  0.00  0.00    +0.000 NA
ATOM      5  C   UNL     1       3.010   3.007  17.324  0.00  0.00    +0.000 C 
ATOM      6  C   UNL     1       2.403   2.114  18.402  0.00  0.00    +0.000 C 
ENDROOT
BRANCH   4   7
ATOM      7  S   UNL     1       5.192   4.134  16.298  0.00  0.00    +0.000 S 
ATOM      8  O   UNL     1       6.048   3.230  15.557  0.00  0.00    +0.000 OA
ATOM      9  O   UNL     1       4.149   4.886  15.636  0.00  0.00    +0.000 OA
BRANCH   7  10
ATOM     10  C   UNL     1       6.258   5.277  17.144  0.00  0.00    +0.000 A 
ATOM     11  C   UNL     1       7.253   4.772  17.989  0.00  0.00    +0.000 A 
ATOM     12  C   UNL     1       8.120   5.657  18.635  0.00  0.00    +0.000 A 
ATOM     13  C   UNL     1       7.983   7.027  18.422  0.00  0.00    +0.000 A 
ATOM     14  F   UNL     1       8.815   7.875  19.041  0.00  0.00    +0.000 F 
ATOM     15  C   UNL     1       7.000   7.531  17.576  0.00  0.00    +0.000 A 
ATOM     16  C   UNL     1       6.132   6.652  16.924  0.00  0.00    +0.000 A 
ENDBRANCH   7  10
ENDBRANCH   4   7
BRANCH   1  17
ATOM     17  C   UNL     1       1.804   3.897  20.131  0.00  0.00    +0.000 C 
ATOM     18  O   UNL     1       0.581   3.909  20.134  0.00  0.00    +0.000 OA
BRANCH  17  19
ATOM     19  O   UNL     1       2.602   4.988  20.295  0.00  0.00    +0.000 OA
BRANCH  19  20
ATOM     20  C   UNL     1       1.953   6.157  20.817  0.00  0.00    +0.000 C 
BRANCH  20  25
ATOM     21  C   UNL     1       1.270   9.473  19.021  0.00  0.00    +0.000 A 
ATOM     22  C   UNL     1       2.045   9.292  17.866  0.00  0.00    +0.000 A 
ATOM     23  C   UNL     1       2.742   8.107  17.649  0.00  0.00    +0.000 A 
ATOM     24  C   UNL     1       2.704   7.101  18.608  0.00  0.00    +0.000 A 
ATOM     25  C   UNL     1       1.995   7.285  19.807  0.00  0.00    +0.000 A 
ATOM     26  C   UNL     1       1.280   8.486  20.027  0.00  0.00    +0.000 A 
BRANCH  21  28
ATOM     27  C   UNL     1      -0.708  10.671  18.513  0.00  0.00    +0.000 C 
ATOM     28  O   UNL     1       0.545  10.621  19.196  0.00  0.00    +0.000 OA
ENDBRANCH  21  28
BRANCH  26  29
ATOM     29  O   UNL     1       0.656   8.532  21.247  0.00  0.00    +0.000 OA
ATOM     30  C   UNL     1       1.200   9.314  22.298  0.00  0.00    +0.000 C 
ENDBRANCH  26  29
ENDBRANCH  20  25
ENDBRANCH  19  20
ENDBRANCH  17  19
ENDBRANCH   1  17
TORSDOF 8
ENDMDL
MODEL 9
REMARK VINA RESULT:      -7.5      0.866      1.806
REMARK  Name = 
REMARK  10 active torsions:
REMARK  status: ('A' for Active; 'I' for Inactive)
REMARK    1  A    between atoms: C_1  and  O_2
REMARK    2  A    between atoms: O_2  and  C_3
REMARK    3  A    between atoms: C_7  and  C_8
REMARK    4  A    between atoms: C_8  and  O_9
REMARK    5  A    between atoms: O_9  and  C_10
REMARK    6  A    between atoms: C_10  and  C_12
REMARK    7  A    between atoms: N_15  and  S_16
REMARK    8  A    between atoms: S_16  and  C_19
REMARK    9  A    between atoms: C_28  and  O_29
REMARK   10  A    between atoms: O_29  and  C_30
REMARK                            x       y       z     vdW  Elec       q    Type
REMARK                         _______ _______ _______ _____ _____    ______ ____
ROOT
ATOM      1  C   UNL     1       1.969   3.980  19.375  0.00  0.00    +0.000 C 
ATOM      2  C   UNL     1       3.128   2.976  19.370  0.00  0.00    +0.000 C 
ATOM      3  C   UNL     1       4.476   3.664  19.168  0.00  0.00    +0.000 C 
ATOM      4  N   UNL     1       4.466   4.444  17.897  0.00  0.00    +0.000 NA
ATOM      5  C   UNL     1       3.379   5.468  17.877  0.00  0.00    +0.000 C 
ATOM      6  C   UNL     1       2.016   4.819  18.098  0.00  0.00    +0.000 C 
ENDROOT
BRANCH   4   7
ATOM      7  S   UNL     1       5.994   5.144  17.505  0.00  0.00    +0.000 S 
ATOM      8  O   UNL     1       5.871   6.583  17.614  0.00  0.00    +0.000 OA
ATOM      9  O   UNL     1       7.010   4.423  18.240  0.00  0.00    +0.000 OA
BRANCH   7  10
ATOM     10  C   UNL     1       6.182   4.772  15.776  0.00  0.00    +0.000 A 
ATOM     11  C   UNL     1       7.301   5.269  15.098  0.00  0.00    +0.000 A 
ATOM     12  C   UNL     1       7.480   4.957  13.748  0.00  0.00    +0.000 A 
ATOM     13  C   UNL     1       6.544   4.153  13.101  0.00  0.00    +0.000 A 
ATOM     14  F   UNL     1       6.716   3.854  11.807  0.00  0.00    +0.000 F 
ATOM     15  C   UNL     1       5.435   3.651  13.776  0.00  0.00    +0.000 A 
ATOM     16  C   UNL     1       5.251   3.955  15.127  0.00  0.00    +0.000 A 
ENDBRANCH   7  10
ENDBRANCH   4   7
BRANCH   1  17
ATOM     17  C   UNL     1       1.969   4.813  20.653  0.00  0.00    +0.000 C 
ATOM     18  O   UNL     1       2.391   4.406  21.726  0.00  0.00    +0.000 OA
BRANCH  17  19
ATOM     19  O   UNL     1       1.340   6.004  20.456  0.00  0.00    +0.000 OA
BRANCH  19  20
ATOM     20  C   UNL     1       2.127   7.173  20.725  0.00  0.00    +0.000 C 
BRANCH  20  25
ATOM     21  C   UNL     1       0.105  10.352  20.028  0.00  0.00    +0.000 A 
ATOM     22  C   UNL     1      -0.334  10.656  21.325  0.00  0.00    +0.000 A 
ATOM     23  C   UNL     1       0.049   9.874  22.411  0.00  0.00    +0.000 A 
ATOM     24  C   UNL     1       0.845   8.752  22.206  0.00  0.00    +0.000 A 
ATOM     25  C   UNL     1       1.238   8.385  20.908  0.00  0.00    +0.000 A 
ATOM     26  C   UNL     1       0.856   9.182  19.803  0.00  0.00    +0.000 A 
BRANCH  21  28
ATOM     27  C   UNL     1       0.292  12.488  19.023  0.00  0.00    +0.000 C 
ATOM     28  O   UNL     1      -0.232  11.162  18.976  0.00  0.00    +0.000 OA
ENDBRANCH  21  28
BRANCH  26  29
ATOM     29  O   UNL     1       1.293   8.689  18.600  0.00  0.00    +0.000 OA
ATOM     30  C   UNL     1       2.269   9.395  17.852  0.00  0.00    +0.000 C 
ENDBRANCH  26  29
ENDBRANCH  20  25
ENDBRANCH  19  20
ENDBRANCH  17  19
ENDBRANCH   1  17
TORSDOF 8
ENDMDL
