MODEL 1
REMARK VINA RESULT:      -6.5      0.000      0.000
REMARK  Name = 
REMARK  4 active torsions:
REMARK  status: ('A' for Active; 'I' for Inactive)
REMARK    1  A    between atoms: C_5  and  C_6
REMARK    2  A    between atoms: C_6  and  N_7
REMARK    3  A    between atoms: N_10  and  C_11
REMARK    4  A    between atoms: C_11  and  C_12
REMARK                            x       y       z     vdW  Elec       q    Type
REMARK                         _______ _______ _______ _____ _____    ______ ____
ROOT
ATOM      1  N   UNL     1       1.726   8.407  19.848  0.00  0.00    +0.000 N 
ATOM      2  C   UNL     1       0.834   8.605  20.889  0.00  0.00    +0.000 A 
ATOM      3  C   UNL     1       0.020   9.634  20.517  0.00  0.00    +0.000 A 
ATOM      4  N   UNL     1       0.451  10.062  19.266  0.00  0.00    +0.000 N 
ATOM      5  C   UNL     1       1.466   9.281  18.865  0.00  0.00    +0.000 A 
ENDROOT
BRANCH   1   6
ATOM      6  C   UNL     1       2.693   7.309  19.780  0.00  0.00    +0.000 C 
BRANCH   6  11
ATOM      7 CL   UNL     1       0.595   1.762  18.652  0.00  0.00    +0.000 Cl
ATOM      8  C   UNL     1       1.111   3.372  18.976  0.00  0.00    +0.000 A 
ATOM      9  C   UNL     1       1.572   4.175  17.940  0.00  0.00    +0.000 A 
ATOM     10  C   UNL     1       2.033   5.465  18.219  0.00  0.00    +0.000 A 
ATOM     11  C   UNL     1       2.038   5.970  19.533  0.00  0.00    +0.000 A 
ATOM     12  C   UNL     1       1.541   5.151  20.559  0.00  0.00    +0.000 A 
ATOM     13  C   UNL     1       1.081   3.858  20.281  0.00  0.00    +0.000 A 
ENDBRANCH   6  11
ENDBRANCH   1   6
BRANCH   4  14
ATOM     14  C   UNL     1      -0.073  11.193  18.505  0.00  0.00    +0.000 C 
BRANCH  14  15
ATOM     15  C   UNL     1      -1.574  11.084  18.388  0.00  0.00    +0.000 A 
ATOM     16  C   UNL     1      -2.414  11.992  19.056  0.00  0.00    +0.000 A 
ATOM     17  C   UNL     1      -3.803  11.884  18.962  0.00  0.00    +0.000 A 
ATOM     18  C   UNL     1      -4.369  10.877  18.185  0.00  0.00    +0.000 A 
ATOM     19 CL   UNL     1      -6.078  10.729  18.086  0.00  0.00    +0.000 Cl
ATOM     20  C   UNL     1      -3.553   9.987  17.488  0.00  0.00    +0.000 A 
ATOM     21  C   UNL     1      -2.161  10.091  17.588  0.00  0.00    +0.000 A 
ENDBRANCH  14  15
ENDBRANCH   4  14
TORSDOF 4
ENDMDL
MODEL 2
REMARK VINA RESULT:      -6.5      2.456      3.003
REMARK  Name = 
REMARK  4 active torsions:
REMARK  status: ('A' for Active; 'I' for Inactive)
REMARK    1  A    between atoms: C_5  and  C_6
REMARK    2  A    between atoms: C_6  and  N_7
REMARK    3  A    between atoms: N_10  and  C_11
REMARK    4  A    between atoms: C_11  and  C_12
REMARK                            x       y       z     vdW  Elec       q    Type
REMARK                         _______ _______ _______ _____ _____    ______ ____
ROOT
ATOM      1  N   UNL     1       2.073   7.045  19.946  0.00  0.00    +0.000 N 
ATOM      2  C   UNL     1       1.472   7.628  21.050  0.00  0.00    +0.000 A 
ATOM      3  C   UNL     1       1.076   8.875  20.666  0.00  0.00    +0.000 A 
ATOM      4  N   UNL     1       1.468   9.038  19.342  0.00  0.00    +0.000 N 
ATOM      5  C   UNL     1       2.041   7.902  18.916  0.00  0.00    +0.000 A 
ENDROOT
BRANCH   1   6
ATOM      6  C   UNL     1       2.525   5.653  19.885  0.00  0.00    +0.000 C 
BRANCH   6  11
ATOM      7 CL   UNL     1       7.194   4.380  16.276  0.00  0.00    +0.000 Cl
ATOM      8  C   UNL     1       5.857   4.820  17.266  0.00  0.00    +0.000 A 
ATOM      9  C   UNL     1       6.071   5.269  18.563  0.00  0.00    +0.000 A 
ATOM     10  C   UNL     1       4.976   5.581  19.375  0.00  0.00    +0.000 A 
ATOM     11  C   UNL     1       3.656   5.449  18.905  0.00  0.00    +0.000 A 
ATOM     12  C   UNL     1       3.466   5.021  17.581  0.00  0.00    +0.000 A 
ATOM     13  C   UNL     1       4.561   4.708  16.767  0.00  0.00    +0.000 A 
ENDBRANCH   6  11
ENDBRANCH   1   6
BRANCH   4  14
ATOM     14  C   UNL     1       1.324  10.245  18.534  0.00  0.00    +0.000 C 
BRANCH  14  15
ATOM     15  C   UNL     1      -0.132  10.631  18.440  0.00  0.00    +0.000 A 
ATOM     16  C   UNL     1      -0.610  11.794  19.070  0.00  0.00    +0.000 A 
ATOM     17  C   UNL     1      -1.960  12.145  18.996  0.00  0.00    +0.000 A 
ATOM     18  C   UNL     1      -2.845  11.346  18.279  0.00  0.00    +0.000 A 
ATOM     19 CL   UNL     1      -4.511  11.764  18.207  0.00  0.00    +0.000 Cl
ATOM     20  C   UNL     1      -2.386  10.207  17.620  0.00  0.00    +0.000 A 
ATOM     21  C   UNL     1      -1.035   9.851  17.698  0.00  0.00    +0.000 A 
ENDBRANCH  14  15
ENDBRANCH   4  14
TORSDOF 4
ENDMDL
MODEL 3
REMARK VINA RESULT:      -6.5      4.274      8.257
REMARK  Name = 
REMARK  4 active torsions:
REMARK  status: ('A' for Active; 'I' for Inactive)
REMARK    1  A    between atoms: C_5  and  C_6
REMARK    2  A    between atoms: C_6  and  N_7
REMARK    3  A    between atoms: N_10  and  C_11
REMARK    4  A    between atoms: C_11  and  C_12
REMARK                            x       y       z     vdW  Elec       q    Type
REMARK                         _______ _______ _______ _____ _____    ______ ____
ROOT
ATOM      1  N   UNL     1       2.590   5.324  19.536  0.00  0.00    +0.000 N 
ATOM      2  C   UNL     1       2.055   4.591  18.488  0.00  0.00    +0.000 A 
ATOM      3  C   UNL     1       3.109   4.066  17.800  0.00  0.00    +0.000 A 
ATOM      4  N   UNL     1       4.268   4.513  18.426  0.00  0.00    +0.000 N 
ATOM      5  C   UNL     1       3.928   5.246  19.496  0.00  0.00    +0.000 A 
ENDROOT
BRANCH   1   6
ATOM      6  C   UNL     1       1.801   5.947  20.601  0.00  0.00    +0.000 C 
BRANCH   6  11
ATOM      7 CL   UNL     1       0.454  11.671  19.233  0.00  0.00    +0.000 Cl
ATOM      8  C   UNL     1       0.905  10.068  19.670  0.00  0.00    +0.000 A 
ATOM      9  C   UNL     1       1.614   9.278  18.774  0.00  0.00    +0.000 A 
ATOM     10  C   UNL     1       1.937   7.962  19.118  0.00  0.00    +0.000 A 
ATOM     11  C   UNL     1       1.557   7.419  20.360  0.00  0.00    +0.000 A 
ATOM     12  C   UNL     1       0.866   8.246  21.260  0.00  0.00    +0.000 A 
ATOM     13  C   UNL     1       0.542   9.563  20.916  0.00  0.00    +0.000 A 
ENDBRANCH   6  11
ENDBRANCH   1   6
BRANCH   4  14
ATOM     14  C   UNL     1       5.640   4.267  17.993  0.00  0.00    +0.000 C 
BRANCH  14  15
ATOM     15  C   UNL     1       6.417   5.561  17.985  0.00  0.00    +0.000 A 
ATOM     16  C   UNL     1       7.559   5.720  18.790  0.00  0.00    +0.000 A 
ATOM     17  C   UNL     1       8.271   6.922  18.795  0.00  0.00    +0.000 A 
ATOM     18  C   UNL     1       7.858   7.974  17.983  0.00  0.00    +0.000 A 
ATOM     19 CL   UNL     1       8.720   9.461  18.005  0.00  0.00    +0.000 Cl
ATOM     20  C   UNL     1       6.749   7.826  17.152  0.00  0.00    +0.000 A 
ATOM     21  C   UNL     1       6.032   6.624  17.152  0.00  0.00    +0.000 A 
ENDBRANCH  14  15
ENDBRANCH   4  14
TORSDOF 4
ENDMDL
MODEL 4
REMARK VINA RESULT:      -6.4      4.546      6.648
REMARK  Name = 
REMARK  4 active torsions:
REMARK  status: ('A' for Active; 'I' for Inactive)
REMARK    1  A    between atoms: C_5  and  C_6
REMARK    2  A    between atoms: C_6  and  N_7
REMARK    3  A    between atoms: N_10  and  C_11
REMARK    4  A    between atoms: C_11  and  C_12
REMARK                            x       y       z     vdW  Elec       q    Type
REMARK                         _______ _______ _______ _____ _____    ______ ____
ROOT
ATOM      1  N   UNL     1       4.772   4.196  17.877  0.00  0.00    +0.000 N 
ATOM      2  C   UNL     1       3.738   3.322  17.577  0.00  0.00    +0.000 A 
ATOM      3  C   UNL     1       2.695   3.659  18.388  0.00  0.00    +0.000 A 
ATOM      4  N   UNL     1       3.123   4.715  19.186  0.00  0.00    +0.000 N 
ATOM      5  C   UNL     1       4.374   5.045  18.834  0.00  0.00    +0.000 A 
ENDROOT
BRANCH   1   6
ATOM      6  C   UNL     1       6.037   4.267  17.142  0.00  0.00    +0.000 C 
BRANCH   6  11
ATOM      7 CL   UNL     1       8.881   9.311  18.849  0.00  0.00    +0.000 Cl
ATOM      8  C   UNL     1       8.144   7.847  18.324  0.00  0.00    +0.000 A 
ATOM      9  C   UNL     1       7.339   7.841  17.192  0.00  0.00    +0.000 A 
ATOM     10  C   UNL     1       6.707   6.657  16.801  0.00  0.00    +0.000 A 
ATOM     11  C   UNL     1       6.871   5.465  17.532  0.00  0.00    +0.000 A 
ATOM     12  C   UNL     1       7.712   5.489  18.656  0.00  0.00    +0.000 A 
ATOM     13  C   UNL     1       8.344   6.674  19.050  0.00  0.00    +0.000 A 
ENDBRANCH   6  11
ENDBRANCH   1   6
BRANCH   4  14
ATOM     14  C   UNL     1       2.369   5.355  20.260  0.00  0.00    +0.000 C 
BRANCH  14  15
ATOM     15  C   UNL     1       2.015   6.770  19.868  0.00  0.00    +0.000 A 
ATOM     16  C   UNL     1       2.270   7.241  18.568  0.00  0.00    +0.000 A 
ATOM     17  C   UNL     1       1.957   8.554  18.209  0.00  0.00    +0.000 A 
ATOM     18  C   UNL     1       1.372   9.406  19.140  0.00  0.00    +0.000 A 
ATOM     19 CL   UNL     1       1.007  11.029  18.706  0.00  0.00    +0.000 Cl
ATOM     20  C   UNL     1       1.081   8.949  20.424  0.00  0.00    +0.000 A 
ATOM     21  C   UNL     1       1.400   7.635  20.787  0.00  0.00    +0.000 A 
ENDBRANCH  14  15
ENDBRANCH   4  14
TORSDOF 4
ENDMDL
MODEL 5
REMARK VINA RESULT:      -6.4      4.201      6.063
REMARK  Name = 
REMARK  4 active torsions:
REMARK  status: ('A' for Active; 'I' for Inactive)
REMARK    1  A    between atoms: C_5  and  C_6
REMARK    2  A    between atoms: C_6  and  N_7
REMARK    3  A    between atoms: N_10  and  C_11
REMARK    4  A    between atoms: C_11  and  C_12
REMARK                            x       y       z     vdW  Elec       q    Type
REMARK                         _______ _______ _______ _____ _____    ______ ____
ROOT
ATOM      1  N   UNL     1       4.080   4.256  18.693  0.00  0.00    +0.000 N 
ATOM      2  C   UNL     1       2.899   3.766  18.159  0.00  0.00    +0.000 A 
ATOM      3  C   UNL     1       1.883   4.385  18.825  0.00  0.00    +0.000 A 
ATOM      4  N   UNL     1       2.465   5.221  19.772  0.00  0.00    +0.000 N 
ATOM      5  C   UNL     1       3.799   5.152  19.651  0.00  0.00    +0.000 A 
ENDROOT
BRANCH   1   6
ATOM      6  C   UNL     1       5.415   3.952  18.174  0.00  0.00    +0.000 C 
BRANCH   6  11
ATOM      7 CL   UNL     1       8.453   9.161  17.874  0.00  0.00    +0.000 Cl
ATOM      8  C   UNL     1       7.650   7.639  17.912  0.00  0.00    +0.000 A 
ATOM      9  C   UNL     1       6.590   7.391  17.049  0.00  0.00    +0.000 A 
ATOM     10  C   UNL     1       5.914   6.169  17.119  0.00  0.00    +0.000 A 
ATOM     11  C   UNL     1       6.287   5.180  18.049  0.00  0.00    +0.000 A 
ATOM     12  C   UNL     1       7.379   5.442  18.891  0.00  0.00    +0.000 A 
ATOM     13  C   UNL     1       8.056   6.665  18.823  0.00  0.00    +0.000 A 
ENDBRANCH   6  11
ENDBRANCH   1   6
BRANCH   4  14
ATOM     14  C   UNL     1       1.765   6.026  20.769  0.00  0.00    +0.000 C 
BRANCH  14  15
ATOM     15  C   UNL     1       1.577   7.433  20.254  0.00  0.00    +0.000 A 
ATOM     16  C   UNL     1       0.972   8.417  21.056  0.00  0.00    +0.000 A 
ATOM     17  C   UNL     1       0.784   9.715  20.577  0.00  0.00    +0.000 A 
ATOM     18  C   UNL     1       1.213  10.049  19.296  0.00  0.00    +0.000 A 
ATOM     19 CL   UNL     1       0.961  11.640  18.695  0.00  0.00    +0.000 Cl
ATOM     20  C   UNL     1       1.845   9.097  18.497  0.00  0.00    +0.000 A 
ATOM     21  C   UNL     1       2.028   7.795  18.975  0.00  0.00    +0.000 A 
ENDBRANCH  14  15
ENDBRANCH   4  14
TORSDOF 4
ENDMDL
MODEL 6
REMARK VINA RESULT:      -6.4      1.250      7.641
REMARK  Name = 
REMARK  4 active torsions:
REMARK  status: ('A' for Active; 'I' for Inactive)
REMARK    1  A    between atoms: C_5  and  C_6
REMARK    2  A    between atoms: C_6  and  N_7
REMARK    3  A    between atoms: N_10  and  C_11
REMARK    4  A    between atoms: C_11  and  C_12
REMARK                            x       y       z     vdW  Elec       q    Type
REMARK                         _______ _______ _______ _____ _____    ______ ____
ROOT
ATOM      1  N   UNL     1       1.198   9.830  18.948  0.00  0.00    +0.000 N 
ATOM      2  C   UNL     1       1.930   9.148  17.989  0.00  0.00    +0.000 A 
ATOM      3  C   UNL     1       2.256   7.941  18.533  0.00  0.00    +0.000 A 
ATOM      4  N   UNL     1       1.740   7.921  19.824  0.00  0.00    +0.000 N 
ATOM      5  C   UNL     1       1.073   9.064  20.041  0.00  0.00    +0.000 A 
ENDROOT
BRANCH   1   6
ATOM      6  C   UNL     1       0.537  11.118  18.726  0.00  0.00    +0.000 C 
BRANCH   6  11
ATOM      7 CL   UNL     1      -5.389  11.075  17.575  0.00  0.00    +0.000 Cl
ATOM      8  C   UNL     1      -3.712  11.020  17.957  0.00  0.00    +0.000 A 
ATOM      9  C   UNL     1      -3.179  11.915  18.877  0.00  0.00    +0.000 A 
ATOM     10  C   UNL     1      -1.807  11.894  19.147  0.00  0.00    +0.000 A 
ATOM     11  C   UNL     1      -0.951  10.980  18.504  0.00  0.00    +0.000 A 
ATOM     12  C   UNL     1      -1.517  10.067  17.600  0.00  0.00    +0.000 A 
ATOM     13  C   UNL     1      -2.889  10.088  17.328  0.00  0.00    +0.000 A 
ENDBRANCH   6  11
ENDBRANCH   1   6
BRANCH   4  14
ATOM     14  C   UNL     1       1.908   6.861  20.813  0.00  0.00    +0.000 C 
BRANCH  14  15
ATOM     15  C   UNL     1       2.273   5.568  20.124  0.00  0.00    +0.000 A 
ATOM     16  C   UNL     1       1.300   4.579  19.890  0.00  0.00    +0.000 A 
ATOM     17  C   UNL     1       1.639   3.376  19.266  0.00  0.00    +0.000 A 
ATOM     18  C   UNL     1       2.950   3.153  18.856  0.00  0.00    +0.000 A 
ATOM     19 CL   UNL     1       3.373   1.664  18.110  0.00  0.00    +0.000 Cl
ATOM     20  C   UNL     1       3.922   4.134  19.050  0.00  0.00    +0.000 A 
ATOM     21  C   UNL     1       3.585   5.337  19.680  0.00  0.00    +0.000 A 
ENDBRANCH  14  15
ENDBRANCH   4  14
TORSDOF 4
ENDMDL
MODEL 7
REMARK VINA RESULT:      -6.4      1.302      1.942
REMARK  Name = 
REMARK  4 active torsions:
REMARK  status: ('A' for Active; 'I' for Inactive)
REMARK    1  A    between atoms: C_5  and  C_6
REMARK    2  A    between atoms: C_6  and  N_7
REMARK    3  A    between atoms: N_10  and  C_11
REMARK    4  A    between atoms: C_11  and  C_12
REMARK                            x       y       z     vdW  Elec       q    Type
REMARK                         _______ _______ _______ _____ _____    ______ ____
ROOT
ATOM      1  N   UNL     1       1.727   7.921  19.732  0.00  0.00    +0.000 N 
ATOM      2  C   UNL     1       2.261   7.940  18.453  0.00  0.00    +0.000 A 
ATOM      3  C   UNL     1       1.990   9.172  17.935  0.00  0.00    +0.000 A 
ATOM      4  N   UNL     1       1.271   9.871  18.899  0.00  0.00    +0.000 N 
ATOM      5  C   UNL     1       1.153   9.104  19.993  0.00  0.00    +0.000 A 
ENDROOT
BRANCH   1   6
ATOM      6  C   UNL     1       1.909   6.828  20.691  0.00  0.00    +0.000 C 
BRANCH   6  11
ATOM      7 CL   UNL     1       3.461   1.426  18.489  0.00  0.00    +0.000 Cl
ATOM      8  C   UNL     1       2.992   2.988  19.037  0.00  0.00    +0.000 A 
ATOM      9  C   UNL     1       3.951   3.978  19.216  0.00  0.00    +0.000 A 
ATOM     10  C   UNL     1       3.567   5.230  19.706  0.00  0.00    +0.000 A 
ATOM     11  C   UNL     1       2.225   5.511  20.021  0.00  0.00    +0.000 A 
ATOM     12  C   UNL     1       1.270   4.505  19.804  0.00  0.00    +0.000 A 
ATOM     13  C   UNL     1       1.652   3.251  19.315  0.00  0.00    +0.000 A 
ENDBRANCH   6  11
ENDBRANCH   1   6
BRANCH   4  14
ATOM     14  C   UNL     1       0.699  11.206  18.759  0.00  0.00    +0.000 C 
BRANCH  14  15
ATOM     15  C   UNL     1      -0.788  11.106  18.514  0.00  0.00    +0.000 A 
ATOM     16  C   UNL     1      -1.307  10.158  17.615  0.00  0.00    +0.000 A 
ATOM     17  C   UNL     1      -2.680  10.075  17.376  0.00  0.00    +0.000 A 
ATOM     18  C   UNL     1      -3.553  10.928  18.046  0.00  0.00    +0.000 A 
ATOM     19 CL   UNL     1      -5.241  10.841  17.736  0.00  0.00    +0.000 Cl
ATOM     20  C   UNL     1      -3.062  11.852  18.966  0.00  0.00    +0.000 A 
ATOM     21  C   UNL     1      -1.685  11.941  19.201  0.00  0.00    +0.000 A 
ENDBRANCH  14  15
ENDBRANCH   4  14
TORSDOF 4
ENDMDL
MODEL 8
REMARK VINA RESULT:      -6.4      2.579      3.270
REMARK  Name = 
REMARK  4 active torsions:
REMARK  status: ('A' for Active; 'I' for Inactive)
REMARK    1  A    between atoms: C_5  and  C_6
REMARK    2  A    between atoms: C_6  and  N_7
REMARK    3  A    between atoms: N_10  and  C_11
REMARK    4  A    between atoms: C_11  and  C_12
REMARK                            x       y       z     vdW  Elec       q    Type
REMARK                         _______ _______ _______ _____ _____    ______ ____
ROOT
ATOM      1  N   UNL     1       2.262   6.721  19.830  0.00  0.00    +0.000 N 
ATOM      2  C   UNL     1       1.682   7.374  20.907  0.00  0.00    +0.000 A 
ATOM      3  C   UNL     1       1.286   8.597  20.454  0.00  0.00    +0.000 A 
ATOM      4  N   UNL     1       1.657   8.677  19.116  0.00  0.00    +0.000 N 
ATOM      5  C   UNL     1       2.217   7.514  18.751  0.00  0.00    +0.000 A 
ENDROOT
BRANCH   1   6
ATOM      6  C   UNL     1       2.705   5.325  19.848  0.00  0.00    +0.000 C 
BRANCH   6  11
ATOM      7 CL   UNL     1       7.084   4.697  15.739  0.00  0.00    +0.000 Cl
ATOM      8  C   UNL     1       5.863   4.802  16.948  0.00  0.00    +0.000 A 
ATOM      9  C   UNL     1       4.565   4.399  16.662  0.00  0.00    +0.000 A 
ATOM     10  C   UNL     1       3.570   4.531  17.634  0.00  0.00    +0.000 A 
ATOM     11  C   UNL     1       3.857   5.067  18.904  0.00  0.00    +0.000 A 
ATOM     12  C   UNL     1       5.182   5.441  19.180  0.00  0.00    +0.000 A 
ATOM     13  C   UNL     1       6.179   5.310  18.207  0.00  0.00    +0.000 A 
ENDBRANCH   6  11
ENDBRANCH   1   6
BRANCH   4  14
ATOM     14  C   UNL     1       1.505   9.833  18.238  0.00  0.00    +0.000 C 
BRANCH  14  15
ATOM     15  C   UNL     1       0.084  10.338  18.292  0.00  0.00    +0.000 A 
ATOM     16  C   UNL     1      -0.949   9.651  17.630  0.00  0.00    +0.000 A 
ATOM     17  C   UNL     1      -2.262  10.124  17.666  0.00  0.00    +0.000 A 
ATOM     18  C   UNL     1      -2.561  11.282  18.378  0.00  0.00    +0.000 A 
ATOM     19 CL   UNL     1      -4.173  11.879  18.404  0.00  0.00    +0.000 Cl
ATOM     20  C   UNL     1      -1.558  11.960  19.068  0.00  0.00    +0.000 A 
ATOM     21  C   UNL     1      -0.241  11.490  19.027  0.00  0.00    +0.000 A 
ENDBRANCH  14  15
ENDBRANCH   4  14
TORSDOF 4
ENDMDL
MODEL 9
REMARK VINA RESULT:      -6.4      4.384      8.388
REMARK  Name = 
REMARK  4 active torsions:
REMARK  status: ('A' for Active; 'I' for Inactive)
REMARK    1  A    between atoms: C_5  and  C_6
REMARK    2  A    between atoms: C_6  and  N_7
REMARK    3  A    between atoms: N_10  and  C_11
REMARK    4  A    between atoms: C_11  and  C_12
REMARK                            x       y       z     vdW  Elec       q    Type
REMARK                         _______ _______ _______ _____ _____    ______ ____
ROOT
ATOM      1  N   UNL     1       2.818   5.320  19.561  0.00  0.00    +0.000 N 
ATOM      2  C   UNL     1       2.290   4.414  18.654  0.00  0.00    +0.000 A 
ATOM      3  C   UNL     1       3.345   3.891  17.966  0.00  0.00    +0.000 A 
ATOM      4  N   UNL     1       4.494   4.510  18.448  0.00  0.00    +0.000 N 
ATOM      5  C   UNL     1       4.152   5.347  19.438  0.00  0.00    +0.000 A 
ENDROOT
BRANCH   1   6
ATOM      6  C   UNL     1       2.039   6.011  20.591  0.00  0.00    +0.000 C 
BRANCH   6  11
ATOM      7 CL   UNL     1       0.744  11.759  19.275  0.00  0.00    +0.000 Cl
ATOM      8  C   UNL     1       1.041  10.097  19.608  0.00  0.00    +0.000 A 
ATOM      9  C   UNL     1       0.715   9.568  20.850  0.00  0.00    +0.000 A 
ATOM     10  C   UNL     1       1.003   8.228  21.127  0.00  0.00    +0.000 A 
ATOM     11  C   UNL     1       1.618   7.400  20.169  0.00  0.00    +0.000 A 
ATOM     12  C   UNL     1       1.912   7.949  18.911  0.00  0.00    +0.000 A 
ATOM     13  C   UNL     1       1.625   9.290  18.633  0.00  0.00    +0.000 A 
ENDBRANCH   6  11
ENDBRANCH   1   6
BRANCH   4  14
ATOM     14  C   UNL     1       5.855   4.323  17.954  0.00  0.00    +0.000 C 
BRANCH  14  15
ATOM     15  C   UNL     1       6.601   5.635  17.990  0.00  0.00    +0.000 A 
ATOM     16  C   UNL     1       7.656   5.839  18.897  0.00  0.00    +0.000 A 
ATOM     17  C   UNL     1       8.336   7.057  18.941  0.00  0.00    +0.000 A 
ATOM     18  C   UNL     1       7.981   8.081  18.067  0.00  0.00    +0.000 A 
ATOM     19 CL   UNL     1       8.804   9.589  18.136  0.00  0.00    +0.000 Cl
ATOM     20  C   UNL     1       6.961   7.888  17.138  0.00  0.00    +0.000 A 
ATOM     21  C   UNL     1       6.274   6.670  17.098  0.00  0.00    +0.000 A 
ENDBRANCH  14  15
ENDBRANCH   4  14
TORSDOF 4
ENDMDL
