MODEL 1
REMARK VINA RESULT:      -7.0      0.000      0.000
REMARK  Name = 
REMARK  3 active torsions:
REMARK  status: ('A' for Active; 'I' for Inactive)
REMARK    1  A    between atoms: C_2  and  C_3
REMARK    2  A    between atoms: C_3  and  O_4
REMARK    3  A    between atoms: O_4  and  C_5
REMARK                            x       y       z     vdW  Elec       q    Type
REMARK                         _______ _______ _______ _____ _____    ______ ____
ROOT
ATOM      1  C   UNL     1       2.602   5.710  18.498  0.00  0.00    +0.000 A 
ATOM      2  C   UNL     1       2.757   6.725  17.558  0.00  0.00    +0.000 A 
ATOM      3  C   UNL     1       2.377   8.030  17.875  0.00  0.00    +0.000 A 
ATOM      4  C   UNL     1       1.840   8.346  19.130  0.00  0.00    +0.000 A 
ATOM      5  C   UNL     1       1.407   9.656  19.404  0.00  0.00    +0.000 A 
ATOM      6  C   UNL     1       0.848   9.977  20.638  0.00  0.00    +0.000 A 
ATOM      7 BR   UNL     1       0.233  11.733  20.967  0.00  0.00    +0.000 Br
ATOM      8  C   UNL     1       0.732   9.013  21.628  0.00  0.00    +0.000 A 
ATOM      9  C   UNL     1       1.169   7.714  21.372  0.00  0.00    +0.000 A 
ATOM     10  C   UNL     1       1.718   7.339  20.123  0.00  0.00    +0.000 A 
ATOM     11  C   UNL     1       2.132   6.023  19.788  0.00  0.00    +0.000 A 
ATOM     12 BR   UNL     1       2.037   4.601  21.077  0.00  0.00    +0.000 Br
ENDROOT
BRANCH   1  13
ATOM     13  O   UNL     1       2.913   4.403  18.248  0.00  0.00    +0.000 OA
BRANCH  13  14
ATOM     14  C   UNL     1       4.051   4.155  17.436  0.00  0.00    +0.000 C 
BRANCH  14  16
ATOM     15  O   UNL     1       5.481   3.599  19.276  0.00  0.00    +0.000 OA
ATOM     16  C   UNL     1       5.343   4.273  18.250  0.00  0.00    +0.000 C 
ATOM     17  N   UNL     1       6.359   5.083  17.770  0.00  0.00    +0.000 N 
ATOM     18  C   UNL     1       7.659   5.106  18.445  0.00  0.00    +0.000 C 
ATOM     19  C   UNL     1       8.031   6.531  18.869  0.00  0.00    +0.000 C 
ATOM     20  O   UNL     1       7.958   7.440  17.757  0.00  0.00    +0.000 OA
ATOM     21  C   UNL     1       6.631   7.456  17.205  0.00  0.00    +0.000 C 
ATOM     22  C   UNL     1       6.243   6.066  16.687  0.00  0.00    +0.000 C 
ENDBRANCH  14  16
ENDBRANCH  13  14
ENDBRANCH   1  13
TORSDOF 3
ENDMDL
MODEL 2
REMARK VINA RESULT:      -6.9      3.841      7.085
REMARK  Name = 
REMARK  3 active torsions:
REMARK  status: ('A' for Active; 'I' for Inactive)
REMARK    1  A    between atoms: C_2  and  C_3
REMARK    2  A    between atoms: C_3  and  O_4
REMARK    3  A    between atoms: O_4  and  C_5
REMARK                            x       y       z     vdW  Elec       q    Type
REMARK                         _______ _______ _______ _____ _____    ______ ____
ROOT
ATOM      1  C   UNL     1       2.072   7.141  19.738  0.00  0.00    +0.000 A 
ATOM      2  C   UNL     1       2.330   8.092  18.755  0.00  0.00    +0.000 A 
ATOM      3  C   UNL     1       3.185   7.783  17.696  0.00  0.00    +0.000 A 
ATOM      4  C   UNL     1       3.793   6.523  17.597  0.00  0.00    +0.000 A 
ATOM      5  C   UNL     1       4.698   6.256  16.554  0.00  0.00    +0.000 A 
ATOM      6  C   UNL     1       5.327   5.018  16.459  0.00  0.00    +0.000 A 
ATOM      7 BR   UNL     1       6.573   4.697  15.075  0.00  0.00    +0.000 Br
ATOM      8  C   UNL     1       5.052   4.018  17.379  0.00  0.00    +0.000 A 
ATOM      9  C   UNL     1       4.147   4.268  18.411  0.00  0.00    +0.000 A 
ATOM     10  C   UNL     1       3.505   5.520  18.560  0.00  0.00    +0.000 A 
ATOM     11  C   UNL     1       2.616   5.848  19.616  0.00  0.00    +0.000 A 
ATOM     12 BR   UNL     1       2.141   4.546  20.946  0.00  0.00    +0.000 Br
ENDROOT
BRANCH   1  13
ATOM     13  O   UNL     1       1.280   7.384  20.826  0.00  0.00    +0.000 OA
BRANCH  13  14
ATOM     14  C   UNL     1       1.515   8.590  21.538  0.00  0.00    +0.000 C 
BRANCH  14  16
ATOM     15  O   UNL     1      -0.693   8.885  22.421  0.00  0.00    +0.000 OA
ATOM     16  C   UNL     1       0.213   9.372  21.738  0.00  0.00    +0.000 C 
ATOM     17  N   UNL     1       0.116  10.647  21.204  0.00  0.00    +0.000 N 
ATOM     18  C   UNL     1      -1.055  11.477  21.497  0.00  0.00    +0.000 C 
ATOM     19  C   UNL     1      -1.747  11.925  20.205  0.00  0.00    +0.000 C 
ATOM     20  O   UNL     1      -0.818  12.559  19.310  0.00  0.00    +0.000 OA
ATOM     21  C   UNL     1       0.250  11.658  18.971  0.00  0.00    +0.000 C 
ATOM     22  C   UNL     1       1.030  11.247  20.226  0.00  0.00    +0.000 C 
ENDBRANCH  14  16
ENDBRANCH  13  14
ENDBRANCH   1  13
TORSDOF 3
ENDMDL
MODEL 3
REMARK VINA RESULT:      -6.8      4.159      7.580
REMARK  Name = 
REMARK  3 active torsions:
REMARK  status: ('A' for Active; 'I' for Inactive)
REMARK    1  A    between atoms: C_2  and  C_3
REMARK    2  A    between atoms: C_3  and  O_4
REMARK    3  A    between atoms: O_4  and  C_5
REMARK                            x       y       z     vdW  Elec       q    Type
REMARK                         _______ _______ _______ _____ _____    ______ ____
ROOT
ATOM      1  C   UNL     1       2.222   7.386  19.417  0.00  0.00    +0.000 A 
ATOM      2  C   UNL     1       2.628   8.249  18.403  0.00  0.00    +0.000 A 
ATOM      3  C   UNL     1       3.459   7.781  17.383  0.00  0.00    +0.000 A 
ATOM      4  C   UNL     1       3.896   6.449  17.356  0.00  0.00    +0.000 A 
ATOM      5  C   UNL     1       4.783   6.016  16.353  0.00  0.00    +0.000 A 
ATOM      6  C   UNL     1       5.244   4.703  16.330  0.00  0.00    +0.000 A 
ATOM      7 BR   UNL     1       6.469   4.158  14.998  0.00  0.00    +0.000 Br
ATOM      8  C   UNL     1       4.816   3.792  17.283  0.00  0.00    +0.000 A 
ATOM      9  C   UNL     1       3.928   4.206  18.276  0.00  0.00    +0.000 A 
ATOM     10  C   UNL     1       3.455   5.538  18.351  0.00  0.00    +0.000 A 
ATOM     11  C   UNL     1       2.593   6.029  19.366  0.00  0.00    +0.000 A 
ATOM     12 BR   UNL     1       1.917   4.863  20.735  0.00  0.00    +0.000 Br
ENDROOT
BRANCH   1  13
ATOM     13  O   UNL     1       1.444   7.781  20.469  0.00  0.00    +0.000 OA
BRANCH  13  14
ATOM     14  C   UNL     1       0.865   9.075  20.393  0.00  0.00    +0.000 C 
BRANCH  14  16
ATOM     15  O   UNL     1      -0.731   8.328  22.016  0.00  0.00    +0.000 OA
ATOM     16  C   UNL     1      -0.139   9.296  21.529  0.00  0.00    +0.000 C 
ATOM     17  N   UNL     1      -0.300  10.577  22.033  0.00  0.00    +0.000 N 
ATOM     18  C   UNL     1      -1.140  10.800  23.212  0.00  0.00    +0.000 C 
ATOM     19  C   UNL     1      -2.248  11.816  22.911  0.00  0.00    +0.000 C 
ATOM     20  O   UNL     1      -1.704  13.032  22.369  0.00  0.00    +0.000 OA
ATOM     21  C   UNL     1      -0.983  12.764  21.154  0.00  0.00    +0.000 C 
ATOM     22  C   UNL     1       0.192  11.816  21.420  0.00  0.00    +0.000 C 
ENDBRANCH  14  16
ENDBRANCH  13  14
ENDBRANCH   1  13
TORSDOF 3
ENDMDL
MODEL 4
REMARK VINA RESULT:      -6.6      2.896      4.878
REMARK  Name = 
REMARK  3 active torsions:
REMARK  status: ('A' for Active; 'I' for Inactive)
REMARK    1  A    between atoms: C_2  and  C_3
REMARK    2  A    between atoms: C_3  and  O_4
REMARK    3  A    between atoms: O_4  and  C_5
REMARK                            x       y       z     vdW  Elec       q    Type
REMARK                         _______ _______ _______ _____ _____    ______ ____
ROOT
ATOM      1  C   UNL     1       1.204   8.763  20.700  0.00  0.00    +0.000 A 
ATOM      2  C   UNL     1       1.114   8.603  22.080  0.00  0.00    +0.000 A 
ATOM      3  C   UNL     1       0.271   9.432  22.822  0.00  0.00    +0.000 A 
ATOM      4  C   UNL     1      -0.497  10.430  22.204  0.00  0.00    +0.000 A 
ATOM      5  C   UNL     1      -1.292  11.292  22.980  0.00  0.00    +0.000 A 
ATOM      6  C   UNL     1      -2.038  12.303  22.381  0.00  0.00    +0.000 A 
ATOM      7 BR   UNL     1      -3.063  13.478  23.449  0.00  0.00    +0.000 Br
ATOM      8  C   UNL     1      -2.029  12.459  21.003  0.00  0.00    +0.000 A 
ATOM      9  C   UNL     1      -1.254  11.602  20.222  0.00  0.00    +0.000 A 
ATOM     10  C   UNL     1      -0.460  10.579  20.793  0.00  0.00    +0.000 A 
ATOM     11  C   UNL     1       0.386   9.712  20.055  0.00  0.00    +0.000 A 
ATOM     12 BR   UNL     1       0.476   9.816  18.139  0.00  0.00    +0.000 Br
ENDROOT
BRANCH   1  13
ATOM     13  O   UNL     1       2.037   8.019  19.913  0.00  0.00    +0.000 OA
BRANCH  13  14
ATOM     14  C   UNL     1       2.057   6.617  20.140  0.00  0.00    +0.000 C 
BRANCH  14  16
ATOM     15  O   UNL     1       3.367   6.535  18.136  0.00  0.00    +0.000 OA
ATOM     16  C   UNL     1       2.935   5.906  19.106  0.00  0.00    +0.000 C 
ATOM     17  N   UNL     1       3.283   4.583  19.329  0.00  0.00    +0.000 N 
ATOM     18  C   UNL     1       4.237   3.916  18.438  0.00  0.00    +0.000 C 
ATOM     19  C   UNL     1       3.626   2.649  17.831  0.00  0.00    +0.000 C 
ATOM     20  O   UNL     1       3.109   1.780  18.854  0.00  0.00    +0.000 OA
ATOM     21  C   UNL     1       2.100   2.454  19.624  0.00  0.00    +0.000 C 
ATOM     22  C   UNL     1       2.684   3.687  20.323  0.00  0.00    +0.000 C 
ENDBRANCH  14  16
ENDBRANCH  13  14
ENDBRANCH   1  13
TORSDOF 3
ENDMDL
MODEL 5
REMARK VINA RESULT:      -6.6      3.820      6.979
REMARK  Name = 
REMARK  3 active torsions:
REMARK  status: ('A' for Active; 'I' for Inactive)
REMARK    1  A    between atoms: C_2  and  C_3
REMARK    2  A    between atoms: C_3  and  O_4
REMARK    3  A    between atoms: O_4  and  C_5
REMARK                            x       y       z     vdW  Elec       q    Type
REMARK                         _______ _______ _______ _____ _____    ______ ____
ROOT
ATOM      1  C   UNL     1       2.275   6.994  19.793  0.00  0.00    +0.000 A 
ATOM      2  C   UNL     1       2.581   7.924  18.803  0.00  0.00    +0.000 A 
ATOM      3  C   UNL     1       3.328   7.534  17.690  0.00  0.00    +0.000 A 
ATOM      4  C   UNL     1       3.779   6.215  17.543  0.00  0.00    +0.000 A 
ATOM      5  C   UNL     1       4.582   5.861  16.444  0.00  0.00    +0.000 A 
ATOM      6  C   UNL     1       5.058   4.561  16.300  0.00  0.00    +0.000 A 
ATOM      7 BR   UNL     1       6.172   4.121  14.838  0.00  0.00    +0.000 Br
ATOM      8  C   UNL     1       4.726   3.586  17.228  0.00  0.00    +0.000 A 
ATOM      9  C   UNL     1       3.921   3.922  18.316  0.00  0.00    +0.000 A 
ATOM     10  C   UNL     1       3.438   5.238  18.514  0.00  0.00    +0.000 A 
ATOM     11  C   UNL     1       2.659   5.649  19.626  0.00  0.00    +0.000 A 
ATOM     12 BR   UNL     1       2.119   4.390  20.973  0.00  0.00    +0.000 Br
ENDROOT
BRANCH   1  13
ATOM     13  O   UNL     1       1.585   7.309  20.930  0.00  0.00    +0.000 OA
BRANCH  13  14
ATOM     14  C   UNL     1       0.478   8.188  20.789  0.00  0.00    +0.000 C 
BRANCH  14  16
ATOM     15  O   UNL     1       1.344   9.762  22.375  0.00  0.00    +0.000 OA
ATOM     16  C   UNL     1       0.836   9.601  21.261  0.00  0.00    +0.000 C 
ATOM     17  N   UNL     1       0.646  10.660  20.388  0.00  0.00    +0.000 N 
ATOM     18  C   UNL     1       1.110  12.002  20.751  0.00  0.00    +0.000 C 
ATOM     19  C   UNL     1      -0.042  13.011  20.706  0.00  0.00    +0.000 C 
ATOM     20  O   UNL     1      -0.716  12.974  19.436  0.00  0.00    +0.000 OA
ATOM     21  C   UNL     1      -1.245  11.661  19.185  0.00  0.00    +0.000 C 
ATOM     22  C   UNL     1      -0.117  10.623  19.136  0.00  0.00    +0.000 C 
ENDBRANCH  14  16
ENDBRANCH  13  14
ENDBRANCH   1  13
TORSDOF 3
ENDMDL
MODEL 6
REMARK VINA RESULT:      -6.4      4.864      8.072
REMARK  Name = 
REMARK  3 active torsions:
REMARK  status: ('A' for Active; 'I' for Inactive)
REMARK    1  A    between atoms: C_2  and  C_3
REMARK    2  A    between atoms: C_3  and  O_4
REMARK    3  A    between atoms: O_4  and  C_5
REMARK                            x       y       z     vdW  Elec       q    Type
REMARK                         _______ _______ _______ _____ _____    ______ ____
ROOT
ATOM      1  C   UNL     1       1.137  10.080  19.529  0.00  0.00    +0.000 A 
ATOM      2  C   UNL     1       1.642  10.022  18.233  0.00  0.00    +0.000 A 
ATOM      3  C   UNL     1       2.205   8.836  17.760  0.00  0.00    +0.000 A 
ATOM      4  C   UNL     1       2.272   7.691  18.565  0.00  0.00    +0.000 A 
ATOM      5  C   UNL     1       2.900   6.526  18.087  0.00  0.00    +0.000 A 
ATOM      6  C   UNL     1       2.995   5.391  18.887  0.00  0.00    +0.000 A 
ATOM      7 BR   UNL     1       3.883   3.854  18.238  0.00  0.00    +0.000 Br
ATOM      8  C   UNL     1       2.450   5.382  20.161  0.00  0.00    +0.000 A 
ATOM      9  C   UNL     1       1.815   6.527  20.642  0.00  0.00    +0.000 A 
ATOM     10  C   UNL     1       1.719   7.711  19.872  0.00  0.00    +0.000 A 
ATOM     11  C   UNL     1       1.131   8.920  20.326  0.00  0.00    +0.000 A 
ATOM     12 BR   UNL     1       0.326   9.032  22.067  0.00  0.00    +0.000 Br
ENDROOT
BRANCH   1  13
ATOM     13  O   UNL     1       0.608  11.216  20.076  0.00  0.00    +0.000 OA
BRANCH  13  14
ATOM     14  C   UNL     1      -0.126  12.069  19.210  0.00  0.00    +0.000 C 
BRANCH  14  16
ATOM     15  O   UNL     1      -2.046  12.061  20.643  0.00  0.00    +0.000 OA
ATOM     16  C   UNL     1      -1.630  11.968  19.484  0.00  0.00    +0.000 C 
ATOM     17  N   UNL     1      -2.494  11.848  18.409  0.00  0.00    +0.000 N 
ATOM     18  C   UNL     1      -3.943  11.894  18.623  0.00  0.00    +0.000 C 
ATOM     19  C   UNL     1      -4.619  10.634  18.074  0.00  0.00    +0.000 C 
ATOM     20  O   UNL     1      -4.261  10.410  16.699  0.00  0.00    +0.000 OA
ATOM     21  C   UNL     1      -2.838  10.262  16.567  0.00  0.00    +0.000 C 
ATOM     22  C   UNL     1      -2.116  11.535  17.026  0.00  0.00    +0.000 C 
ENDBRANCH  14  16
ENDBRANCH  13  14
ENDBRANCH   1  13
TORSDOF 3
ENDMDL
MODEL 7
REMARK VINA RESULT:      -6.3      1.978      2.931
REMARK  Name = 
REMARK  3 active torsions:
REMARK  status: ('A' for Active; 'I' for Inactive)
REMARK    1  A    between atoms: C_2  and  C_3
REMARK    2  A    between atoms: C_3  and  O_4
REMARK    3  A    between atoms: O_4  and  C_5
REMARK                            x       y       z     vdW  Elec       q    Type
REMARK                         _______ _______ _______ _____ _____    ______ ____
ROOT
ATOM      1  C   UNL     1       2.149   7.421  19.590  0.00  0.00    +0.000 A 
ATOM      2  C   UNL     1       1.691   6.825  20.762  0.00  0.00    +0.000 A 
ATOM      3  C   UNL     1       0.844   7.533  21.616  0.00  0.00    +0.000 A 
ATOM      4  C   UNL     1       0.439   8.842  21.318  0.00  0.00    +0.000 A 
ATOM      5  C   UNL     1      -0.364   9.557  22.225  0.00  0.00    +0.000 A 
ATOM      6  C   UNL     1      -0.752  10.866  21.952  0.00  0.00    +0.000 A 
ATOM      7 BR   UNL     1      -1.794  11.821  23.206  0.00  0.00    +0.000 Br
ATOM      8  C   UNL     1      -0.372  11.478  20.768  0.00  0.00    +0.000 A 
ATOM      9  C   UNL     1       0.415  10.775  19.856  0.00  0.00    +0.000 A 
ATOM     10  C   UNL     1       0.853   9.452  20.105  0.00  0.00    +0.000 A 
ATOM     11  C   UNL     1       1.695   8.707  19.240  0.00  0.00    +0.000 A 
ATOM     12 BR   UNL     1       2.278   9.436  17.561  0.00  0.00    +0.000 Br
ENDROOT
BRANCH   1  13
ATOM     13  O   UNL     1       3.012   6.807  18.726  0.00  0.00    +0.000 OA
BRANCH  13  14
ATOM     14  C   UNL     1       3.762   5.713  19.232  0.00  0.00    +0.000 C 
BRANCH  14  16
ATOM     15  O   UNL     1       3.850   3.637  18.038  0.00  0.00    +0.000 OA
ATOM     16  C   UNL     1       4.245   4.806  18.095  0.00  0.00    +0.000 C 
ATOM     17  N   UNL     1       5.060   5.347  17.115  0.00  0.00    +0.000 N 
ATOM     18  C   UNL     1       5.422   4.550  15.939  0.00  0.00    +0.000 C 
ATOM     19  C   UNL     1       6.944   4.448  15.794  0.00  0.00    +0.000 C 
ATOM     20  O   UNL     1       7.555   5.750  15.800  0.00  0.00    +0.000 OA
ATOM     21  C   UNL     1       7.255   6.442  17.025  0.00  0.00    +0.000 C 
ATOM     22  C   UNL     1       5.743   6.644  17.176  0.00  0.00    +0.000 C 
ENDBRANCH  14  16
ENDBRANCH  13  14
ENDBRANCH   1  13
TORSDOF 3
ENDMDL
MODEL 8
REMARK VINA RESULT:      -6.3      1.823      2.353
REMARK  Name = 
REMARK  3 active torsions:
REMARK  status: ('A' for Active; 'I' for Inactive)
REMARK    1  A    between atoms: C_2  and  C_3
REMARK    2  A    between atoms: C_3  and  O_4
REMARK    3  A    between atoms: O_4  and  C_5
REMARK                            x       y       z     vdW  Elec       q    Type
REMARK                         _______ _______ _______ _____ _____    ______ ____
ROOT
ATOM      1  C   UNL     1       1.872   8.142  18.685  0.00  0.00    +0.000 A 
ATOM      2  C   UNL     1       1.799   9.397  18.089  0.00  0.00    +0.000 A 
ATOM      3  C   UNL     1       1.234  10.466  18.787  0.00  0.00    +0.000 A 
ATOM      4  C   UNL     1       0.738  10.304  20.088  0.00  0.00    +0.000 A 
ATOM      5  C   UNL     1       0.118  11.380  20.748  0.00  0.00    +0.000 A 
ATOM      6  C   UNL     1      -0.402  11.225  22.030  0.00  0.00    +0.000 A 
ATOM      7 BR   UNL     1      -1.270  12.673  22.878  0.00  0.00    +0.000 Br
ATOM      8  C   UNL     1      -0.294  10.009  22.688  0.00  0.00    +0.000 A 
ATOM      9  C   UNL     1       0.328   8.937  22.048  0.00  0.00    +0.000 A 
ATOM     10  C   UNL     1       0.847   9.045  20.736  0.00  0.00    +0.000 A 
ATOM     11  C   UNL     1       1.444   7.978  20.017  0.00  0.00    +0.000 A 
ATOM     12 BR   UNL     1       1.667   6.248  20.822  0.00  0.00    +0.000 Br
ENDROOT
BRANCH   1  13
ATOM     13  O   UNL     1       2.373   7.040  18.050  0.00  0.00    +0.000 OA
BRANCH  13  14
ATOM     14  C   UNL     1       3.673   7.153  17.490  0.00  0.00    +0.000 C 
BRANCH  14  16
ATOM     15  O   UNL     1       4.686   6.066  19.370  0.00  0.00    +0.000 OA
ATOM     16  C   UNL     1       4.639   6.157  18.139  0.00  0.00    +0.000 C 
ATOM     17  N   UNL     1       5.387   5.328  17.320  0.00  0.00    +0.000 N 
ATOM     18  C   UNL     1       6.212   4.268  17.906  0.00  0.00    +0.000 C 
ATOM     19  C   UNL     1       7.676   4.412  17.477  0.00  0.00    +0.000 C 
ATOM     20  O   UNL     1       7.793   4.488  16.046  0.00  0.00    +0.000 OA
ATOM     21  C   UNL     1       7.052   5.612  15.539  0.00  0.00    +0.000 C 
ATOM     22  C   UNL     1       5.562   5.472  15.870  0.00  0.00    +0.000 C 
ENDBRANCH  14  16
ENDBRANCH  13  14
ENDBRANCH   1  13
TORSDOF 3
ENDMDL
MODEL 9
REMARK VINA RESULT:      -6.3      4.091      5.990
REMARK  Name = 
REMARK  3 active torsions:
REMARK  status: ('A' for Active; 'I' for Inactive)
REMARK    1  A    between atoms: C_2  and  C_3
REMARK    2  A    between atoms: C_3  and  O_4
REMARK    3  A    between atoms: O_4  and  C_5
REMARK                            x       y       z     vdW  Elec       q    Type
REMARK                         _______ _______ _______ _____ _____    ______ ____
ROOT
ATOM      1  C   UNL     1      -0.392  10.513  18.625  0.00  0.00    +0.000 A 
ATOM      2  C   UNL     1      -1.021   9.922  17.533  0.00  0.00    +0.000 A 
ATOM      3  C   UNL     1      -2.370  10.179  17.284  0.00  0.00    +0.000 A 
ATOM      4  C   UNL     1      -3.113  11.030  18.115  0.00  0.00    +0.000 A 
ATOM      5  C   UNL     1      -4.486  11.225  17.880  0.00  0.00    +0.000 A 
ATOM      6  C   UNL     1      -5.240  12.048  18.713  0.00  0.00    +0.000 A 
ATOM      7 BR   UNL     1      -7.092  12.259  18.404  0.00  0.00    +0.000 Br
ATOM      8  C   UNL     1      -4.642  12.708  19.775  0.00  0.00    +0.000 A 
ATOM      9  C   UNL     1      -3.279  12.531  20.011  0.00  0.00    +0.000 A 
ATOM     10  C   UNL     1      -2.481  11.684  19.205  0.00  0.00    +0.000 A 
ATOM     11  C   UNL     1      -1.104  11.426  19.427  0.00  0.00    +0.000 A 
ATOM     12 BR   UNL     1      -0.155  12.292  20.856  0.00  0.00    +0.000 Br
ENDROOT
BRANCH   1  13
ATOM     13  O   UNL     1       0.913  10.277  18.956  0.00  0.00    +0.000 OA
BRANCH  13  14
ATOM     14  C   UNL     1       1.237   8.972  19.410  0.00  0.00    +0.000 C 
BRANCH  14  16
ATOM     15  O   UNL     1       2.399   8.779  17.324  0.00  0.00    +0.000 OA
ATOM     16  C   UNL     1       2.159   8.257  18.417  0.00  0.00    +0.000 C 
ATOM     17  N   UNL     1       2.761   7.071  18.805  0.00  0.00    +0.000 N 
ATOM     18  C   UNL     1       3.758   6.438  17.939  0.00  0.00    +0.000 C 
ATOM     19  C   UNL     1       3.353   5.000  17.596  0.00  0.00    +0.000 C 
ATOM     20  O   UNL     1       3.077   4.241  18.786  0.00  0.00    +0.000 OA
ATOM     21  C   UNL     1       2.016   4.851  19.539  0.00  0.00    +0.000 C 
ATOM     22  C   UNL     1       2.408   6.266  19.980  0.00  0.00    +0.000 C 
ENDBRANCH  14  16
ENDBRANCH  13  14
ENDBRANCH   1  13
TORSDOF 3
ENDMDL
