MODEL 1
REMARK VINA RESULT:      -8.6      0.000      0.000
REMARK  Name = 
REMARK  4 active torsions:
REMARK  status: ('A' for Active; 'I' for Inactive)
REMARK    1  A    between atoms: C_2  and  C_3
REMARK    2  A    between atoms: C_3  and  C_4
REMARK    3  A    between atoms: N_20  and  C_21
REMARK    4  A    between atoms: C_21  and  C_22
REMARK                            x       y       z     vdW  Elec       q    Type
REMARK                         _______ _______ _______ _____ _____    ______ ____
ROOT
ATOM      1  O   UNL     1       0.803  10.070  22.631  0.00  0.00    +0.000 OA
ATOM      2  C   UNL     1       1.037   9.541  21.537  0.00  0.00    +0.000 C 
ATOM      3  N   UNL     1       1.265   8.196  21.511  0.00  0.00    +0.000 N 
ATOM      4  C   UNL     1       1.737   7.436  20.470  0.00  0.00    +0.000 A 
ATOM      5  C   UNL     1       1.794   6.022  20.468  0.00  0.00    +0.000 A 
ATOM      6  C   UNL     1       2.378   5.683  19.269  0.00  0.00    +0.000 A 
ATOM      7  N   UNL     1       2.672   6.866  18.653  0.00  0.00    +0.000 N 
ATOM      8  N   UNL     1       2.239   7.932  19.343  0.00  0.00    +0.000 NA
ATOM      9  H   UNL     1       1.138   7.732  22.399  0.00  0.00    +0.000 HD
ENDROOT
BRANCH   2  10
ATOM     10  C   UNL     1       1.000  10.363  20.256  0.00  0.00    +0.000 C 
BRANCH  10  11
ATOM     11  C   UNL     1      -0.363  10.848  19.843  0.00  0.00    +0.000 A 
ATOM     12  C   UNL     1      -1.015  11.891  20.488  0.00  0.00    +0.000 A 
ATOM     13  C   UNL     1      -2.290  12.267  20.071  0.00  0.00    +0.000 A 
ATOM     14  C   UNL     1      -2.930  11.597  19.026  0.00  0.00    +0.000 A 
ATOM     15  N   UNL     1      -4.192  11.983  18.607  0.00  0.00    +0.000 N 
ATOM     16  C   UNL     1      -5.144  12.558  19.552  0.00  0.00    +0.000 C 
ATOM     17  C   UNL     1      -6.453  12.590  18.773  0.00  0.00    +0.000 C 
ATOM     18  C   UNL     1      -6.380  11.312  17.962  0.00  0.00    +0.000 C 
ATOM     19  F   UNL     1      -6.757  10.274  18.763  0.00  0.00    +0.000 F 
ATOM     20  C   UNL     1      -4.895  11.174  17.602  0.00  0.00    +0.000 C 
ATOM     21  N   UNL     1      -2.301  10.584  18.390  0.00  0.00    +0.000 NA
ATOM     22  C   UNL     1      -1.062  10.226  18.815  0.00  0.00    +0.000 A 
ENDBRANCH  10  11
ENDBRANCH   2  10
BRANCH   7  23
ATOM     23  C   UNL     1       3.466   7.062  17.446  0.00  0.00    +0.000 C 
BRANCH  23  24
ATOM     24  C   UNL     1       4.748   6.265  17.457  0.00  0.00    +0.000 A 
ATOM     25  C   UNL     1       4.806   5.012  16.820  0.00  0.00    +0.000 A 
ATOM     26  C   UNL     1       6.000   4.286  16.783  0.00  0.00    +0.000 A 
ATOM     27  C   UNL     1       7.141   4.808  17.382  0.00  0.00    +0.000 A 
ATOM     28  F   UNL     1       8.288   4.114  17.334  0.00  0.00    +0.000 F 
ATOM     29  C   UNL     1       7.097   6.042  18.014  0.00  0.00    +0.000 A 
ATOM     30  F   UNL     1       8.198   6.549  18.587  0.00  0.00    +0.000 F 
ATOM     31  C   UNL     1       5.914   6.775  18.052  0.00  0.00    +0.000 A 
ENDBRANCH  23  24
ENDBRANCH   7  23
TORSDOF 4
ENDMDL
MODEL 2
REMARK VINA RESULT:      -8.5      0.546      1.251
REMARK  Name = 
REMARK  4 active torsions:
REMARK  status: ('A' for Active; 'I' for Inactive)
REMARK    1  A    between atoms: C_2  and  C_3
REMARK    2  A    between atoms: C_3  and  C_4
REMARK    3  A    between atoms: N_20  and  C_21
REMARK    4  A    between atoms: C_21  and  C_22
REMARK                            x       y       z     vdW  Elec       q    Type
REMARK                         _______ _______ _______ _____ _____    ______ ____
ROOT
ATOM      1  O   UNL     1       0.870   9.848  22.644  0.00  0.00    +0.000 OA
ATOM      2  C   UNL     1       1.109   9.393  21.518  0.00  0.00    +0.000 C 
ATOM      3  N   UNL     1       1.339   8.053  21.403  0.00  0.00    +0.000 N 
ATOM      4  C   UNL     1       1.818   7.364  20.317  0.00  0.00    +0.000 A 
ATOM      5  C   UNL     1       1.877   5.954  20.220  0.00  0.00    +0.000 A 
ATOM      6  C   UNL     1       2.466   5.696  19.004  0.00  0.00    +0.000 A 
ATOM      7  N   UNL     1       2.762   6.918  18.470  0.00  0.00    +0.000 N 
ATOM      8  N   UNL     1       2.324   7.935  19.227  0.00  0.00    +0.000 NA
ATOM      9  H   UNL     1       1.210   7.530  22.257  0.00  0.00    +0.000 HD
ENDROOT
BRANCH   2  10
ATOM     10  C   UNL     1       1.077  10.298  20.295  0.00  0.00    +0.000 C 
BRANCH  10  11
ATOM     11  C   UNL     1      -0.289  10.784  19.890  0.00  0.00    +0.000 A 
ATOM     12  C   UNL     1      -0.962  11.784  20.578  0.00  0.00    +0.000 A 
ATOM     13  C   UNL     1      -2.238  12.163  20.167  0.00  0.00    +0.000 A 
ATOM     14  C   UNL     1      -2.858  11.536  19.084  0.00  0.00    +0.000 A 
ATOM     15  N   UNL     1      -4.121  11.924  18.671  0.00  0.00    +0.000 N 
ATOM     16  C   UNL     1      -5.091  12.439  19.632  0.00  0.00    +0.000 C 
ATOM     17  C   UNL     1      -6.393  12.490  18.842  0.00  0.00    +0.000 C 
ATOM     18  C   UNL     1      -6.293  11.254  17.971  0.00  0.00    +0.000 C 
ATOM     19  F   UNL     1      -6.663  10.174  18.716  0.00  0.00    +0.000 F 
ATOM     20  C   UNL     1      -4.803  11.155  17.620  0.00  0.00    +0.000 C 
ATOM     21  N   UNL     1      -2.208  10.564  18.406  0.00  0.00    +0.000 NA
ATOM     22  C   UNL     1      -0.968  10.203  18.826  0.00  0.00    +0.000 A 
ENDBRANCH  10  11
ENDBRANCH   2  10
BRANCH   7  23
ATOM     23  C   UNL     1       3.561   7.195  17.282  0.00  0.00    +0.000 C 
BRANCH  23  24
ATOM     24  C   UNL     1       4.830   6.379  17.231  0.00  0.00    +0.000 A 
ATOM     25  C   UNL     1       5.946   6.761  17.996  0.00  0.00    +0.000 A 
ATOM     26  C   UNL     1       7.111   5.988  17.993  0.00  0.00    +0.000 A 
ATOM     27  C   UNL     1       7.165   4.829  17.225  0.00  0.00    +0.000 A 
ATOM     28  F   UNL     1       8.280   4.084  17.235  0.00  0.00    +0.000 F 
ATOM     29  C   UNL     1       6.071   4.443  16.466  0.00  0.00    +0.000 A 
ATOM     30  F   UNL     1       6.120   3.323  15.730  0.00  0.00    +0.000 F 
ATOM     31  C   UNL     1       4.905   5.203  16.466  0.00  0.00    +0.000 A 
ENDBRANCH  23  24
ENDBRANCH   7  23
TORSDOF 4
ENDMDL
MODEL 3
REMARK VINA RESULT:      -8.3      0.988      1.029
REMARK  Name = 
REMARK  4 active torsions:
REMARK  status: ('A' for Active; 'I' for Inactive)
REMARK    1  A    between atoms: C_2  and  C_3
REMARK    2  A    between atoms: C_3  and  C_4
REMARK    3  A    between atoms: N_20  and  C_21
REMARK    4  A    between atoms: C_21  and  C_22
REMARK                            x       y       z     vdW  Elec       q    Type
REMARK                         _______ _______ _______ _____ _____    ______ ____
ROOT
ATOM      1  O   UNL     1       1.415   9.698  22.120  0.00  0.00    +0.000 OA
ATOM      2  C   UNL     1       1.417   8.914  21.161  0.00  0.00    +0.000 C 
ATOM      3  N   UNL     1       1.476   7.577  21.426  0.00  0.00    +0.000 N 
ATOM      4  C   UNL     1       1.692   6.547  20.546  0.00  0.00    +0.000 A 
ATOM      5  C   UNL     1       1.579   5.174  20.870  0.00  0.00    +0.000 A 
ATOM      6  C   UNL     1       1.931   4.499  19.724  0.00  0.00    +0.000 A 
ATOM      7  N   UNL     1       2.268   5.461  18.817  0.00  0.00    +0.000 N 
ATOM      8  N   UNL     1       2.074   6.704  19.281  0.00  0.00    +0.000 NA
ATOM      9  H   UNL     1       1.430   7.341  22.407  0.00  0.00    +0.000 HD
ENDROOT
BRANCH   2  10
ATOM     10  C   UNL     1       1.286   9.434  19.737  0.00  0.00    +0.000 C 
BRANCH  10  11
ATOM     11  C   UNL     1      -0.001  10.151  19.430  0.00  0.00    +0.000 A 
ATOM     12  C   UNL     1      -0.571  11.072  20.298  0.00  0.00    +0.000 A 
ATOM     13  C   UNL     1      -1.782  11.676  19.963  0.00  0.00    +0.000 A 
ATOM     14  C   UNL     1      -2.440  11.351  18.775  0.00  0.00    +0.000 A 
ATOM     15  N   UNL     1      -3.637  11.962  18.440  0.00  0.00    +0.000 N 
ATOM     16  C   UNL     1      -4.566  12.393  19.479  0.00  0.00    +0.000 C 
ATOM     17  C   UNL     1      -5.829  12.755  18.709  0.00  0.00    +0.000 C 
ATOM     18  C   UNL     1      -5.851  11.709  17.612  0.00  0.00    +0.000 C 
ATOM     19  F   UNL     1      -6.367  10.557  18.129  0.00  0.00    +0.000 F 
ATOM     20  C   UNL     1      -4.374  11.501  17.256  0.00  0.00    +0.000 C 
ATOM     21  N   UNL     1      -1.890  10.458  17.922  0.00  0.00    +0.000 NA
ATOM     22  C   UNL     1      -0.714   9.875  18.269  0.00  0.00    +0.000 A 
ENDBRANCH  10  11
ENDBRANCH   2  10
BRANCH   7  23
ATOM     23  C   UNL     1       2.889   5.269  17.511  0.00  0.00    +0.000 C 
BRANCH  23  24
ATOM     24  C   UNL     1       4.371   4.996  17.606  0.00  0.00    +0.000 A 
ATOM     25  C   UNL     1       5.046   4.384  16.534  0.00  0.00    +0.000 A 
ATOM     26  C   UNL     1       6.426   4.169  16.591  0.00  0.00    +0.000 A 
ATOM     27  C   UNL     1       7.137   4.563  17.719  0.00  0.00    +0.000 A 
ATOM     28  F   UNL     1       8.463   4.365  17.765  0.00  0.00    +0.000 F 
ATOM     29  C   UNL     1       6.483   5.165  18.783  0.00  0.00    +0.000 A 
ATOM     30  F   UNL     1       7.169   5.551  19.869  0.00  0.00    +0.000 F 
ATOM     31  C   UNL     1       5.110   5.389  18.734  0.00  0.00    +0.000 A 
ENDBRANCH  23  24
ENDBRANCH   7  23
TORSDOF 4
ENDMDL
MODEL 4
REMARK VINA RESULT:      -8.3      5.129      9.949
REMARK  Name = 
REMARK  4 active torsions:
REMARK  status: ('A' for Active; 'I' for Inactive)
REMARK    1  A    between atoms: C_2  and  C_3
REMARK    2  A    between atoms: C_3  and  C_4
REMARK    3  A    between atoms: N_20  and  C_21
REMARK    4  A    between atoms: C_21  and  C_22
REMARK                            x       y       z     vdW  Elec       q    Type
REMARK                         _______ _______ _______ _____ _____    ______ ____
ROOT
ATOM      1  O   UNL     1       7.620   5.365  15.441  0.00  0.00    +0.000 OA
ATOM      2  C   UNL     1       6.865   5.239  16.413  0.00  0.00    +0.000 C 
ATOM      3  N   UNL     1       5.619   4.725  16.195  0.00  0.00    +0.000 N 
ATOM      4  C   UNL     1       4.555   4.683  17.061  0.00  0.00    +0.000 A 
ATOM      5  C   UNL     1       3.347   3.990  16.818  0.00  0.00    +0.000 A 
ATOM      6  C   UNL     1       2.548   4.256  17.906  0.00  0.00    +0.000 A 
ATOM      7  N   UNL     1       3.272   5.100  18.698  0.00  0.00    +0.000 N 
ATOM      8  N   UNL     1       4.508   5.321  18.228  0.00  0.00    +0.000 NA
ATOM      9  H   UNL     1       5.454   4.413  15.249  0.00  0.00    +0.000 HD
ENDROOT
BRANCH   2  10
ATOM     10  C   UNL     1       7.344   5.583  17.816  0.00  0.00    +0.000 C 
BRANCH  10  11
ATOM     11  C   UNL     1       7.719   7.024  18.032  0.00  0.00    +0.000 A 
ATOM     12  C   UNL     1       7.268   8.046  17.209  0.00  0.00    +0.000 A 
ATOM     13  C   UNL     1       7.681   9.355  17.448  0.00  0.00    +0.000 A 
ATOM     14  C   UNL     1       8.558   9.651  18.495  0.00  0.00    +0.000 A 
ATOM     15  N   UNL     1       8.955  10.954  18.738  0.00  0.00    +0.000 N 
ATOM     16  C   UNL     1       9.071  11.911  17.642  0.00  0.00    +0.000 C 
ATOM     17  C   UNL     1       9.770  13.107  18.277  0.00  0.00    +0.000 C 
ATOM     18  C   UNL     1      10.741  12.444  19.234  0.00  0.00    +0.000 C 
ATOM     19  F   UNL     1      11.835  12.043  18.525  0.00  0.00    +0.000 F 
ATOM     20  C   UNL     1       9.984  11.216  19.754  0.00  0.00    +0.000 C 
ATOM     21  N   UNL     1       8.998   8.662  19.304  0.00  0.00    +0.000 NA
ATOM     22  C   UNL     1       8.591   7.391  19.050  0.00  0.00    +0.000 A 
ENDBRANCH  10  11
ENDBRANCH   2  10
BRANCH   7  23
ATOM     23  C   UNL     1       2.808   5.826  19.875  0.00  0.00    +0.000 C 
BRANCH  23  24
ATOM     24  C   UNL     1       2.257   7.190  19.538  0.00  0.00    +0.000 A 
ATOM     25  C   UNL     1       2.395   7.705  18.236  0.00  0.00    +0.000 A 
ATOM     26  C   UNL     1       1.848   8.947  17.899  0.00  0.00    +0.000 A 
ATOM     27  C   UNL     1       1.161   9.680  18.861  0.00  0.00    +0.000 A 
ATOM     28  F   UNL     1       0.628  10.865  18.531  0.00  0.00    +0.000 F 
ATOM     29  C   UNL     1       1.020   9.183  20.148  0.00  0.00    +0.000 A 
ATOM     30  F   UNL     1       0.353   9.886  21.075  0.00  0.00    +0.000 F 
ATOM     31  C   UNL     1       1.556   7.946  20.492  0.00  0.00    +0.000 A 
ENDBRANCH  23  24
ENDBRANCH   7  23
TORSDOF 4
ENDMDL
MODEL 5
REMARK VINA RESULT:      -8.2      3.275      4.343
REMARK  Name = 
REMARK  4 active torsions:
REMARK  status: ('A' for Active; 'I' for Inactive)
REMARK    1  A    between atoms: C_2  and  C_3
REMARK    2  A    between atoms: C_3  and  C_4
REMARK    3  A    between atoms: N_20  and  C_21
REMARK    4  A    between atoms: C_21  and  C_22
REMARK                            x       y       z     vdW  Elec       q    Type
REMARK                         _______ _______ _______ _____ _____    ______ ____
ROOT
ATOM      1  O   UNL     1       1.504   5.869  21.191  0.00  0.00    +0.000 OA
ATOM      2  C   UNL     1       2.052   5.629  20.107  0.00  0.00    +0.000 C 
ATOM      3  N   UNL     1       1.984   4.355  19.623  0.00  0.00    +0.000 N 
ATOM      4  C   UNL     1       2.673   3.811  18.568  0.00  0.00    +0.000 A 
ATOM      5  C   UNL     1       2.430   2.528  18.024  0.00  0.00    +0.000 A 
ATOM      6  C   UNL     1       3.371   2.367  17.034  0.00  0.00    +0.000 A 
ATOM      7  N   UNL     1       4.134   3.499  17.061  0.00  0.00    +0.000 N 
ATOM      8  N   UNL     1       3.688   4.404  17.945  0.00  0.00    +0.000 NA
ATOM      9  H   UNL     1       1.408   3.729  20.167  0.00  0.00    +0.000 HD
ENDROOT
BRANCH   2  10
ATOM     10  C   UNL     1       2.720   6.743  19.314  0.00  0.00    +0.000 C 
BRANCH  10  11
ATOM     11  C   UNL     1       1.978   8.051  19.293  0.00  0.00    +0.000 A 
ATOM     12  C   UNL     1       1.861   8.828  18.148  0.00  0.00    +0.000 A 
ATOM     13  C   UNL     1       1.186  10.045  18.207  0.00  0.00    +0.000 A 
ATOM     14  C   UNL     1       0.640  10.504  19.408  0.00  0.00    +0.000 A 
ATOM     15  N   UNL     1      -0.042  11.708  19.460  0.00  0.00    +0.000 N 
ATOM     16  C   UNL     1       0.322  12.806  18.571  0.00  0.00    +0.000 C 
ATOM     17  C   UNL     1      -0.462  13.992  19.119  0.00  0.00    +0.000 C 
ATOM     18  C   UNL     1      -0.405  13.755  20.614  0.00  0.00    +0.000 C 
ATOM     19  F   UNL     1       0.799  14.201  21.073  0.00  0.00    +0.000 F 
ATOM     20  C   UNL     1      -0.482  12.230  20.762  0.00  0.00    +0.000 C 
ATOM     21  N   UNL     1       0.745   9.753  20.527  0.00  0.00    +0.000 NA
ATOM     22  C   UNL     1       1.414   8.573  20.451  0.00  0.00    +0.000 A 
ENDBRANCH  10  11
ENDBRANCH   2  10
BRANCH   7  23
ATOM     23  C   UNL     1       5.377   3.747  16.341  0.00  0.00    +0.000 C 
BRANCH  23  24
ATOM     24  C   UNL     1       6.206   4.841  16.970  0.00  0.00    +0.000 A 
ATOM     25  C   UNL     1       6.075   6.169  16.525  0.00  0.00    +0.000 A 
ATOM     26  C   UNL     1       6.803   7.198  17.131  0.00  0.00    +0.000 A 
ATOM     27  C   UNL     1       7.664   6.904  18.183  0.00  0.00    +0.000 A 
ATOM     28  F   UNL     1       8.350   7.896  18.769  0.00  0.00    +0.000 F 
ATOM     29  C   UNL     1       7.802   5.599  18.629  0.00  0.00    +0.000 A 
ATOM     30  F   UNL     1       8.626   5.315  19.648  0.00  0.00    +0.000 F 
ATOM     31  C   UNL     1       7.078   4.568  18.036  0.00  0.00    +0.000 A 
ENDBRANCH  23  24
ENDBRANCH   7  23
TORSDOF 4
ENDMDL
MODEL 6
REMARK VINA RESULT:      -8.2      1.051      1.433
REMARK  Name = 
REMARK  4 active torsions:
REMARK  status: ('A' for Active; 'I' for Inactive)
REMARK    1  A    between atoms: C_2  and  C_3
REMARK    2  A    between atoms: C_3  and  C_4
REMARK    3  A    between atoms: N_20  and  C_21
REMARK    4  A    between atoms: C_21  and  C_22
REMARK                            x       y       z     vdW  Elec       q    Type
REMARK                         _______ _______ _______ _____ _____    ______ ____
ROOT
ATOM      1  O   UNL     1       1.433   9.550  22.187  0.00  0.00    +0.000 OA
ATOM      2  C   UNL     1       1.460   8.810  21.195  0.00  0.00    +0.000 C 
ATOM      3  N   UNL     1       1.491   7.461  21.403  0.00  0.00    +0.000 N 
ATOM      4  C   UNL     1       1.726   6.467  20.486  0.00  0.00    +0.000 A 
ATOM      5  C   UNL     1       1.583   5.084  20.744  0.00  0.00    +0.000 A 
ATOM      6  C   UNL     1       1.968   4.454  19.583  0.00  0.00    +0.000 A 
ATOM      7  N   UNL     1       2.352   5.450  18.732  0.00  0.00    +0.000 N 
ATOM      8  N   UNL     1       2.157   6.674  19.244  0.00  0.00    +0.000 NA
ATOM      9  H   UNL     1       1.406   7.183  22.370  0.00  0.00    +0.000 HD
ENDROOT
BRANCH   2  10
ATOM     10  C   UNL     1       1.389   9.394  19.792  0.00  0.00    +0.000 C 
BRANCH  10  11
ATOM     11  C   UNL     1       0.104  10.098  19.453  0.00  0.00    +0.000 A 
ATOM     12  C   UNL     1      -0.488  11.025  20.300  0.00  0.00    +0.000 A 
ATOM     13  C   UNL     1      -1.696  11.617  19.937  0.00  0.00    +0.000 A 
ATOM     14  C   UNL     1      -2.330  11.276  18.740  0.00  0.00    +0.000 A 
ATOM     15  N   UNL     1      -3.524  11.875  18.376  0.00  0.00    +0.000 N 
ATOM     16  C   UNL     1      -4.475  12.311  19.393  0.00  0.00    +0.000 C 
ATOM     17  C   UNL     1      -5.726  12.656  18.595  0.00  0.00    +0.000 C 
ATOM     18  C   UNL     1      -5.721  11.599  17.509  0.00  0.00    +0.000 C 
ATOM     19  F   UNL     1      -6.239  10.449  18.028  0.00  0.00    +0.000 F 
ATOM     20  C   UNL     1      -4.236  11.397  17.183  0.00  0.00    +0.000 C 
ATOM     21  N   UNL     1      -1.758  10.378  17.907  0.00  0.00    +0.000 NA
ATOM     22  C   UNL     1      -0.585   9.806  18.282  0.00  0.00    +0.000 A 
ENDBRANCH  10  11
ENDBRANCH   2  10
BRANCH   7  23
ATOM     23  C   UNL     1       3.018   5.306  17.443  0.00  0.00    +0.000 C 
BRANCH  23  24
ATOM     24  C   UNL     1       4.510   5.118  17.577  0.00  0.00    +0.000 A 
ATOM     25  C   UNL     1       5.129   5.255  18.833  0.00  0.00    +0.000 A 
ATOM     26  C   UNL     1       6.502   5.037  18.978  0.00  0.00    +0.000 A 
ATOM     27  C   UNL     1       7.263   4.681  17.869  0.00  0.00    +0.000 A 
ATOM     28  F   UNL     1       8.578   4.461  18.015  0.00  0.00    +0.000 F 
ATOM     29  C   UNL     1       6.664   4.545  16.625  0.00  0.00    +0.000 A 
ATOM     30  F   UNL     1       7.395   4.196  15.557  0.00  0.00    +0.000 F 
ATOM     31  C   UNL     1       5.297   4.754  16.471  0.00  0.00    +0.000 A 
ENDBRANCH  23  24
ENDBRANCH   7  23
TORSDOF 4
ENDMDL
MODEL 7
REMARK VINA RESULT:      -8.2      2.792      8.852
REMARK  Name = 
REMARK  4 active torsions:
REMARK  status: ('A' for Active; 'I' for Inactive)
REMARK    1  A    between atoms: C_2  and  C_3
REMARK    2  A    between atoms: C_3  and  C_4
REMARK    3  A    between atoms: N_20  and  C_21
REMARK    4  A    between atoms: C_21  and  C_22
REMARK                            x       y       z     vdW  Elec       q    Type
REMARK                         _______ _______ _______ _____ _____    ______ ____
ROOT
ATOM      1  O   UNL     1       1.587  11.441  21.565  0.00  0.00    +0.000 OA
ATOM      2  C   UNL     1       0.577  11.662  20.884  0.00  0.00    +0.000 C 
ATOM      3  N   UNL     1      -0.334  12.560  21.360  0.00  0.00    +0.000 N 
ATOM      4  C   UNL     1      -1.600  12.811  20.895  0.00  0.00    +0.000 A 
ATOM      5  C   UNL     1      -2.425  13.871  21.340  0.00  0.00    +0.000 A 
ATOM      6  C   UNL     1      -3.611  13.720  20.659  0.00  0.00    +0.000 A 
ATOM      7  N   UNL     1      -3.462  12.594  19.902  0.00  0.00    +0.000 N 
ATOM      8  N   UNL     1      -2.232  12.067  19.991  0.00  0.00    +0.000 NA
ATOM      9  H   UNL     1      -0.053  13.034  22.206  0.00  0.00    +0.000 HD
ENDROOT
BRANCH   2  10
ATOM     10  C   UNL     1       0.399  10.999  19.525  0.00  0.00    +0.000 C 
BRANCH  10  11
ATOM     11  C   UNL     1       1.150   9.708  19.337  0.00  0.00    +0.000 A 
ATOM     12  C   UNL     1       1.768   9.369  18.141  0.00  0.00    +0.000 A 
ATOM     13  C   UNL     1       2.419   8.143  18.026  0.00  0.00    +0.000 A 
ATOM     14  C   UNL     1       2.442   7.241  19.092  0.00  0.00    +0.000 A 
ATOM     15  N   UNL     1       3.101   6.029  18.979  0.00  0.00    +0.000 N 
ATOM     16  C   UNL     1       3.193   5.352  17.690  0.00  0.00    +0.000 C 
ATOM     17  C   UNL     1       3.739   3.974  18.041  0.00  0.00    +0.000 C 
ATOM     18  C   UNL     1       3.058   3.682  19.363  0.00  0.00    +0.000 C 
ATOM     19  F   UNL     1       1.795   3.235  19.105  0.00  0.00    +0.000 F 
ATOM     20  C   UNL     1       2.990   5.044  20.065  0.00  0.00    +0.000 C 
ATOM     21  N   UNL     1       1.846   7.565  20.262  0.00  0.00    +0.000 NA
ATOM     22  C   UNL     1       1.210   8.761  20.352  0.00  0.00    +0.000 A 
ENDBRANCH  10  11
ENDBRANCH   2  10
BRANCH   7  23
ATOM     23  C   UNL     1      -4.492  11.895  19.143  0.00  0.00    +0.000 C 
BRANCH  23  24
ATOM     24  C   UNL     1      -3.967  11.303  17.857  0.00  0.00    +0.000 A 
ATOM     25  C   UNL     1      -4.589  11.609  16.633  0.00  0.00    +0.000 A 
ATOM     26  C   UNL     1      -4.083  11.105  15.431  0.00  0.00    +0.000 A 
ATOM     27  C   UNL     1      -2.954  10.293  15.447  0.00  0.00    +0.000 A 
ATOM     28  F   UNL     1      -2.465   9.821  14.291  0.00  0.00    +0.000 F 
ATOM     29  C   UNL     1      -2.333   9.982  16.647  0.00  0.00    +0.000 A 
ATOM     30  F   UNL     1      -1.241   9.205  16.664  0.00  0.00    +0.000 F 
ATOM     31  C   UNL     1      -2.826  10.483  17.849  0.00  0.00    +0.000 A 
ENDBRANCH  23  24
ENDBRANCH   7  23
TORSDOF 4
ENDMDL
MODEL 8
REMARK VINA RESULT:      -8.1      1.631     10.248
REMARK  Name = 
REMARK  4 active torsions:
REMARK  status: ('A' for Active; 'I' for Inactive)
REMARK    1  A    between atoms: C_2  and  C_3
REMARK    2  A    between atoms: C_3  and  C_4
REMARK    3  A    between atoms: N_20  and  C_21
REMARK    4  A    between atoms: C_21  and  C_22
REMARK                            x       y       z     vdW  Elec       q    Type
REMARK                         _______ _______ _______ _____ _____    ______ ____
ROOT
ATOM      1  O   UNL     1       1.666   9.551  22.584  0.00  0.00    +0.000 OA
ATOM      2  C   UNL     1       1.045   9.610  21.514  0.00  0.00    +0.000 C 
ATOM      3  N   UNL     1       0.873  10.835  20.939  0.00  0.00    +0.000 N 
ATOM      4  C   UNL     1       0.062  11.170  19.883  0.00  0.00    +0.000 A 
ATOM      5  C   UNL     1       0.058  12.430  19.240  0.00  0.00    +0.000 A 
ATOM      6  C   UNL     1      -0.931  12.350  18.288  0.00  0.00    +0.000 A 
ATOM      7  N   UNL     1      -1.482  11.109  18.430  0.00  0.00    +0.000 N 
ATOM      8  N   UNL     1      -0.854  10.365  19.352  0.00  0.00    +0.000 NA
ATOM      9  H   UNL     1       1.349  11.591  21.410  0.00  0.00    +0.000 HD
ENDROOT
BRANCH   2  10
ATOM     10  C   UNL     1       0.556   8.339  20.833  0.00  0.00    +0.000 C 
BRANCH  10  11
ATOM     11  C   UNL     1       1.592   7.598  20.032  0.00  0.00    +0.000 A 
ATOM     12  C   UNL     1       2.085   6.357  20.412  0.00  0.00    +0.000 A 
ATOM     13  C   UNL     1       3.068   5.742  19.640  0.00  0.00    +0.000 A 
ATOM     14  C   UNL     1       3.578   6.365  18.499  0.00  0.00    +0.000 A 
ATOM     15  N   UNL     1       4.545   5.744  17.727  0.00  0.00    +0.000 N 
ATOM     16  C   UNL     1       5.517   4.844  18.338  0.00  0.00    +0.000 C 
ATOM     17  C   UNL     1       6.532   4.598  17.228  0.00  0.00    +0.000 C 
ATOM     18  C   UNL     1       6.598   5.948  16.543  0.00  0.00    +0.000 C 
ATOM     19  F   UNL     1       7.425   6.755  17.267  0.00  0.00    +0.000 F 
ATOM     20  C   UNL     1       5.161   6.481  16.615  0.00  0.00    +0.000 C 
ATOM     21  N   UNL     1       3.100   7.571  18.119  0.00  0.00    +0.000 NA
ATOM     22  C   UNL     1       2.148   8.159  18.889  0.00  0.00    +0.000 A 
ENDBRANCH  10  11
ENDBRANCH   2  10
BRANCH   7  23
ATOM     23  C   UNL     1      -2.687  10.597  17.789  0.00  0.00    +0.000 C 
BRANCH  23  24
ATOM     24  C   UNL     1      -3.890  11.479  18.021  0.00  0.00    +0.000 A 
ATOM     25  C   UNL     1      -4.807  11.712  16.980  0.00  0.00    +0.000 A 
ATOM     26  C   UNL     1      -5.949  12.489  17.196  0.00  0.00    +0.000 A 
ATOM     27  C   UNL     1      -6.180  13.036  18.453  0.00  0.00    +0.000 A 
ATOM     28  F   UNL     1      -7.283  13.770  18.659  0.00  0.00    +0.000 F 
ATOM     29  C   UNL     1      -5.284  12.815  19.487  0.00  0.00    +0.000 A 
ATOM     30  F   UNL     1      -5.509  13.337  20.702  0.00  0.00    +0.000 F 
ATOM     31  C   UNL     1      -4.146  12.039  19.284  0.00  0.00    +0.000 A 
ENDBRANCH  23  24
ENDBRANCH   7  23
TORSDOF 4
ENDMDL
MODEL 9
REMARK VINA RESULT:      -8.1      3.644      4.945
REMARK  Name = 
REMARK  4 active torsions:
REMARK  status: ('A' for Active; 'I' for Inactive)
REMARK    1  A    between atoms: C_2  and  C_3
REMARK    2  A    between atoms: C_3  and  C_4
REMARK    3  A    between atoms: N_20  and  C_21
REMARK    4  A    between atoms: C_21  and  C_22
REMARK                            x       y       z     vdW  Elec       q    Type
REMARK                         _______ _______ _______ _____ _____    ______ ____
ROOT
ATOM      1  O   UNL     1       2.033   9.154  17.120  0.00  0.00    +0.000 OA
ATOM      2  C   UNL     1       2.696   8.328  17.761  0.00  0.00    +0.000 C 
ATOM      3  N   UNL     1       3.923   7.978  17.276  0.00  0.00    +0.000 N 
ATOM      4  C   UNL     1       4.738   6.954  17.690  0.00  0.00    +0.000 A 
ATOM      5  C   UNL     1       6.066   6.753  17.247  0.00  0.00    +0.000 A 
ATOM      6  C   UNL     1       6.485   5.597  17.864  0.00  0.00    +0.000 A 
ATOM      7  N   UNL     1       5.414   5.153  18.585  0.00  0.00    +0.000 N 
ATOM      8  N   UNL     1       4.370   5.993  18.534  0.00  0.00    +0.000 NA
ATOM      9  H   UNL     1       4.217   8.498  16.462  0.00  0.00    +0.000 HD
ENDROOT
BRANCH   2  10
ATOM     10  C   UNL     1       2.181   7.779  19.084  0.00  0.00    +0.000 C 
BRANCH  10  11
ATOM     11  C   UNL     1       1.413   8.757  19.930  0.00  0.00    +0.000 A 
ATOM     12  C   UNL     1       1.132   8.529  21.270  0.00  0.00    +0.000 A 
ATOM     13  C   UNL     1       0.388   9.464  21.987  0.00  0.00    +0.000 A 
ATOM     14  C   UNL     1      -0.096  10.620  21.369  0.00  0.00    +0.000 A 
ATOM     15  N   UNL     1      -0.824  11.553  22.088  0.00  0.00    +0.000 N 
ATOM     16  C   UNL     1      -1.666  11.137  23.205  0.00  0.00    +0.000 C 
ATOM     17  C   UNL     1      -2.473  12.386  23.535  0.00  0.00    +0.000 C 
ATOM     18  C   UNL     1      -2.722  12.984  22.165  0.00  0.00    +0.000 C 
ATOM     19  F   UNL     1      -3.772  12.325  21.595  0.00  0.00    +0.000 F 
ATOM     20  C   UNL     1      -1.438  12.686  21.381  0.00  0.00    +0.000 C 
ATOM     21  N   UNL     1       0.176  10.852  20.066  0.00  0.00    +0.000 NA
ATOM     22  C   UNL     1       0.896   9.925  19.382  0.00  0.00    +0.000 A 
ENDBRANCH  10  11
ENDBRANCH   2  10
BRANCH   7  23
ATOM     23  C   UNL     1       5.276   3.872  19.268  0.00  0.00    +0.000 C 
BRANCH  23  24
ATOM     24  C   UNL     1       3.891   3.287  19.133  0.00  0.00    +0.000 A 
ATOM     25  C   UNL     1       3.477   2.726  17.912  0.00  0.00    +0.000 A 
ATOM     26  C   UNL     1       2.214   2.139  17.788  0.00  0.00    +0.000 A 
ATOM     27  C   UNL     1       1.359   2.111  18.885  0.00  0.00    +0.000 A 
ATOM     28  F   UNL     1       0.153   1.537  18.766  0.00  0.00    +0.000 F 
ATOM     29  C   UNL     1       1.755   2.663  20.094  0.00  0.00    +0.000 A 
ATOM     30  F   UNL     1       0.934   2.631  21.154  0.00  0.00    +0.000 F 
ATOM     31  C   UNL     1       3.012   3.245  20.229  0.00  0.00    +0.000 A 
ENDBRANCH  23  24
ENDBRANCH   7  23
TORSDOF 4
ENDMDL
