MODEL 1
REMARK VINA RESULT:      -7.1      0.000      0.000
REMARK  Name = 
REMARK  6 active torsions:
REMARK  status: ('A' for Active; 'I' for Inactive)
REMARK    1  A    between atoms: N_3  and  C_4
REMARK    2  A    between atoms: C_4  and  C_5
REMARK    3  A    between atoms: C_5  and  C_6
REMARK    4  A    between atoms: C_6  and  N_7
REMARK    5  A    between atoms: N_13  and  C_14
REMARK    6  A    between atoms: C_14  and  C_15
REMARK                            x       y       z     vdW  Elec       q    Type
REMARK                         _______ _______ _______ _____ _____    ______ ____
ROOT
ATOM      1  O   UNL     1       7.130   7.614  16.915  0.00  0.00    +0.000 OA
ATOM      2  C   UNL     1       7.784   7.545  17.948  0.00  0.00    +0.000 C 
ATOM      3  N   UNL     1       7.942   6.395  18.680  0.00  0.00    +0.000 N 
ATOM      4  N   UNL     1       8.438   8.604  18.514  0.00  0.00    +0.000 N 
ATOM      5  H   UNL     1       8.360   6.471  19.594  0.00  0.00    +0.000 HD
ATOM      6  H   UNL     1       9.095   8.419  19.253  0.00  0.00    +0.000 HD
ENDROOT
BRANCH   3   7
ATOM      7  C   UNL     1       7.236   5.166  18.359  0.00  0.00    +0.000 C 
BRANCH   7   8
ATOM      8  C   UNL     1       5.872   5.098  19.044  0.00  0.00    +0.000 C 
BRANCH   8   9
ATOM      9  C   UNL     1       4.845   4.442  18.119  0.00  0.00    +0.000 C 
BRANCH   9  10
ATOM     10  N   UNL     1       3.637   4.019  18.808  0.00  0.00    +0.000 N 
ATOM     11  C   UNL     1       3.640   3.023  19.851  0.00  0.00    +0.000 C 
ATOM     12  C   UNL     1       2.166   2.724  20.045  0.00  0.00    +0.000 C 
ATOM     13  C   UNL     1       1.485   4.053  19.730  0.00  0.00    +0.000 C 
ATOM     14  C   UNL     1       2.424   4.688  18.734  0.00  0.00    +0.000 C 
ATOM     15  O   UNL     1       2.167   5.654  18.035  0.00  0.00    +0.000 OA
ENDBRANCH   9  10
ENDBRANCH   8   9
ENDBRANCH   7   8
ENDBRANCH   3   7
BRANCH   4  16
ATOM     16  C   UNL     1       8.510   9.902  17.877  0.00  0.00    +0.000 C 
BRANCH  16  17
ATOM     17  C   UNL     1       9.526  10.768  18.579  0.00  0.00    +0.000 A 
ATOM     18  C   UNL     1      10.591  11.334  17.863  0.00  0.00    +0.000 A 
ATOM     19  C   UNL     1      11.586  12.056  18.526  0.00  0.00    +0.000 A 
ATOM     20  C   UNL     1      11.527  12.217  19.909  0.00  0.00    +0.000 A 
ATOM     21  C   UNL     1      10.465  11.676  20.630  0.00  0.00    +0.000 A 
ATOM     22  C   UNL     1       9.468  10.956  19.968  0.00  0.00    +0.000 A 
ENDBRANCH  16  17
ENDBRANCH   4  16
TORSDOF 6
ENDMDL
MODEL 2
REMARK VINA RESULT:      -7.1      1.091      1.112
REMARK  Name = 
REMARK  6 active torsions:
REMARK  status: ('A' for Active; 'I' for Inactive)
REMARK    1  A    between atoms: N_3  and  C_4
REMARK    2  A    between atoms: C_4  and  C_5
REMARK    3  A    between atoms: C_5  and  C_6
REMARK    4  A    between atoms: C_6  and  N_7
REMARK    5  A    between atoms: N_13  and  C_14
REMARK    6  A    between atoms: C_14  and  C_15
REMARK                            x       y       z     vdW  Elec       q    Type
REMARK                         _______ _______ _______ _____ _____    ______ ____
ROOT
ATOM      1  O   UNL     1       7.684   7.763  16.853  0.00  0.00    +0.000 OA
ATOM      2  C   UNL     1       8.083   7.831  18.008  0.00  0.00    +0.000 C 
ATOM      3  N   UNL     1       8.078   6.774  18.884  0.00  0.00    +0.000 N 
ATOM      4  N   UNL     1       8.581   8.968  18.582  0.00  0.00    +0.000 N 
ATOM      5  H   UNL     1       8.275   6.965  19.854  0.00  0.00    +0.000 HD
ATOM      6  H   UNL     1       9.052   8.887  19.467  0.00  0.00    +0.000 HD
ENDROOT
BRANCH   3   7
ATOM      7  C   UNL     1       7.475   5.494  18.555  0.00  0.00    +0.000 C 
BRANCH   7   8
ATOM      8  C   UNL     1       6.002   5.438  18.958  0.00  0.00    +0.000 C 
BRANCH   8   9
ATOM      9  C   UNL     1       5.109   5.724  17.749  0.00  0.00    +0.000 C 
BRANCH   9  10
ATOM     10  N   UNL     1       3.916   4.894  17.706  0.00  0.00    +0.000 N 
ATOM     11  C   UNL     1       3.965   3.454  17.689  0.00  0.00    +0.000 C 
ATOM     12  C   UNL     1       2.536   3.065  17.359  0.00  0.00    +0.000 C 
ATOM     13  C   UNL     1       1.705   4.176  17.994  0.00  0.00    +0.000 C 
ATOM     14  C   UNL     1       2.632   5.366  17.939  0.00  0.00    +0.000 C 
ATOM     15  O   UNL     1       2.305   6.527  18.124  0.00  0.00    +0.000 OA
ENDBRANCH   9  10
ENDBRANCH   8   9
ENDBRANCH   7   8
ENDBRANCH   3   7
BRANCH   4  16
ATOM     16  C   UNL     1       8.786  10.189  17.834  0.00  0.00    +0.000 C 
BRANCH  16  17
ATOM     17  C   UNL     1       9.651  11.141  18.622  0.00  0.00    +0.000 A 
ATOM     18  C   UNL     1      10.463  12.075  17.961  0.00  0.00    +0.000 A 
ATOM     19  C   UNL     1      11.335  12.891  18.684  0.00  0.00    +0.000 A 
ATOM     20  C   UNL     1      11.407  12.781  20.071  0.00  0.00    +0.000 A 
ATOM     21  C   UNL     1      10.593  11.869  20.741  0.00  0.00    +0.000 A 
ATOM     22  C   UNL     1       9.719  11.054  20.021  0.00  0.00    +0.000 A 
ENDBRANCH  16  17
ENDBRANCH   4  16
TORSDOF 6
ENDMDL
MODEL 3
REMARK VINA RESULT:      -6.9      4.854      5.986
REMARK  Name = 
REMARK  6 active torsions:
REMARK  status: ('A' for Active; 'I' for Inactive)
REMARK    1  A    between atoms: N_3  and  C_4
REMARK    2  A    between atoms: C_4  and  C_5
REMARK    3  A    between atoms: C_5  and  C_6
REMARK    4  A    between atoms: C_6  and  N_7
REMARK    5  A    between atoms: N_13  and  C_14
REMARK    6  A    between atoms: C_14  and  C_15
REMARK                            x       y       z     vdW  Elec       q    Type
REMARK                         _______ _______ _______ _____ _____    ______ ____
ROOT
ATOM      1  O   UNL     1       2.163   5.537  18.075  0.00  0.00    +0.000 OA
ATOM      2  C   UNL     1       2.948   5.970  18.908  0.00  0.00    +0.000 C 
ATOM      3  N   UNL     1       2.866   5.701  20.252  0.00  0.00    +0.000 N 
ATOM      4  N   UNL     1       4.008   6.783  18.614  0.00  0.00    +0.000 N 
ATOM      5  H   UNL     1       3.457   6.229  20.875  0.00  0.00    +0.000 HD
ATOM      6  H   UNL     1       4.700   6.939  19.327  0.00  0.00    +0.000 HD
ENDROOT
BRANCH   3   7
ATOM      7  C   UNL     1       1.752   4.971  20.831  0.00  0.00    +0.000 C 
BRANCH   7   8
ATOM      8  C   UNL     1       2.222   3.782  21.667  0.00  0.00    +0.000 C 
BRANCH   8   9
ATOM      9  C   UNL     1       1.867   2.468  20.969  0.00  0.00    +0.000 C 
BRANCH   9  10
ATOM     10  N   UNL     1       2.433   2.353  19.635  0.00  0.00    +0.000 N 
ATOM     11  C   UNL     1       1.649   2.510  18.435  0.00  0.00    +0.000 C 
ATOM     12  C   UNL     1       2.588   2.029  17.346  0.00  0.00    +0.000 C 
ATOM     13  C   UNL     1       3.970   2.406  17.869  0.00  0.00    +0.000 C 
ATOM     14  C   UNL     1       3.794   2.345  19.367  0.00  0.00    +0.000 C 
ATOM     15  O   UNL     1       4.698   2.346  20.186  0.00  0.00    +0.000 OA
ENDBRANCH   9  10
ENDBRANCH   8   9
ENDBRANCH   7   8
ENDBRANCH   3   7
BRANCH   4  16
ATOM     16  C   UNL     1       4.369   7.126  17.255  0.00  0.00    +0.000 C 
BRANCH  16  17
ATOM     17  C   UNL     1       5.287   6.075  16.682  0.00  0.00    +0.000 A 
ATOM     18  C   UNL     1       6.306   5.518  17.470  0.00  0.00    +0.000 A 
ATOM     19  C   UNL     1       7.216   4.616  16.915  0.00  0.00    +0.000 A 
ATOM     20  C   UNL     1       7.120   4.266  15.569  0.00  0.00    +0.000 A 
ATOM     21  C   UNL     1       6.101   4.798  14.781  0.00  0.00    +0.000 A 
ATOM     22  C   UNL     1       5.189   5.698  15.335  0.00  0.00    +0.000 A 
ENDBRANCH  16  17
ENDBRANCH   4  16
TORSDOF 6
ENDMDL
MODEL 4
REMARK VINA RESULT:      -6.9      1.048      1.652
REMARK  Name = 
REMARK  6 active torsions:
REMARK  status: ('A' for Active; 'I' for Inactive)
REMARK    1  A    between atoms: N_3  and  C_4
REMARK    2  A    between atoms: C_4  and  C_5
REMARK    3  A    between atoms: C_5  and  C_6
REMARK    4  A    between atoms: C_6  and  N_7
REMARK    5  A    between atoms: N_13  and  C_14
REMARK    6  A    between atoms: C_14  and  C_15
REMARK                            x       y       z     vdW  Elec       q    Type
REMARK                         _______ _______ _______ _____ _____    ______ ____
ROOT
ATOM      1  O   UNL     1       7.517   7.536  16.742  0.00  0.00    +0.000 OA
ATOM      2  C   UNL     1       7.882   7.539  17.910  0.00  0.00    +0.000 C 
ATOM      3  N   UNL     1       7.840   6.438  18.729  0.00  0.00    +0.000 N 
ATOM      4  N   UNL     1       8.375   8.638  18.558  0.00  0.00    +0.000 N 
ATOM      5  H   UNL     1       8.009   6.576  19.713  0.00  0.00    +0.000 HD
ATOM      6  H   UNL     1       8.817   8.506  19.451  0.00  0.00    +0.000 HD
ENDROOT
BRANCH   3   7
ATOM      7  C   UNL     1       7.233   5.184  18.316  0.00  0.00    +0.000 C 
BRANCH   7   8
ATOM      8  C   UNL     1       5.755   5.353  17.969  0.00  0.00    +0.000 C 
BRANCH   8   9
ATOM      9  C   UNL     1       4.889   5.139  19.212  0.00  0.00    +0.000 C 
BRANCH   9  10
ATOM     10  N   UNL     1       3.531   4.724  18.902  0.00  0.00    +0.000 N 
ATOM     11  C   UNL     1       3.128   4.279  17.592  0.00  0.00    +0.000 C 
ATOM     12  C   UNL     1       1.615   4.238  17.692  0.00  0.00    +0.000 C 
ATOM     13  C   UNL     1       1.361   3.879  19.153  0.00  0.00    +0.000 C 
ATOM     14  C   UNL     1       2.561   4.461  19.859  0.00  0.00    +0.000 C 
ATOM     15  O   UNL     1       2.667   4.616  21.065  0.00  0.00    +0.000 OA
ENDBRANCH   9  10
ENDBRANCH   8   9
ENDBRANCH   7   8
ENDBRANCH   3   7
BRANCH   4  16
ATOM     16  C   UNL     1       8.614   9.894  17.880  0.00  0.00    +0.000 C 
BRANCH  16  17
ATOM     17  C   UNL     1       9.601  10.725  18.663  0.00  0.00    +0.000 A 
ATOM     18  C   UNL     1       9.463  10.868  20.052  0.00  0.00    +0.000 A 
ATOM     19  C   UNL     1      10.317  11.713  20.764  0.00  0.00    +0.000 A 
ATOM     20  C   UNL     1      11.313  12.423  20.098  0.00  0.00    +0.000 A 
ATOM     21  C   UNL     1      11.473  12.275  18.721  0.00  0.00    +0.000 A 
ATOM     22  C   UNL     1      10.621  11.430  18.007  0.00  0.00    +0.000 A 
ENDBRANCH  16  17
ENDBRANCH   4  16
TORSDOF 6
ENDMDL
MODEL 5
REMARK VINA RESULT:      -6.9      1.870      9.086
REMARK  Name = 
REMARK  6 active torsions:
REMARK  status: ('A' for Active; 'I' for Inactive)
REMARK    1  A    between atoms: N_3  and  C_4
REMARK    2  A    between atoms: C_4  and  C_5
REMARK    3  A    between atoms: C_5  and  C_6
REMARK    4  A    between atoms: C_6  and  N_7
REMARK    5  A    between atoms: N_13  and  C_14
REMARK    6  A    between atoms: C_14  and  C_15
REMARK                            x       y       z     vdW  Elec       q    Type
REMARK                         _______ _______ _______ _____ _____    ______ ____
ROOT
ATOM      1  O   UNL     1       5.575   6.936  15.946  0.00  0.00    +0.000 OA
ATOM      2  C   UNL     1       5.894   6.518  17.051  0.00  0.00    +0.000 C 
ATOM      3  N   UNL     1       6.895   7.060  17.817  0.00  0.00    +0.000 N 
ATOM      4  N   UNL     1       5.299   5.452  17.668  0.00  0.00    +0.000 N 
ATOM      5  H   UNL     1       7.191   6.552  18.636  0.00  0.00    +0.000 HD
ATOM      6  H   UNL     1       5.498   5.294  18.641  0.00  0.00    +0.000 HD
ENDROOT
BRANCH   3   7
ATOM      7  C   UNL     1       7.764   8.116  17.326  0.00  0.00    +0.000 C 
BRANCH   7   8
ATOM      8  C   UNL     1       8.539   8.790  18.458  0.00  0.00    +0.000 C 
BRANCH   8   9
ATOM      9  C   UNL     1       8.607  10.301  18.230  0.00  0.00    +0.000 C 
BRANCH   9  10
ATOM     10  N   UNL     1       9.801  10.914  18.787  0.00  0.00    +0.000 N 
ATOM     11  C   UNL     1      10.840  11.488  17.969  0.00  0.00    +0.000 C 
ATOM     12  C   UNL     1      11.964  11.727  18.959  0.00  0.00    +0.000 C 
ATOM     13  C   UNL     1      11.236  12.027  20.266  0.00  0.00    +0.000 C 
ATOM     14  C   UNL     1       9.952  11.246  20.126  0.00  0.00    +0.000 C 
ATOM     15  O   UNL     1       9.168  11.005  21.029  0.00  0.00    +0.000 OA
ENDBRANCH   9  10
ENDBRANCH   8   9
ENDBRANCH   7   8
ENDBRANCH   3   7
BRANCH   4  16
ATOM     16  C   UNL     1       4.149   4.775  17.110  0.00  0.00    +0.000 C 
BRANCH  16  17
ATOM     17  C   UNL     1       3.089   4.596  18.169  0.00  0.00    +0.000 A 
ATOM     18  C   UNL     1       3.226   5.213  19.421  0.00  0.00    +0.000 A 
ATOM     19  C   UNL     1       2.297   4.971  20.434  0.00  0.00    +0.000 A 
ATOM     20  C   UNL     1       1.224   4.111  20.208  0.00  0.00    +0.000 A 
ATOM     21  C   UNL     1       1.066   3.506  18.962  0.00  0.00    +0.000 A 
ATOM     22  C   UNL     1       1.994   3.748  17.947  0.00  0.00    +0.000 A 
ENDBRANCH  16  17
ENDBRANCH   4  16
TORSDOF 6
ENDMDL
MODEL 6
REMARK VINA RESULT:      -6.9      4.679      7.115
REMARK  Name = 
REMARK  6 active torsions:
REMARK  status: ('A' for Active; 'I' for Inactive)
REMARK    1  A    between atoms: N_3  and  C_4
REMARK    2  A    between atoms: C_4  and  C_5
REMARK    3  A    between atoms: C_5  and  C_6
REMARK    4  A    between atoms: C_6  and  N_7
REMARK    5  A    between atoms: N_13  and  C_14
REMARK    6  A    between atoms: C_14  and  C_15
REMARK                            x       y       z     vdW  Elec       q    Type
REMARK                         _______ _______ _______ _____ _____    ______ ____
ROOT
ATOM      1  O   UNL     1       7.899   4.402  16.546  0.00  0.00    +0.000 OA
ATOM      2  C   UNL     1       6.917   5.064  16.236  0.00  0.00    +0.000 C 
ATOM      3  N   UNL     1       6.063   5.639  17.145  0.00  0.00    +0.000 N 
ATOM      4  N   UNL     1       6.535   5.313  14.947  0.00  0.00    +0.000 N 
ATOM      5  H   UNL     1       5.199   6.026  16.799  0.00  0.00    +0.000 HD
ATOM      6  H   UNL     1       5.829   6.011  14.787  0.00  0.00    +0.000 HD
ENDROOT
BRANCH   3   7
ATOM      7  C   UNL     1       6.178   5.408  18.574  0.00  0.00    +0.000 C 
BRANCH   7   8
ATOM      8  C   UNL     1       5.092   4.463  19.087  0.00  0.00    +0.000 C 
BRANCH   8   9
ATOM      9  C   UNL     1       3.705   5.028  18.779  0.00  0.00    +0.000 C 
BRANCH   9  10
ATOM     10  N   UNL     1       2.621   4.145  19.177  0.00  0.00    +0.000 N 
ATOM     11  C   UNL     1       1.958   4.245  20.453  0.00  0.00    +0.000 C 
ATOM     12  C   UNL     1       1.135   2.973  20.513  0.00  0.00    +0.000 C 
ATOM     13  C   UNL     1       0.778   2.705  19.054  0.00  0.00    +0.000 C 
ATOM     14  C   UNL     1       1.943   3.306  18.305  0.00  0.00    +0.000 C 
ATOM     15  O   UNL     1       2.197   3.120  17.126  0.00  0.00    +0.000 OA
ENDBRANCH   9  10
ENDBRANCH   8   9
ENDBRANCH   7   8
ENDBRANCH   3   7
BRANCH   4  16
ATOM     16  C   UNL     1       7.329   4.902  13.810  0.00  0.00    +0.000 C 
BRANCH  16  17
ATOM     17  C   UNL     1       6.537   3.958  12.939  0.00  0.00    +0.000 A 
ATOM     18  C   UNL     1       7.195   3.031  12.116  0.00  0.00    +0.000 A 
ATOM     19  C   UNL     1       6.470   2.223  11.240  0.00  0.00    +0.000 A 
ATOM     20  C   UNL     1       5.082   2.333  11.174  0.00  0.00    +0.000 A 
ATOM     21  C   UNL     1       4.414   3.236  11.999  0.00  0.00    +0.000 A 
ATOM     22  C   UNL     1       5.138   4.044  12.878  0.00  0.00    +0.000 A 
ENDBRANCH  16  17
ENDBRANCH   4  16
TORSDOF 6
ENDMDL
MODEL 7
REMARK VINA RESULT:      -6.8      2.441      9.239
REMARK  Name = 
REMARK  6 active torsions:
REMARK  status: ('A' for Active; 'I' for Inactive)
REMARK    1  A    between atoms: N_3  and  C_4
REMARK    2  A    between atoms: C_4  and  C_5
REMARK    3  A    between atoms: C_5  and  C_6
REMARK    4  A    between atoms: C_6  and  N_7
REMARK    5  A    between atoms: N_13  and  C_14
REMARK    6  A    between atoms: C_14  and  C_15
REMARK                            x       y       z     vdW  Elec       q    Type
REMARK                         _______ _______ _______ _____ _____    ______ ____
ROOT
ATOM      1  O   UNL     1       7.745   6.047  18.086  0.00  0.00    +0.000 OA
ATOM      2  C   UNL     1       7.272   6.953  17.413  0.00  0.00    +0.000 C 
ATOM      3  N   UNL     1       7.677   8.262  17.495  0.00  0.00    +0.000 N 
ATOM      4  N   UNL     1       6.274   6.784  16.492  0.00  0.00    +0.000 N 
ATOM      5  H   UNL     1       7.122   8.957  17.021  0.00  0.00    +0.000 HD
ATOM      6  H   UNL     1       6.077   7.540  15.860  0.00  0.00    +0.000 HD
ENDROOT
BRANCH   3   7
ATOM      7  C   UNL     1       8.628   8.720  18.492  0.00  0.00    +0.000 C 
BRANCH   7   8
ATOM      8  C   UNL     1       8.912  10.216  18.365  0.00  0.00    +0.000 C 
BRANCH   8   9
ATOM      9  C   UNL     1       9.386  10.783  19.704  0.00  0.00    +0.000 C 
BRANCH   9  10
ATOM     10  N   UNL     1      10.013  12.090  19.587  0.00  0.00    +0.000 N 
ATOM     11  C   UNL     1       9.257  13.310  19.446  0.00  0.00    +0.000 C 
ATOM     12  C   UNL     1      10.317  14.331  19.080  0.00  0.00    +0.000 C 
ATOM     13  C   UNL     1      11.563  13.831  19.804  0.00  0.00    +0.000 C 
ATOM     14  C   UNL     1      11.351  12.337  19.855  0.00  0.00    +0.000 C 
ATOM     15  O   UNL     1      12.202  11.510  20.137  0.00  0.00    +0.000 OA
ENDBRANCH   9  10
ENDBRANCH   8   9
ENDBRANCH   7   8
ENDBRANCH   3   7
BRANCH   4  16
ATOM     16  C   UNL     1       5.751   5.480  16.147  0.00  0.00    +0.000 C 
BRANCH  16  17
ATOM     17  C   UNL     1       4.477   5.214  16.911  0.00  0.00    +0.000 A 
ATOM     18  C   UNL     1       3.902   3.934  16.907  0.00  0.00    +0.000 A 
ATOM     19  C   UNL     1       2.675   3.708  17.532  0.00  0.00    +0.000 A 
ATOM     20  C   UNL     1       2.009   4.757  18.165  0.00  0.00    +0.000 A 
ATOM     21  C   UNL     1       2.579   6.029  18.191  0.00  0.00    +0.000 A 
ATOM     22  C   UNL     1       3.807   6.256  17.568  0.00  0.00    +0.000 A 
ENDBRANCH  16  17
ENDBRANCH   4  16
TORSDOF 6
ENDMDL
MODEL 8
REMARK VINA RESULT:      -6.7      4.531      8.352
REMARK  Name = 
REMARK  6 active torsions:
REMARK  status: ('A' for Active; 'I' for Inactive)
REMARK    1  A    between atoms: N_3  and  C_4
REMARK    2  A    between atoms: C_4  and  C_5
REMARK    3  A    between atoms: C_5  and  C_6
REMARK    4  A    between atoms: C_6  and  N_7
REMARK    5  A    between atoms: N_13  and  C_14
REMARK    6  A    between atoms: C_14  and  C_15
REMARK                            x       y       z     vdW  Elec       q    Type
REMARK                         _______ _______ _______ _____ _____    ______ ____
ROOT
ATOM      1  O   UNL     1       5.467   4.273  19.695  0.00  0.00    +0.000 OA
ATOM      2  C   UNL     1       5.242   5.331  19.121  0.00  0.00    +0.000 C 
ATOM      3  N   UNL     1       6.051   5.862  18.147  0.00  0.00    +0.000 N 
ATOM      4  N   UNL     1       4.161   6.128  19.378  0.00  0.00    +0.000 N 
ATOM      5  H   UNL     1       5.871   6.808  17.850  0.00  0.00    +0.000 HD
ATOM      6  H   UNL     1       3.960   6.878  18.739  0.00  0.00    +0.000 HD
ENDROOT
BRANCH   3   7
ATOM      7  C   UNL     1       7.329   5.272  17.791  0.00  0.00    +0.000 C 
BRANCH   7   8
ATOM      8  C   UNL     1       7.237   4.440  16.512  0.00  0.00    +0.000 C 
BRANCH   8   9
ATOM      9  C   UNL     1       6.430   5.186  15.449  0.00  0.00    +0.000 C 
BRANCH   9  10
ATOM     10  N   UNL     1       6.613   4.654  14.109  0.00  0.00    +0.000 N 
ATOM     11  C   UNL     1       5.623   3.839  13.449  0.00  0.00    +0.000 C 
ATOM     12  C   UNL     1       6.367   3.307  12.239  0.00  0.00    +0.000 C 
ATOM     13  C   UNL     1       7.343   4.428  11.895  0.00  0.00    +0.000 C 
ATOM     14  C   UNL     1       7.605   5.073  13.235  0.00  0.00    +0.000 C 
ATOM     15  O   UNL     1       8.503   5.863  13.476  0.00  0.00    +0.000 OA
ENDBRANCH   9  10
ENDBRANCH   8   9
ENDBRANCH   7   8
ENDBRANCH   3   7
BRANCH   4  16
ATOM     16  C   UNL     1       3.108   5.737  20.290  0.00  0.00    +0.000 C 
BRANCH  16  17
ATOM     17  C   UNL     1       2.348   4.561  19.728  0.00  0.00    +0.000 A 
ATOM     18  C   UNL     1       2.010   4.519  18.367  0.00  0.00    +0.000 A 
ATOM     19  C   UNL     1       1.225   3.480  17.865  0.00  0.00    +0.000 A 
ATOM     20  C   UNL     1       0.767   2.475  18.716  0.00  0.00    +0.000 A 
ATOM     21  C   UNL     1       1.110   2.496  20.067  0.00  0.00    +0.000 A 
ATOM     22  C   UNL     1       1.897   3.533  20.570  0.00  0.00    +0.000 A 
ENDBRANCH  16  17
ENDBRANCH   4  16
TORSDOF 6
ENDMDL
MODEL 9
REMARK VINA RESULT:      -6.7      3.664      7.036
REMARK  Name = 
REMARK  6 active torsions:
REMARK  status: ('A' for Active; 'I' for Inactive)
REMARK    1  A    between atoms: N_3  and  C_4
REMARK    2  A    between atoms: C_4  and  C_5
REMARK    3  A    between atoms: C_5  and  C_6
REMARK    4  A    between atoms: C_6  and  N_7
REMARK    5  A    between atoms: N_13  and  C_14
REMARK    6  A    between atoms: C_14  and  C_15
REMARK                            x       y       z     vdW  Elec       q    Type
REMARK                         _______ _______ _______ _____ _____    ______ ____
ROOT
ATOM      1  O   UNL     1       4.570   5.142  19.277  0.00  0.00    +0.000 OA
ATOM      2  C   UNL     1       3.603   5.118  18.527  0.00  0.00    +0.000 C 
ATOM      3  N   UNL     1       3.562   4.411  17.351  0.00  0.00    +0.000 N 
ATOM      4  N   UNL     1       2.437   5.795  18.757  0.00  0.00    +0.000 N 
ATOM      5  H   UNL     1       2.789   4.580  16.726  0.00  0.00    +0.000 HD
ATOM      6  H   UNL     1       1.638   5.574  18.188  0.00  0.00    +0.000 HD
ENDROOT
BRANCH   3   7
ATOM      7  C   UNL     1       4.723   3.719  16.819  0.00  0.00    +0.000 C 
BRANCH   7   8
ATOM      8  C   UNL     1       5.164   4.295  15.475  0.00  0.00    +0.000 C 
BRANCH   8   9
ATOM      9  C   UNL     1       6.661   4.610  15.496  0.00  0.00    +0.000 C 
BRANCH   9  10
ATOM     10  N   UNL     1       7.042   5.522  16.562  0.00  0.00    +0.000 N 
ATOM     11  C   UNL     1       6.462   6.833  16.713  0.00  0.00    +0.000 C 
ATOM     12  C   UNL     1       7.357   7.488  17.749  0.00  0.00    +0.000 C 
ATOM     13  C   UNL     1       7.802   6.322  18.627  0.00  0.00    +0.000 C 
ATOM     14  C   UNL     1       7.784   5.152  17.674  0.00  0.00    +0.000 C 
ATOM     15  O   UNL     1       8.290   4.062  17.882  0.00  0.00    +0.000 OA
ENDBRANCH   9  10
ENDBRANCH   8   9
ENDBRANCH   7   8
ENDBRANCH   3   7
BRANCH   4  16
ATOM     16  C   UNL     1       2.195   6.529  19.980  0.00  0.00    +0.000 C 
BRANCH  16  17
ATOM     17  C   UNL     1       1.812   7.954  19.662  0.00  0.00    +0.000 A 
ATOM     18  C   UNL     1       1.134   8.735  20.610  0.00  0.00    +0.000 A 
ATOM     19  C   UNL     1       0.695  10.019  20.285  0.00  0.00    +0.000 A 
ATOM     20  C   UNL     1       0.925  10.535  19.011  0.00  0.00    +0.000 A 
ATOM     21  C   UNL     1       1.613   9.776  18.065  0.00  0.00    +0.000 A 
ATOM     22  C   UNL     1       2.055   8.492  18.389  0.00  0.00    +0.000 A 
ENDBRANCH  16  17
ENDBRANCH   4  16
TORSDOF 6
ENDMDL
