MODEL 1
REMARK VINA RESULT:      -8.9      0.000      0.000
REMARK  Name = 
REMARK  9 active torsions:
REMARK  status: ('A' for Active; 'I' for Inactive)
REMARK    1  A    between atoms: C_2  and  O_3
REMARK    2  A    between atoms: O_3  and  C_4
REMARK    3  A    between atoms: C_4  and  C_5
REMARK    4  A    between atoms: C_18  and  O_19
REMARK    5  A    between atoms: C_18  and  O_27
REMARK    6  A    between atoms: O_19  and  C_20
REMARK    7  A    between atoms: C_20  and  C_21
REMARK    8  A    between atoms: O_27  and  C_28
REMARK    9  A    between atoms: C_28  and  C_29
REMARK                            x       y       z     vdW  Elec       q    Type
REMARK                         _______ _______ _______ _____ _____    ______ ____
ROOT
ATOM      1  O   UNL     1       7.221   9.103  17.205  0.00  0.00    +0.000 OA
ATOM      2  C   UNL     1       7.921   8.411  17.934  0.00  0.00    +0.000 C 
ATOM      3  N   UNL     1       7.602   7.105  18.251  0.00  0.00    +0.000 N 
ATOM      4  N   UNL     1       8.302   6.450  19.299  0.00  0.00    +0.000 NA
ATOM      5  N   UNL     1       7.639   5.399  19.633  0.00  0.00    +0.000 NA
ATOM      6  C   UNL     1       6.687   5.165  18.541  0.00  0.00    +0.000 C 
ATOM      7  C   UNL     1       6.283   6.577  18.291  0.00  0.00    +0.000 C 
ATOM      8  C   UNL     1       4.941   6.425  17.601  0.00  0.00    +0.000 C 
ATOM      9  C   UNL     1       4.494   5.375  16.578  0.00  0.00    +0.000 C 
ATOM     10  C   UNL     1       4.977   4.000  17.134  0.00  0.00    +0.000 C 
ATOM     11  C   UNL     1       5.347   4.470  18.604  0.00  0.00    +0.000 C 
ATOM     12  O   UNL     1       4.399   5.619  18.748  0.00  0.00    +0.000 OA
ENDROOT
BRANCH   2  13
ATOM     13  O   UNL     1       9.081   8.829  18.523  0.00  0.00    +0.000 OA
BRANCH  13  14
ATOM     14  C   UNL     1       9.036  10.021  19.331  0.00  0.00    +0.000 C 
BRANCH  14  15
ATOM     15  C   UNL     1      10.132  11.025  19.026  0.00  0.00    +0.000 A 
ATOM     16  C   UNL     1      11.200  11.273  19.902  0.00  0.00    +0.000 A 
ATOM     17  C   UNL     1      12.232  12.147  19.540  0.00  0.00    +0.000 A 
ATOM     18  C   UNL     1      12.219  12.777  18.295  0.00  0.00    +0.000 A 
ATOM     19  C   UNL     1      11.171  12.536  17.410  0.00  0.00    +0.000 A 
ATOM     20  C   UNL     1      10.140  11.664  17.772  0.00  0.00    +0.000 A 
ENDBRANCH  14  15
ENDBRANCH  13  14
ENDBRANCH   2  13
BRANCH  10  21
ATOM     21  O   UNL     1       6.009   3.642  16.208  0.00  0.00    +0.000 OA
BRANCH  21  22
ATOM     22  C   UNL     1       5.733   3.219  14.887  0.00  0.00    +0.000 C 
BRANCH  22  23
ATOM     23  C   UNL     1       6.375   3.967  13.750  0.00  0.00    +0.000 A 
ATOM     24  C   UNL     1       7.271   5.024  13.979  0.00  0.00    +0.000 A 
ATOM     25  C   UNL     1       7.987   5.586  12.918  0.00  0.00    +0.000 A 
ATOM     26  C   UNL     1       7.817   5.095  11.625  0.00  0.00    +0.000 A 
ATOM     27  C   UNL     1       6.914   4.063  11.385  0.00  0.00    +0.000 A 
ATOM     28  C   UNL     1       6.192   3.506  12.441  0.00  0.00    +0.000 A 
ENDBRANCH  22  23
ENDBRANCH  21  22
ENDBRANCH  10  21
BRANCH  10  29
ATOM     29  O   UNL     1       3.928   3.019  17.165  0.00  0.00    +0.000 OA
BRANCH  29  30
ATOM     30  C   UNL     1       3.979   2.176  18.324  0.00  0.00    +0.000 C 
BRANCH  30  31
ATOM     31  C   UNL     1       2.983   2.554  19.393  0.00  0.00    +0.000 A 
ATOM     32  C   UNL     1       1.654   2.892  19.101  0.00  0.00    +0.000 A 
ATOM     33  C   UNL     1       0.745   3.117  20.145  0.00  0.00    +0.000 A 
ATOM     34  C   UNL     1       1.123   2.975  21.475  0.00  0.00    +0.000 A 
ATOM     35  C   UNL     1       2.443   2.632  21.781  0.00  0.00    +0.000 A 
ATOM     36  C   UNL     1       3.362   2.427  20.748  0.00  0.00    +0.000 A 
ENDBRANCH  30  31
ENDBRANCH  29  30
ENDBRANCH  10  29
TORSDOF 9
ENDMDL
MODEL 2
REMARK VINA RESULT:      -8.9      8.557     11.930
REMARK  Name = 
REMARK  9 active torsions:
REMARK  status: ('A' for Active; 'I' for Inactive)
REMARK    1  A    between atoms: C_2  and  O_3
REMARK    2  A    between atoms: O_3  and  C_4
REMARK    3  A    between atoms: C_4  and  C_5
REMARK    4  A    between atoms: C_18  and  O_19
REMARK    5  A    between atoms: C_18  and  O_27
REMARK    6  A    between atoms: O_19  and  C_20
REMARK    7  A    between atoms: C_20  and  C_21
REMARK    8  A    between atoms: O_27  and  C_28
REMARK    9  A    between atoms: C_28  and  C_29
REMARK                            x       y       z     vdW  Elec       q    Type
REMARK                         _______ _______ _______ _____ _____    ______ ____
ROOT
ATOM      1  O   UNL     1       2.251   8.973  17.345  0.00  0.00    +0.000 OA
ATOM      2  C   UNL     1       2.045   8.503  18.457  0.00  0.00    +0.000 C 
ATOM      3  N   UNL     1       1.277   9.148  19.407  0.00  0.00    +0.000 N 
ATOM      4  N   UNL     1       1.295   8.685  20.750  0.00  0.00    +0.000 NA
ATOM      5  N   UNL     1       0.792   9.601  21.501  0.00  0.00    +0.000 NA
ATOM      6  C   UNL     1       0.098  10.522  20.592  0.00  0.00    +0.000 C 
ATOM      7  C   UNL     1       1.106  10.555  19.496  0.00  0.00    +0.000 C 
ATOM      8  C   UNL     1       0.783  11.855  18.784  0.00  0.00    +0.000 C 
ATOM      9  C   UNL     1      -0.583  12.489  18.502  0.00  0.00    +0.000 C 
ATOM     10  C   UNL     1      -1.388  12.387  19.834  0.00  0.00    +0.000 C 
ATOM     11  C   UNL     1      -0.186  11.992  20.792  0.00  0.00    +0.000 C 
ATOM     12  O   UNL     1       0.946  12.637  20.056  0.00  0.00    +0.000 OA
ENDROOT
BRANCH   2  13
ATOM     13  O   UNL     1       2.541   7.310  18.899  0.00  0.00    +0.000 OA
BRANCH  13  14
ATOM     14  C   UNL     1       2.375   6.154  18.054  0.00  0.00    +0.000 C 
BRANCH  14  15
ATOM     15  C   UNL     1       1.854   4.924  18.772  0.00  0.00    +0.000 A 
ATOM     16  C   UNL     1       1.495   3.746  18.099  0.00  0.00    +0.000 A 
ATOM     17  C   UNL     1       1.098   2.608  18.812  0.00  0.00    +0.000 A 
ATOM     18  C   UNL     1       1.064   2.626  20.207  0.00  0.00    +0.000 A 
ATOM     19  C   UNL     1       1.426   3.784  20.891  0.00  0.00    +0.000 A 
ATOM     20  C   UNL     1       1.820   4.920  20.179  0.00  0.00    +0.000 A 
ENDBRANCH  14  15
ENDBRANCH  13  14
ENDBRANCH   2  13
BRANCH  10  21
ATOM     21  O   UNL     1      -2.398  11.425  19.507  0.00  0.00    +0.000 OA
BRANCH  21  22
ATOM     22  C   UNL     1      -3.227  11.549  18.367  0.00  0.00    +0.000 C 
BRANCH  22  23
ATOM     23  C   UNL     1      -4.673  11.908  18.574  0.00  0.00    +0.000 A 
ATOM     24  C   UNL     1      -5.562  12.030  17.493  0.00  0.00    +0.000 A 
ATOM     25  C   UNL     1      -6.932  12.189  17.720  0.00  0.00    +0.000 A 
ATOM     26  C   UNL     1      -7.424  12.224  19.024  0.00  0.00    +0.000 A 
ATOM     27  C   UNL     1      -6.548  12.125  20.101  0.00  0.00    +0.000 A 
ATOM     28  C   UNL     1      -5.179  11.976  19.878  0.00  0.00    +0.000 A 
ENDBRANCH  22  23
ENDBRANCH  21  22
ENDBRANCH  10  21
BRANCH  10  29
ATOM     29  O   UNL     1      -1.961  13.643  20.230  0.00  0.00    +0.000 OA
BRANCH  29  30
ATOM     30  C   UNL     1      -1.836  13.901  21.635  0.00  0.00    +0.000 C 
BRANCH  30  31
ATOM     31  C   UNL     1      -3.064  13.532  22.432  0.00  0.00    +0.000 A 
ATOM     32  C   UNL     1      -3.041  12.567  23.448  0.00  0.00    +0.000 A 
ATOM     33  C   UNL     1      -4.183  12.353  24.235  0.00  0.00    +0.000 A 
ATOM     34  C   UNL     1      -5.336  13.107  24.054  0.00  0.00    +0.000 A 
ATOM     35  C   UNL     1      -5.371  14.077  23.048  0.00  0.00    +0.000 A 
ATOM     36  C   UNL     1      -4.245  14.284  22.245  0.00  0.00    +0.000 A 
ENDBRANCH  30  31
ENDBRANCH  29  30
ENDBRANCH  10  29
TORSDOF 9
ENDMDL
MODEL 3
REMARK VINA RESULT:      -8.8      0.676      1.299
REMARK  Name = 
REMARK  9 active torsions:
REMARK  status: ('A' for Active; 'I' for Inactive)
REMARK    1  A    between atoms: C_2  and  O_3
REMARK    2  A    between atoms: O_3  and  C_4
REMARK    3  A    between atoms: C_4  and  C_5
REMARK    4  A    between atoms: C_18  and  O_19
REMARK    5  A    between atoms: C_18  and  O_27
REMARK    6  A    between atoms: O_19  and  C_20
REMARK    7  A    between atoms: C_20  and  C_21
REMARK    8  A    between atoms: O_27  and  C_28
REMARK    9  A    between atoms: C_28  and  C_29
REMARK                            x       y       z     vdW  Elec       q    Type
REMARK                         _______ _______ _______ _____ _____    ______ ____
ROOT
ATOM      1  O   UNL     1       6.928   9.092  17.126  0.00  0.00    +0.000 OA
ATOM      2  C   UNL     1       7.740   8.456  17.787  0.00  0.00    +0.000 C 
ATOM      3  N   UNL     1       7.553   7.128  18.117  0.00  0.00    +0.000 N 
ATOM      4  N   UNL     1       8.389   6.527  19.095  0.00  0.00    +0.000 NA
ATOM      5  N   UNL     1       7.842   5.425  19.474  0.00  0.00    +0.000 NA
ATOM      6  C   UNL     1       6.823   5.120  18.462  0.00  0.00    +0.000 C 
ATOM      7  C   UNL     1       6.289   6.495  18.262  0.00  0.00    +0.000 C 
ATOM      8  C   UNL     1       4.910   6.238  17.685  0.00  0.00    +0.000 C 
ATOM      9  C   UNL     1       4.464   5.159  16.691  0.00  0.00    +0.000 C 
ATOM     10  C   UNL     1       5.100   3.825  17.191  0.00  0.00    +0.000 C 
ATOM     11  C   UNL     1       5.553   4.319  18.630  0.00  0.00    +0.000 C 
ATOM     12  O   UNL     1       4.532   5.388  18.864  0.00  0.00    +0.000 OA
ENDROOT
BRANCH   2  13
ATOM     13  O   UNL     1       8.908   8.964  18.281  0.00  0.00    +0.000 OA
BRANCH  13  14
ATOM     14  C   UNL     1       8.848  10.200  19.020  0.00  0.00    +0.000 C 
BRANCH  14  15
ATOM     15  C   UNL     1      10.098  11.053  18.915  0.00  0.00    +0.000 A 
ATOM     16  C   UNL     1      10.557  11.581  17.699  0.00  0.00    +0.000 A 
ATOM     17  C   UNL     1      11.669  12.432  17.664  0.00  0.00    +0.000 A 
ATOM     18  C   UNL     1      12.331  12.775  18.843  0.00  0.00    +0.000 A 
ATOM     19  C   UNL     1      11.884  12.266  20.060  0.00  0.00    +0.000 A 
ATOM     20  C   UNL     1      10.775  11.415  20.094  0.00  0.00    +0.000 A 
ENDBRANCH  14  15
ENDBRANCH  13  14
ENDBRANCH   2  13
BRANCH  10  21
ATOM     21  O   UNL     1       6.075   3.554  16.179  0.00  0.00    +0.000 OA
BRANCH  21  22
ATOM     22  C   UNL     1       6.727   4.581  15.456  0.00  0.00    +0.000 C 
BRANCH  22  23
ATOM     23  C   UNL     1       6.719   4.509  13.953  0.00  0.00    +0.000 A 
ATOM     24  C   UNL     1       7.551   5.329  13.173  0.00  0.00    +0.000 A 
ATOM     25  C   UNL     1       7.655   5.122  11.795  0.00  0.00    +0.000 A 
ATOM     26  C   UNL     1       6.934   4.096  11.187  0.00  0.00    +0.000 A 
ATOM     27  C   UNL     1       6.090   3.292  11.948  0.00  0.00    +0.000 A 
ATOM     28  C   UNL     1       5.978   3.502  13.323  0.00  0.00    +0.000 A 
ENDBRANCH  22  23
ENDBRANCH  21  22
ENDBRANCH  10  21
BRANCH  10  29
ATOM     29  O   UNL     1       4.138   2.763  17.300  0.00  0.00    +0.000 OA
BRANCH  29  30
ATOM     30  C   UNL     1       2.784   3.231  17.335  0.00  0.00    +0.000 C 
BRANCH  30  31
ATOM     31  C   UNL     1       2.146   3.145  18.700  0.00  0.00    +0.000 A 
ATOM     32  C   UNL     1       2.426   2.106  19.599  0.00  0.00    +0.000 A 
ATOM     33  C   UNL     1       1.898   2.144  20.898  0.00  0.00    +0.000 A 
ATOM     34  C   UNL     1       1.125   3.215  21.332  0.00  0.00    +0.000 A 
ATOM     35  C   UNL     1       0.843   4.260  20.448  0.00  0.00    +0.000 A 
ATOM     36  C   UNL     1       1.348   4.222  19.145  0.00  0.00    +0.000 A 
ENDBRANCH  30  31
ENDBRANCH  29  30
ENDBRANCH  10  29
TORSDOF 9
ENDMDL
MODEL 4
REMARK VINA RESULT:      -8.7      0.273      1.417
REMARK  Name = 
REMARK  9 active torsions:
REMARK  status: ('A' for Active; 'I' for Inactive)
REMARK    1  A    between atoms: C_2  and  O_3
REMARK    2  A    between atoms: O_3  and  C_4
REMARK    3  A    between atoms: C_4  and  C_5
REMARK    4  A    between atoms: C_18  and  O_19
REMARK    5  A    between atoms: C_18  and  O_27
REMARK    6  A    between atoms: O_19  and  C_20
REMARK    7  A    between atoms: C_20  and  C_21
REMARK    8  A    between atoms: O_27  and  C_28
REMARK    9  A    between atoms: C_28  and  C_29
REMARK                            x       y       z     vdW  Elec       q    Type
REMARK                         _______ _______ _______ _____ _____    ______ ____
ROOT
ATOM      1  O   UNL     1       6.969   9.124  17.238  0.00  0.00    +0.000 OA
ATOM      2  C   UNL     1       7.769   8.410  17.830  0.00  0.00    +0.000 C 
ATOM      3  N   UNL     1       7.510   7.086  18.123  0.00  0.00    +0.000 N 
ATOM      4  N   UNL     1       8.354   6.394  19.032  0.00  0.00    +0.000 NA
ATOM      5  N   UNL     1       7.754   5.317  19.401  0.00  0.00    +0.000 NA
ATOM      6  C   UNL     1       6.665   5.119  18.437  0.00  0.00    +0.000 C 
ATOM      7  C   UNL     1       6.215   6.533  18.315  0.00  0.00    +0.000 C 
ATOM      8  C   UNL     1       4.794   6.390  17.806  0.00  0.00    +0.000 C 
ATOM      9  C   UNL     1       4.223   5.382  16.801  0.00  0.00    +0.000 C 
ATOM     10  C   UNL     1       4.793   3.991  17.218  0.00  0.00    +0.000 C 
ATOM     11  C   UNL     1       5.354   4.397  18.646  0.00  0.00    +0.000 C 
ATOM     12  O   UNL     1       4.422   5.521  18.974  0.00  0.00    +0.000 OA
ENDROOT
BRANCH   2  13
ATOM     13  O   UNL     1       8.993   8.821  18.277  0.00  0.00    +0.000 OA
BRANCH  13  14
ATOM     14  C   UNL     1       9.036   9.876  19.257  0.00  0.00    +0.000 C 
BRANCH  14  15
ATOM     15  C   UNL     1      10.017  10.988  18.937  0.00  0.00    +0.000 A 
ATOM     16  C   UNL     1       9.895  11.807  17.804  0.00  0.00    +0.000 A 
ATOM     17  C   UNL     1      10.777  12.874  17.595  0.00  0.00    +0.000 A 
ATOM     18  C   UNL     1      11.788  13.144  18.519  0.00  0.00    +0.000 A 
ATOM     19  C   UNL     1      11.918  12.347  19.653  0.00  0.00    +0.000 A 
ATOM     20  C   UNL     1      11.038  11.281  19.861  0.00  0.00    +0.000 A 
ENDBRANCH  14  15
ENDBRANCH  13  14
ENDBRANCH   2  13
BRANCH  10  21
ATOM     21  O   UNL     1       5.693   3.696  16.145  0.00  0.00    +0.000 OA
BRANCH  21  22
ATOM     22  C   UNL     1       5.276   3.642  14.794  0.00  0.00    +0.000 C 
BRANCH  22  23
ATOM     23  C   UNL     1       6.275   3.995  13.725  0.00  0.00    +0.000 A 
ATOM     24  C   UNL     1       6.229   3.405  12.452  0.00  0.00    +0.000 A 
ATOM     25  C   UNL     1       7.052   3.875  11.425  0.00  0.00    +0.000 A 
ATOM     26  C   UNL     1       7.925   4.936  11.661  0.00  0.00    +0.000 A 
ATOM     27  C   UNL     1       7.993   5.513  12.926  0.00  0.00    +0.000 A 
ATOM     28  C   UNL     1       7.178   5.040  13.955  0.00  0.00    +0.000 A 
ENDBRANCH  22  23
ENDBRANCH  21  22
ENDBRANCH  10  21
BRANCH  10  29
ATOM     29  O   UNL     1       3.769   2.991  17.342  0.00  0.00    +0.000 OA
BRANCH  29  30
ATOM     30  C   UNL     1       3.957   2.128  18.471  0.00  0.00    +0.000 C 
BRANCH  30  31
ATOM     31  C   UNL     1       2.932   2.321  19.561  0.00  0.00    +0.000 A 
ATOM     32  C   UNL     1       3.274   2.367  20.920  0.00  0.00    +0.000 A 
ATOM     33  C   UNL     1       2.295   2.669  21.878  0.00  0.00    +0.000 A 
ATOM     34  C   UNL     1       0.989   2.962  21.507  0.00  0.00    +0.000 A 
ATOM     35  C   UNL     1       0.634   2.926  20.155  0.00  0.00    +0.000 A 
ATOM     36  C   UNL     1       1.598   2.606  19.195  0.00  0.00    +0.000 A 
ENDBRANCH  30  31
ENDBRANCH  29  30
ENDBRANCH  10  29
TORSDOF 9
ENDMDL
MODEL 5
REMARK VINA RESULT:      -8.6      1.159      1.725
REMARK  Name = 
REMARK  9 active torsions:
REMARK  status: ('A' for Active; 'I' for Inactive)
REMARK    1  A    between atoms: C_2  and  O_3
REMARK    2  A    between atoms: O_3  and  C_4
REMARK    3  A    between atoms: C_4  and  C_5
REMARK    4  A    between atoms: C_18  and  O_19
REMARK    5  A    between atoms: C_18  and  O_27
REMARK    6  A    between atoms: O_19  and  C_20
REMARK    7  A    between atoms: C_20  and  C_21
REMARK    8  A    between atoms: O_27  and  C_28
REMARK    9  A    between atoms: C_28  and  C_29
REMARK                            x       y       z     vdW  Elec       q    Type
REMARK                         _______ _______ _______ _____ _____    ______ ____
ROOT
ATOM      1  O   UNL     1       6.993   9.289  17.233  0.00  0.00    +0.000 OA
ATOM      2  C   UNL     1       7.804   8.638  17.881  0.00  0.00    +0.000 C 
ATOM      3  N   UNL     1       7.639   7.291  18.140  0.00  0.00    +0.000 N 
ATOM      4  N   UNL     1       8.466   6.661  19.108  0.00  0.00    +0.000 NA
ATOM      5  N   UNL     1       7.935   5.530  19.418  0.00  0.00    +0.000 NA
ATOM      6  C   UNL     1       6.947   5.254  18.368  0.00  0.00    +0.000 C 
ATOM      7  C   UNL     1       6.387   6.626  18.223  0.00  0.00    +0.000 C 
ATOM      8  C   UNL     1       5.028   6.368  17.601  0.00  0.00    +0.000 C 
ATOM      9  C   UNL     1       4.629   5.331  16.545  0.00  0.00    +0.000 C 
ATOM     10  C   UNL     1       5.283   3.988  16.994  0.00  0.00    +0.000 C 
ATOM     11  C   UNL     1       5.692   4.419  18.466  0.00  0.00    +0.000 C 
ATOM     12  O   UNL     1       4.642   5.452  18.727  0.00  0.00    +0.000 OA
ENDROOT
BRANCH   2  13
ATOM     13  O   UNL     1       8.948   9.146  18.428  0.00  0.00    +0.000 OA
BRANCH  13  14
ATOM     14  C   UNL     1       9.377  10.455  18.003  0.00  0.00    +0.000 C 
BRANCH  14  15
ATOM     15  C   UNL     1       9.612  11.434  19.138  0.00  0.00    +0.000 A 
ATOM     16  C   UNL     1       9.419  11.096  20.486  0.00  0.00    +0.000 A 
ATOM     17  C   UNL     1       9.729  12.007  21.502  0.00  0.00    +0.000 A 
ATOM     18  C   UNL     1      10.246  13.265  21.189  0.00  0.00    +0.000 A 
ATOM     19  C   UNL     1      10.452  13.614  19.856  0.00  0.00    +0.000 A 
ATOM     20  C   UNL     1      10.140  12.704  18.841  0.00  0.00    +0.000 A 
ENDBRANCH  14  15
ENDBRANCH  13  14
ENDBRANCH   2  13
BRANCH  10  21
ATOM     21  O   UNL     1       6.287   3.789  15.993  0.00  0.00    +0.000 OA
BRANCH  21  22
ATOM     22  C   UNL     1       6.406   4.623  14.857  0.00  0.00    +0.000 C 
BRANCH  22  23
ATOM     23  C   UNL     1       6.137   4.025  13.503  0.00  0.00    +0.000 A 
ATOM     24  C   UNL     1       7.173   3.510  12.706  0.00  0.00    +0.000 A 
ATOM     25  C   UNL     1       6.881   2.803  11.537  0.00  0.00    +0.000 A 
ATOM     26  C   UNL     1       5.555   2.603  11.155  0.00  0.00    +0.000 A 
ATOM     27  C   UNL     1       4.522   3.128  11.926  0.00  0.00    +0.000 A 
ATOM     28  C   UNL     1       4.811   3.842  13.090  0.00  0.00    +0.000 A 
ENDBRANCH  22  23
ENDBRANCH  21  22
ENDBRANCH  10  21
BRANCH  10  29
ATOM     29  O   UNL     1       4.344   2.901  17.026  0.00  0.00    +0.000 OA
BRANCH  29  30
ATOM     30  C   UNL     1       2.979   3.338  17.070  0.00  0.00    +0.000 C 
BRANCH  30  31
ATOM     31  C   UNL     1       2.337   3.191  18.428  0.00  0.00    +0.000 A 
ATOM     32  C   UNL     1       2.747   2.223  19.355  0.00  0.00    +0.000 A 
ATOM     33  C   UNL     1       2.196   2.213  20.646  0.00  0.00    +0.000 A 
ATOM     34  C   UNL     1       1.272   3.172  21.043  0.00  0.00    +0.000 A 
ATOM     35  C   UNL     1       0.858   4.147  20.131  0.00  0.00    +0.000 A 
ATOM     36  C   UNL     1       1.386   4.152  18.837  0.00  0.00    +0.000 A 
ENDBRANCH  30  31
ENDBRANCH  29  30
ENDBRANCH  10  29
TORSDOF 9
ENDMDL
MODEL 6
REMARK VINA RESULT:      -8.6      8.708     11.223
REMARK  Name = 
REMARK  9 active torsions:
REMARK  status: ('A' for Active; 'I' for Inactive)
REMARK    1  A    between atoms: C_2  and  O_3
REMARK    2  A    between atoms: O_3  and  C_4
REMARK    3  A    between atoms: C_4  and  C_5
REMARK    4  A    between atoms: C_18  and  O_19
REMARK    5  A    between atoms: C_18  and  O_27
REMARK    6  A    between atoms: O_19  and  C_20
REMARK    7  A    between atoms: C_20  and  C_21
REMARK    8  A    between atoms: O_27  and  C_28
REMARK    9  A    between atoms: C_28  and  C_29
REMARK                            x       y       z     vdW  Elec       q    Type
REMARK                         _______ _______ _______ _____ _____    ______ ____
ROOT
ATOM      1  O   UNL     1       2.541   9.018  17.434  0.00  0.00    +0.000 OA
ATOM      2  C   UNL     1       2.158   8.424  18.435  0.00  0.00    +0.000 C 
ATOM      3  N   UNL     1       1.200   8.940  19.286  0.00  0.00    +0.000 N 
ATOM      4  N   UNL     1       0.994   8.334  20.554  0.00  0.00    +0.000 NA
ATOM      5  N   UNL     1       0.319   9.149  21.286  0.00  0.00    +0.000 NA
ATOM      6  C   UNL     1      -0.241  10.143  20.362  0.00  0.00    +0.000 C 
ATOM      7  C   UNL     1       0.948  10.324  19.483  0.00  0.00    +0.000 C 
ATOM      8  C   UNL     1       0.699  11.684  18.860  0.00  0.00    +0.000 C 
ATOM      9  C   UNL     1      -0.622  12.306  18.392  0.00  0.00    +0.000 C 
ATOM     10  C   UNL     1      -1.651  12.036  19.533  0.00  0.00    +0.000 C 
ATOM     11  C   UNL     1      -0.627  11.574  20.654  0.00  0.00    +0.000 C 
ATOM     12  O   UNL     1       0.588  12.327  20.212  0.00  0.00    +0.000 OA
ENDROOT
BRANCH   2  13
ATOM     13  O   UNL     1       2.622   7.204  18.838  0.00  0.00    +0.000 OA
BRANCH  13  14
ATOM     14  C   UNL     1       3.220   6.347  17.846  0.00  0.00    +0.000 C 
BRANCH  14  15
ATOM     15  C   UNL     1       4.726   6.207  17.966  0.00  0.00    +0.000 A 
ATOM     16  C   UNL     1       5.618   6.808  17.066  0.00  0.00    +0.000 A 
ATOM     17  C   UNL     1       7.002   6.720  17.266  0.00  0.00    +0.000 A 
ATOM     18  C   UNL     1       7.512   6.040  18.372  0.00  0.00    +0.000 A 
ATOM     19  C   UNL     1       6.640   5.444  19.280  0.00  0.00    +0.000 A 
ATOM     20  C   UNL     1       5.259   5.531  19.079  0.00  0.00    +0.000 A 
ENDBRANCH  14  15
ENDBRANCH  13  14
ENDBRANCH   2  13
BRANCH  10  21
ATOM     21  O   UNL     1      -2.537  11.088  18.928  0.00  0.00    +0.000 OA
BRANCH  21  22
ATOM     22  C   UNL     1      -3.299  11.387  17.774  0.00  0.00    +0.000 C 
BRANCH  22  23
ATOM     23  C   UNL     1      -4.791  11.516  17.919  0.00  0.00    +0.000 A 
ATOM     24  C   UNL     1      -5.494  10.832  18.924  0.00  0.00    +0.000 A 
ATOM     25  C   UNL     1      -6.846  11.104  19.149  0.00  0.00    +0.000 A 
ATOM     26  C   UNL     1      -7.504  12.060  18.378  0.00  0.00    +0.000 A 
ATOM     27  C   UNL     1      -6.821  12.727  17.365  0.00  0.00    +0.000 A 
ATOM     28  C   UNL     1      -5.473  12.452  17.131  0.00  0.00    +0.000 A 
ENDBRANCH  22  23
ENDBRANCH  21  22
ENDBRANCH  10  21
BRANCH  10  29
ATOM     29  O   UNL     1      -2.346  13.226  19.941  0.00  0.00    +0.000 OA
BRANCH  29  30
ATOM     30  C   UNL     1      -2.941  13.113  21.241  0.00  0.00    +0.000 C 
BRANCH  30  31
ATOM     31  C   UNL     1      -4.423  13.395  21.257  0.00  0.00    +0.000 A 
ATOM     32  C   UNL     1      -5.286  12.839  22.212  0.00  0.00    +0.000 A 
ATOM     33  C   UNL     1      -6.632  13.233  22.251  0.00  0.00    +0.000 A 
ATOM     34  C   UNL     1      -7.128  14.197  21.381  0.00  0.00    +0.000 A 
ATOM     35  C   UNL     1      -6.278  14.764  20.427  0.00  0.00    +0.000 A 
ATOM     36  C   UNL     1      -4.940  14.363  20.368  0.00  0.00    +0.000 A 
ENDBRANCH  30  31
ENDBRANCH  29  30
ENDBRANCH  10  29
TORSDOF 9
ENDMDL
MODEL 7
REMARK VINA RESULT:      -8.5      2.189      4.678
REMARK  Name = 
REMARK  9 active torsions:
REMARK  status: ('A' for Active; 'I' for Inactive)
REMARK    1  A    between atoms: C_2  and  O_3
REMARK    2  A    between atoms: O_3  and  C_4
REMARK    3  A    between atoms: C_4  and  C_5
REMARK    4  A    between atoms: C_18  and  O_19
REMARK    5  A    between atoms: C_18  and  O_27
REMARK    6  A    between atoms: O_19  and  C_20
REMARK    7  A    between atoms: C_20  and  C_21
REMARK    8  A    between atoms: O_27  and  C_28
REMARK    9  A    between atoms: C_28  and  C_29
REMARK                            x       y       z     vdW  Elec       q    Type
REMARK                         _______ _______ _______ _____ _____    ______ ____
ROOT
ATOM      1  O   UNL     1       8.190   6.808  19.323  0.00  0.00    +0.000 OA
ATOM      2  C   UNL     1       7.887   7.400  18.294  0.00  0.00    +0.000 C 
ATOM      3  N   UNL     1       6.890   6.957  17.447  0.00  0.00    +0.000 N 
ATOM      4  N   UNL     1       6.767   7.531  16.154  0.00  0.00    +0.000 NA
ATOM      5  N   UNL     1       6.019   6.764  15.441  0.00  0.00    +0.000 NA
ATOM      6  C   UNL     1       5.344   5.872  16.391  0.00  0.00    +0.000 C 
ATOM      7  C   UNL     1       6.495   5.600  17.297  0.00  0.00    +0.000 C 
ATOM      8  C   UNL     1       6.094   4.299  17.966  0.00  0.00    +0.000 C 
ATOM      9  C   UNL     1       4.708   3.839  18.432  0.00  0.00    +0.000 C 
ATOM     10  C   UNL     1       3.729   4.172  17.265  0.00  0.00    +0.000 C 
ATOM     11  C   UNL     1       4.812   4.480  16.145  0.00  0.00    +0.000 C 
ATOM     12  O   UNL     1       5.934   3.620  16.636  0.00  0.00    +0.000 OA
ENDROOT
BRANCH   2  13
ATOM     13  O   UNL     1       8.483   8.547  17.854  0.00  0.00    +0.000 OA
BRANCH  13  14
ATOM     14  C   UNL     1       8.817   9.553  18.831  0.00  0.00    +0.000 C 
BRANCH  14  15
ATOM     15  C   UNL     1       9.348  10.846  18.242  0.00  0.00    +0.000 A 
ATOM     16  C   UNL     1       8.518  11.930  17.917  0.00  0.00    +0.000 A 
ATOM     17  C   UNL     1       9.063  13.133  17.454  0.00  0.00    +0.000 A 
ATOM     18  C   UNL     1      10.444  13.276  17.317  0.00  0.00    +0.000 A 
ATOM     19  C   UNL     1      11.284  12.213  17.643  0.00  0.00    +0.000 A 
ATOM     20  C   UNL     1      10.739  11.011  18.105  0.00  0.00    +0.000 A 
ENDBRANCH  14  15
ENDBRANCH  13  14
ENDBRANCH   2  13
BRANCH  10  21
ATOM     21  O   UNL     1       2.942   5.231  17.819  0.00  0.00    +0.000 OA
BRANCH  21  22
ATOM     22  C   UNL     1       3.096   5.676  19.154  0.00  0.00    +0.000 C 
BRANCH  22  23
ATOM     23  C   UNL     1       2.434   6.966  19.556  0.00  0.00    +0.000 A 
ATOM     24  C   UNL     1       2.275   8.026  18.648  0.00  0.00    +0.000 A 
ATOM     25  C   UNL     1       1.505   9.140  18.990  0.00  0.00    +0.000 A 
ATOM     26  C   UNL     1       0.886   9.204  20.237  0.00  0.00    +0.000 A 
ATOM     27  C   UNL     1       1.055   8.169  21.152  0.00  0.00    +0.000 A 
ATOM     28  C   UNL     1       1.831   7.059  20.816  0.00  0.00    +0.000 A 
ENDBRANCH  22  23
ENDBRANCH  21  22
ENDBRANCH  10  21
BRANCH  10  29
ATOM     29  O   UNL     1       2.917   3.048  16.889  0.00  0.00    +0.000 OA
BRANCH  29  30
ATOM     30  C   UNL     1       3.013   1.952  17.808  0.00  0.00    +0.000 C 
BRANCH  30  31
ATOM     31  C   UNL     1       2.407   2.236  19.160  0.00  0.00    +0.000 A 
ATOM     32  C   UNL     1       3.152   2.187  20.346  0.00  0.00    +0.000 A 
ATOM     33  C   UNL     1       2.564   2.578  21.558  0.00  0.00    +0.000 A 
ATOM     34  C   UNL     1       1.259   3.054  21.607  0.00  0.00    +0.000 A 
ATOM     35  C   UNL     1       0.506   3.115  20.431  0.00  0.00    +0.000 A 
ATOM     36  C   UNL     1       1.077   2.707  19.221  0.00  0.00    +0.000 A 
ENDBRANCH  30  31
ENDBRANCH  29  30
ENDBRANCH  10  29
TORSDOF 9
ENDMDL
MODEL 8
REMARK VINA RESULT:      -8.4      1.208      1.760
REMARK  Name = 
REMARK  9 active torsions:
REMARK  status: ('A' for Active; 'I' for Inactive)
REMARK    1  A    between atoms: C_2  and  O_3
REMARK    2  A    between atoms: O_3  and  C_4
REMARK    3  A    between atoms: C_4  and  C_5
REMARK    4  A    between atoms: C_18  and  O_19
REMARK    5  A    between atoms: C_18  and  O_27
REMARK    6  A    between atoms: O_19  and  C_20
REMARK    7  A    between atoms: C_20  and  C_21
REMARK    8  A    between atoms: O_27  and  C_28
REMARK    9  A    between atoms: C_28  and  C_29
REMARK                            x       y       z     vdW  Elec       q    Type
REMARK                         _______ _______ _______ _____ _____    ______ ____
ROOT
ATOM      1  O   UNL     1       7.104   9.349  17.227  0.00  0.00    +0.000 OA
ATOM      2  C   UNL     1       7.902   8.679  17.871  0.00  0.00    +0.000 C 
ATOM      3  N   UNL     1       7.717   7.332  18.113  0.00  0.00    +0.000 N 
ATOM      4  N   UNL     1       8.529   6.678  19.077  0.00  0.00    +0.000 NA
ATOM      5  N   UNL     1       7.981   5.552  19.372  0.00  0.00    +0.000 NA
ATOM      6  C   UNL     1       6.994   5.302  18.314  0.00  0.00    +0.000 C 
ATOM      7  C   UNL     1       6.454   6.683  18.182  0.00  0.00    +0.000 C 
ATOM      8  C   UNL     1       5.095   6.452  17.551  0.00  0.00    +0.000 C 
ATOM      9  C   UNL     1       4.687   5.433  16.481  0.00  0.00    +0.000 C 
ATOM     10  C   UNL     1       5.319   4.076  16.917  0.00  0.00    +0.000 C 
ATOM     11  C   UNL     1       5.728   4.484  18.396  0.00  0.00    +0.000 C 
ATOM     12  O   UNL     1       4.691   5.529  18.664  0.00  0.00    +0.000 OA
ENDROOT
BRANCH   2  13
ATOM     13  O   UNL     1       9.050   9.164  18.429  0.00  0.00    +0.000 OA
BRANCH  13  14
ATOM     14  C   UNL     1       9.499  10.471  18.022  0.00  0.00    +0.000 C 
BRANCH  14  15
ATOM     15  C   UNL     1       9.800  11.415  19.171  0.00  0.00    +0.000 A 
ATOM     16  C   UNL     1      10.532  12.601  19.009  0.00  0.00    +0.000 A 
ATOM     17  C   UNL     1      10.713  13.481  20.083  0.00  0.00    +0.000 A 
ATOM     18  C   UNL     1      10.157  13.195  21.330  0.00  0.00    +0.000 A 
ATOM     19  C   UNL     1       9.421  12.027  21.507  0.00  0.00    +0.000 A 
ATOM     20  C   UNL     1       9.242  11.147  20.435  0.00  0.00    +0.000 A 
ENDBRANCH  14  15
ENDBRANCH  13  14
ENDBRANCH   2  13
BRANCH  10  21
ATOM     21  O   UNL     1       6.326   3.874  15.919  0.00  0.00    +0.000 OA
BRANCH  21  22
ATOM     22  C   UNL     1       6.409   4.666  14.750  0.00  0.00    +0.000 C 
BRANCH  22  23
ATOM     23  C   UNL     1       6.144   4.007  13.423  0.00  0.00    +0.000 A 
ATOM     24  C   UNL     1       7.176   3.417  12.676  0.00  0.00    +0.000 A 
ATOM     25  C   UNL     1       6.882   2.660  11.538  0.00  0.00    +0.000 A 
ATOM     26  C   UNL     1       5.557   2.486  11.140  0.00  0.00    +0.000 A 
ATOM     27  C   UNL     1       4.529   3.086  11.862  0.00  0.00    +0.000 A 
ATOM     28  C   UNL     1       4.821   3.849  12.993  0.00  0.00    +0.000 A 
ENDBRANCH  22  23
ENDBRANCH  21  22
ENDBRANCH  10  21
BRANCH  10  29
ATOM     29  O   UNL     1       4.365   3.003  16.932  0.00  0.00    +0.000 OA
BRANCH  29  30
ATOM     30  C   UNL     1       3.006   3.458  16.970  0.00  0.00    +0.000 C 
BRANCH  30  31
ATOM     31  C   UNL     1       2.379   3.389  18.341  0.00  0.00    +0.000 A 
ATOM     32  C   UNL     1       1.616   4.438  18.875  0.00  0.00    +0.000 A 
ATOM     33  C   UNL     1       0.959   4.269  20.103  0.00  0.00    +0.000 A 
ATOM     34  C   UNL     1       1.016   3.064  20.792  0.00  0.00    +0.000 A 
ATOM     35  C   UNL     1       1.769   2.008  20.269  0.00  0.00    +0.000 A 
ATOM     36  C   UNL     1       2.444   2.174  19.056  0.00  0.00    +0.000 A 
ENDBRANCH  30  31
ENDBRANCH  29  30
ENDBRANCH  10  29
TORSDOF 9
ENDMDL
MODEL 9
REMARK VINA RESULT:      -8.4      8.388     10.973
REMARK  Name = 
REMARK  9 active torsions:
REMARK  status: ('A' for Active; 'I' for Inactive)
REMARK    1  A    between atoms: C_2  and  O_3
REMARK    2  A    between atoms: O_3  and  C_4
REMARK    3  A    between atoms: C_4  and  C_5
REMARK    4  A    between atoms: C_18  and  O_19
REMARK    5  A    between atoms: C_18  and  O_27
REMARK    6  A    between atoms: O_19  and  C_20
REMARK    7  A    between atoms: C_20  and  C_21
REMARK    8  A    between atoms: O_27  and  C_28
REMARK    9  A    between atoms: C_28  and  C_29
REMARK                            x       y       z     vdW  Elec       q    Type
REMARK                         _______ _______ _______ _____ _____    ______ ____
ROOT
ATOM      1  O   UNL     1       2.520   8.841  17.303  0.00  0.00    +0.000 OA
ATOM      2  C   UNL     1       2.224   8.242  18.330  0.00  0.00    +0.000 C 
ATOM      3  N   UNL     1       1.455   8.808  19.327  0.00  0.00    +0.000 N 
ATOM      4  N   UNL     1       1.370   8.168  20.592  0.00  0.00    +0.000 NA
ATOM      5  N   UNL     1       0.894   9.010  21.441  0.00  0.00    +0.000 NA
ATOM      6  C   UNL     1       0.314  10.095  20.640  0.00  0.00    +0.000 C 
ATOM      7  C   UNL     1       1.378  10.200  19.603  0.00  0.00    +0.000 C 
ATOM      8  C   UNL     1       1.185  11.605  19.066  0.00  0.00    +0.000 C 
ATOM      9  C   UNL     1      -0.118  12.374  18.817  0.00  0.00    +0.000 C 
ATOM     10  C   UNL     1      -0.996  12.154  20.087  0.00  0.00    +0.000 C 
ATOM     11  C   UNL     1       0.124  11.542  21.031  0.00  0.00    +0.000 C 
ATOM     12  O   UNL     1       1.335  12.193  20.441  0.00  0.00    +0.000 OA
ENDROOT
BRANCH   2  13
ATOM     13  O   UNL     1       2.612   6.965  18.622  0.00  0.00    +0.000 OA
BRANCH  13  14
ATOM     14  C   UNL     1       3.446   6.277  17.669  0.00  0.00    +0.000 C 
BRANCH  14  15
ATOM     15  C   UNL     1       4.921   6.264  18.025  0.00  0.00    +0.000 A 
ATOM     16  C   UNL     1       5.445   5.481  19.064  0.00  0.00    +0.000 A 
ATOM     17  C   UNL     1       6.825   5.438  19.300  0.00  0.00    +0.000 A 
ATOM     18  C   UNL     1       7.701   6.168  18.496  0.00  0.00    +0.000 A 
ATOM     19  C   UNL     1       7.199   6.943  17.454  0.00  0.00    +0.000 A 
ATOM     20  C   UNL     1       5.821   6.987  17.220  0.00  0.00    +0.000 A 
ENDBRANCH  14  15
ENDBRANCH  13  14
ENDBRANCH   2  13
BRANCH  10  21
ATOM     21  O   UNL     1      -2.052  11.326  19.588  0.00  0.00    +0.000 OA
BRANCH  21  22
ATOM     22  C   UNL     1      -2.892  11.723  18.520  0.00  0.00    +0.000 C 
BRANCH  22  23
ATOM     23  C   UNL     1      -4.376  11.773  18.762  0.00  0.00    +0.000 A 
ATOM     24  C   UNL     1      -5.263  10.932  18.070  0.00  0.00    +0.000 A 
ATOM     25  C   UNL     1      -6.610  10.872  18.436  0.00  0.00    +0.000 A 
ATOM     26  C   UNL     1      -7.081  11.648  19.494  0.00  0.00    +0.000 A 
ATOM     27  C   UNL     1      -6.214  12.501  20.171  0.00  0.00    +0.000 A 
ATOM     28  C   UNL     1      -4.870  12.569  19.802  0.00  0.00    +0.000 A 
ENDBRANCH  22  23
ENDBRANCH  21  22
ENDBRANCH  10  21
BRANCH  10  29
ATOM     29  O   UNL     1      -1.500  13.385  20.630  0.00  0.00    +0.000 OA
BRANCH  29  30
ATOM     30  C   UNL     1      -1.471  13.422  22.063  0.00  0.00    +0.000 C 
BRANCH  30  31
ATOM     31  C   UNL     1      -2.823  13.655  22.692  0.00  0.00    +0.000 A 
ATOM     32  C   UNL     1      -3.627  14.756  22.365  0.00  0.00    +0.000 A 
ATOM     33  C   UNL     1      -4.924  14.854  22.892  0.00  0.00    +0.000 A 
ATOM     34  C   UNL     1      -5.449  13.859  23.707  0.00  0.00    +0.000 A 
ATOM     35  C   UNL     1      -4.661  12.753  24.037  0.00  0.00    +0.000 A 
ATOM     36  C   UNL     1      -3.360  12.656  23.534  0.00  0.00    +0.000 A 
ENDBRANCH  30  31
ENDBRANCH  29  30
ENDBRANCH  10  29
TORSDOF 9
ENDMDL
