MODEL 1
REMARK VINA RESULT:      -9.6      0.000      0.000
REMARK  Name = 
REMARK  5 active torsions:
REMARK  status: ('A' for Active; 'I' for Inactive)
REMARK    1  A    between atoms: C_2  and  C_3
REMARK    2  A    between atoms: C_6  and  N_7
REMARK    3  A    between atoms: C_13  and  C_14
REMARK    4  A    between atoms: C_14  and  O_16
REMARK    5  A    between atoms: C_22  and  C_23
REMARK                            x       y       z     vdW  Elec       q    Type
REMARK                         _______ _______ _______ _____ _____    ______ ____
ROOT
ATOM      1  N   UNL     1       2.442   7.026  19.691  0.00  0.00    +0.000 N 
ATOM      2  N   UNL     1       3.001   7.043  18.448  0.00  0.00    +0.000 NA
ATOM      3  C   UNL     1       3.800   6.026  18.384  0.00  0.00    +0.000 C 
ATOM      4  C   UNL     1       4.597   5.652  17.202  0.00  0.00    +0.000 A 
ATOM      5  C   UNL     1       4.802   6.572  16.173  0.00  0.00    +0.000 A 
ATOM      6  C   UNL     1       5.543   6.199  15.048  0.00  0.00    +0.000 A 
ATOM      7  C   UNL     1       6.066   4.904  14.943  0.00  0.00    +0.000 A 
ATOM      8  C   UNL     1       5.883   3.992  15.994  0.00  0.00    +0.000 A 
ATOM      9  C   UNL     1       5.138   4.357  17.130  0.00  0.00    +0.000 A 
ATOM     10  C   UNL     1       4.987   3.377  18.266  0.00  0.00    +0.000 C 
ATOM     11  C   UNL     1       3.830   3.722  19.206  0.00  0.00    +0.000 C 
ATOM     12  C   UNL     1       3.888   5.184  19.628  0.00  0.00    +0.000 C 
ATOM     13  C   UNL     1       2.740   5.805  20.460  0.00  0.00    +0.000 C 
ENDROOT
BRANCH   1  17
ATOM     14  C   UNL     1      -0.024  10.268  20.830  0.00  0.00    +0.000 A 
ATOM     15  C   UNL     1       0.388  10.113  19.504  0.00  0.00    +0.000 A 
ATOM     16  C   UNL     1       1.209   9.038  19.146  0.00  0.00    +0.000 A 
ATOM     17  C   UNL     1       1.608   8.065  20.078  0.00  0.00    +0.000 A 
ATOM     18  C   UNL     1       1.172   8.225  21.400  0.00  0.00    +0.000 A 
ATOM     19  C   UNL     1       0.377   9.321  21.775  0.00  0.00    +0.000 A 
ATOM     20 CL   UNL     1      -0.054   9.462  23.445  0.00  0.00    +0.000 Cl
BRANCH  14  22
ATOM     21  N   UNL     1      -1.512  12.309  21.419  0.00  0.00    +0.000 NA
ATOM     22  C   UNL     1      -0.843  11.393  21.172  0.00  0.00    +0.000 C 
ENDBRANCH  14  22
ENDBRANCH   1  17
BRANCH  13  23
ATOM     23  C   UNL     1       1.502   4.902  20.576  0.00  0.00    +0.000 C 
ATOM     24  C   UNL     1       1.146   3.991  19.363  0.00  0.00    +0.000 C 
ATOM     25  C   UNL     1       0.768   2.886  20.357  0.00  0.00    +0.000 C 
ATOM     26  C   UNL     1       1.674   3.581  21.385  0.00  0.00    +0.000 C 
ENDBRANCH  13  23
BRANCH   7  27
ATOM     27  C   UNL     1       6.854   4.565  13.729  0.00  0.00    +0.000 C 
ATOM     28  O   UNL     1       7.701   5.308  13.265  0.00  0.00    +0.000 OA
BRANCH  27  29
ATOM     29  O   UNL     1       6.521   3.384  13.166  0.00  0.00    +0.000 OA
ATOM     30  H   UNL     1       7.212   2.699  13.188  0.00  0.00    +0.000 HD
ENDBRANCH  27  29
ENDBRANCH   7  27
TORSDOF 5
ENDMDL
MODEL 2
REMARK VINA RESULT:      -9.2      0.988      1.455
REMARK  Name = 
REMARK  5 active torsions:
REMARK  status: ('A' for Active; 'I' for Inactive)
REMARK    1  A    between atoms: C_2  and  C_3
REMARK    2  A    between atoms: C_6  and  N_7
REMARK    3  A    between atoms: C_13  and  C_14
REMARK    4  A    between atoms: C_14  and  O_16
REMARK    5  A    between atoms: C_22  and  C_23
REMARK                            x       y       z     vdW  Elec       q    Type
REMARK                         _______ _______ _______ _____ _____    ______ ____
ROOT
ATOM      1  N   UNL     1       2.487   6.997  19.690  0.00  0.00    +0.000 N 
ATOM      2  N   UNL     1       3.034   7.036  18.443  0.00  0.00    +0.000 NA
ATOM      3  C   UNL     1       3.803   5.999  18.340  0.00  0.00    +0.000 C 
ATOM      4  C   UNL     1       4.578   5.639  17.139  0.00  0.00    +0.000 A 
ATOM      5  C   UNL     1       4.799   6.583  16.135  0.00  0.00    +0.000 A 
ATOM      6  C   UNL     1       5.518   6.224  14.992  0.00  0.00    +0.000 A 
ATOM      7  C   UNL     1       6.003   4.919  14.844  0.00  0.00    +0.000 A 
ATOM      8  C   UNL     1       5.805   3.981  15.868  0.00  0.00    +0.000 A 
ATOM      9  C   UNL     1       5.081   4.332  17.022  0.00  0.00    +0.000 A 
ATOM     10  C   UNL     1       4.913   3.323  18.131  0.00  0.00    +0.000 C 
ATOM     11  C   UNL     1       3.776   3.672  19.093  0.00  0.00    +0.000 C 
ATOM     12  C   UNL     1       3.880   5.119  19.557  0.00  0.00    +0.000 C 
ATOM     13  C   UNL     1       2.758   5.746  20.419  0.00  0.00    +0.000 C 
ENDROOT
BRANCH   1  17
ATOM     14  C   UNL     1      -0.030  10.122  21.031  0.00  0.00    +0.000 A 
ATOM     15  C   UNL     1       0.427   9.140  21.915  0.00  0.00    +0.000 A 
ATOM     16  C   UNL     1       1.253   8.110  21.453  0.00  0.00    +0.000 A 
ATOM     17  C   UNL     1       1.686   8.047  20.117  0.00  0.00    +0.000 A 
ATOM     18  C   UNL     1       1.234   9.048  19.248  0.00  0.00    +0.000 A 
ATOM     19  C   UNL     1       0.375  10.066  19.695  0.00  0.00    +0.000 A 
ATOM     20 CL   UNL     1      -0.178  11.217  18.528  0.00  0.00    +0.000 Cl
BRANCH  14  22
ATOM     21  N   UNL     1      -1.609  11.986  21.901  0.00  0.00    +0.000 NA
ATOM     22  C   UNL     1      -0.897  11.149  21.527  0.00  0.00    +0.000 C 
ENDBRANCH  14  22
ENDBRANCH   1  17
BRANCH  13  23
ATOM     23  C   UNL     1       1.496   4.875  20.521  0.00  0.00    +0.000 C 
ATOM     24  C   UNL     1       1.127   3.977  19.303  0.00  0.00    +0.000 C 
ATOM     25  C   UNL     1       0.712   2.880  20.290  0.00  0.00    +0.000 C 
ATOM     26  C   UNL     1       1.626   3.548  21.329  0.00  0.00    +0.000 C 
ENDBRANCH  13  23
BRANCH   7  27
ATOM     27  C   UNL     1       6.769   4.595  13.612  0.00  0.00    +0.000 C 
ATOM     28  O   UNL     1       6.517   3.628  12.915  0.00  0.00    +0.000 OA
BRANCH  27  29
ATOM     29  O   UNL     1       7.789   5.441  13.356  0.00  0.00    +0.000 OA
ATOM     30  H   UNL     1       7.708   5.963  12.538  0.00  0.00    +0.000 HD
ENDBRANCH  27  29
ENDBRANCH   7  27
TORSDOF 5
ENDMDL
MODEL 3
REMARK VINA RESULT:      -8.7      3.087      5.750
REMARK  Name = 
REMARK  5 active torsions:
REMARK  status: ('A' for Active; 'I' for Inactive)
REMARK    1  A    between atoms: C_2  and  C_3
REMARK    2  A    between atoms: C_6  and  N_7
REMARK    3  A    between atoms: C_13  and  C_14
REMARK    4  A    between atoms: C_14  and  O_16
REMARK    5  A    between atoms: C_22  and  C_23
REMARK                            x       y       z     vdW  Elec       q    Type
REMARK                         _______ _______ _______ _____ _____    ______ ____
ROOT
ATOM      1  N   UNL     1       0.137  10.176  20.127  0.00  0.00    +0.000 N 
ATOM      2  N   UNL     1       0.648   8.986  20.551  0.00  0.00    +0.000 NA
ATOM      3  C   UNL     1       1.292   8.478  19.548  0.00  0.00    +0.000 C 
ATOM      4  C   UNL     1       2.022   7.198  19.576  0.00  0.00    +0.000 A 
ATOM      5  C   UNL     1       1.787   6.276  20.596  0.00  0.00    +0.000 A 
ATOM      6  C   UNL     1       2.500   5.075  20.623  0.00  0.00    +0.000 A 
ATOM      7  C   UNL     1       3.460   4.801  19.640  0.00  0.00    +0.000 A 
ATOM      8  C   UNL     1       3.673   5.717  18.600  0.00  0.00    +0.000 A 
ATOM      9  C   UNL     1       2.961   6.930  18.565  0.00  0.00    +0.000 A 
ATOM     10  C   UNL     1       3.174   7.885  17.416  0.00  0.00    +0.000 C 
ATOM     11  C   UNL     1       2.689   9.304  17.718  0.00  0.00    +0.000 C 
ATOM     12  C   UNL     1       1.274   9.289  18.281  0.00  0.00    +0.000 C 
ATOM     13  C   UNL     1       0.625  10.594  18.801  0.00  0.00    +0.000 C 
ENDROOT
BRANCH   1  17
ATOM     14  C   UNL     1      -2.421  12.294  22.748  0.00  0.00    +0.000 A 
ATOM     15  C   UNL     1      -1.472  11.395  23.244  0.00  0.00    +0.000 A 
ATOM     16  C   UNL     1      -0.639  10.698  22.362  0.00  0.00    +0.000 A 
ATOM     17  C   UNL     1      -0.690  10.903  20.972  0.00  0.00    +0.000 A 
ATOM     18  C   UNL     1      -1.634  11.820  20.492  0.00  0.00    +0.000 A 
ATOM     19  C   UNL     1      -2.499  12.498  21.368  0.00  0.00    +0.000 A 
ATOM     20 CL   UNL     1      -3.672  13.560  20.669  0.00  0.00    +0.000 Cl
BRANCH  14  22
ATOM     21  N   UNL     1      -3.988  13.497  24.427  0.00  0.00    +0.000 NA
ATOM     22  C   UNL     1      -3.278  12.973  23.673  0.00  0.00    +0.000 C 
ENDBRANCH  14  22
ENDBRANCH   1  17
BRANCH  13  23
ATOM     23  C   UNL     1       1.606  11.771  18.914  0.00  0.00    +0.000 C 
ATOM     24  C   UNL     1       1.103  13.186  18.497  0.00  0.00    +0.000 C 
ATOM     25  C   UNL     1       1.881  13.767  19.683  0.00  0.00    +0.000 C 
ATOM     26  C   UNL     1       1.813  12.376  20.335  0.00  0.00    +0.000 C 
ENDBRANCH  13  23
BRANCH   7  27
ATOM     27  C   UNL     1       4.182   3.503  19.712  0.00  0.00    +0.000 C 
ATOM     28  O   UNL     1       3.752   2.543  20.326  0.00  0.00    +0.000 OA
BRANCH  27  29
ATOM     29  O   UNL     1       5.371   3.496  19.072  0.00  0.00    +0.000 OA
ATOM     30  H   UNL     1       6.145   3.716  19.620  0.00  0.00    +0.000 HD
ENDBRANCH  27  29
ENDBRANCH   7  27
TORSDOF 5
ENDMDL
MODEL 4
REMARK VINA RESULT:      -7.7      3.715      6.786
REMARK  Name = 
REMARK  5 active torsions:
REMARK  status: ('A' for Active; 'I' for Inactive)
REMARK    1  A    between atoms: C_2  and  C_3
REMARK    2  A    between atoms: C_6  and  N_7
REMARK    3  A    between atoms: C_13  and  C_14
REMARK    4  A    between atoms: C_14  and  O_16
REMARK    5  A    between atoms: C_22  and  C_23
REMARK                            x       y       z     vdW  Elec       q    Type
REMARK                         _______ _______ _______ _____ _____    ______ ____
ROOT
ATOM      1  N   UNL     1      -0.358  11.563  20.321  0.00  0.00    +0.000 N 
ATOM      2  N   UNL     1       0.063  10.357  20.793  0.00  0.00    +0.000 NA
ATOM      3  C   UNL     1       0.622   9.742  19.799  0.00  0.00    +0.000 C 
ATOM      4  C   UNL     1       1.238   8.405  19.873  0.00  0.00    +0.000 A 
ATOM      5  C   UNL     1       0.962   7.562  20.950  0.00  0.00    +0.000 A 
ATOM      6  C   UNL     1       1.569   6.305  21.019  0.00  0.00    +0.000 A 
ATOM      7  C   UNL     1       2.463   5.896  20.021  0.00  0.00    +0.000 A 
ATOM      8  C   UNL     1       2.715   6.734  18.925  0.00  0.00    +0.000 A 
ATOM      9  C   UNL     1       2.111   8.002  18.847  0.00  0.00    +0.000 A 
ATOM     10  C   UNL     1       2.362   8.873  17.641  0.00  0.00    +0.000 C 
ATOM     11  C   UNL     1       2.015  10.344  17.880  0.00  0.00    +0.000 C 
ATOM     12  C   UNL     1       0.626  10.484  18.490  0.00  0.00    +0.000 C 
ATOM     13  C   UNL     1       0.113  11.867  18.959  0.00  0.00    +0.000 C 
ENDROOT
BRANCH   1  17
ATOM     14  C   UNL     1      -2.586  14.041  22.928  0.00  0.00    +0.000 A 
ATOM     15  C   UNL     1      -1.417  13.410  23.364  0.00  0.00    +0.000 A 
ATOM     16  C   UNL     1      -0.696  12.589  22.489  0.00  0.00    +0.000 A 
ATOM     17  C   UNL     1      -1.086  12.404  21.152  0.00  0.00    +0.000 A 
ATOM     18  C   UNL     1      -2.250  13.057  20.726  0.00  0.00    +0.000 A 
ATOM     19  C   UNL     1      -2.999  13.855  21.606  0.00  0.00    +0.000 A 
ATOM     20 CL   UNL     1      -4.456  14.564  21.000  0.00  0.00    +0.000 Cl
BRANCH  14  22
ATOM     21  N   UNL     1      -3.901  15.539  24.587  0.00  0.00    +0.000 NA
ATOM     22  C   UNL     1      -3.317  14.855  23.853  0.00  0.00    +0.000 C 
ENDBRANCH  14  22
ENDBRANCH   1  17
BRANCH  13  23
ATOM     23  C   UNL     1       1.197  12.956  18.973  0.00  0.00    +0.000 C 
ATOM     24  C   UNL     1       0.747  14.434  19.175  0.00  0.00    +0.000 C 
ATOM     25  C   UNL     1       1.981  14.645  20.060  0.00  0.00    +0.000 C 
ATOM     26  C   UNL     1       1.999  13.127  20.298  0.00  0.00    +0.000 C 
ENDBRANCH  13  23
BRANCH   7  27
ATOM     27  C   UNL     1       3.071   4.545  20.140  0.00  0.00    +0.000 C 
ATOM     28  O   UNL     1       3.943   4.146  19.389  0.00  0.00    +0.000 OA
BRANCH  27  29
ATOM     29  O   UNL     1       2.547   3.787  21.127  0.00  0.00    +0.000 OA
ATOM     30  H   UNL     1       1.626   3.990  21.368  0.00  0.00    +0.000 HD
ENDBRANCH  27  29
ENDBRANCH   7  27
TORSDOF 5
ENDMDL
MODEL 5
REMARK VINA RESULT:      -7.4      3.463      6.492
REMARK  Name = 
REMARK  5 active torsions:
REMARK  status: ('A' for Active; 'I' for Inactive)
REMARK    1  A    between atoms: C_2  and  C_3
REMARK    2  A    between atoms: C_6  and  N_7
REMARK    3  A    between atoms: C_13  and  C_14
REMARK    4  A    between atoms: C_14  and  O_16
REMARK    5  A    between atoms: C_22  and  C_23
REMARK                            x       y       z     vdW  Elec       q    Type
REMARK                         _______ _______ _______ _____ _____    ______ ____
ROOT
ATOM      1  N   UNL     1       0.143  11.295  20.688  0.00  0.00    +0.000 N 
ATOM      2  N   UNL     1       0.530  10.035  21.032  0.00  0.00    +0.000 NA
ATOM      3  C   UNL     1       0.965   9.470  19.950  0.00  0.00    +0.000 C 
ATOM      4  C   UNL     1       1.505   8.101  19.871  0.00  0.00    +0.000 A 
ATOM      5  C   UNL     1       1.271   7.192  20.905  0.00  0.00    +0.000 A 
ATOM      6  C   UNL     1       1.806   5.903  20.828  0.00  0.00    +0.000 A 
ATOM      7  C   UNL     1       2.586   5.526  19.728  0.00  0.00    +0.000 A 
ATOM      8  C   UNL     1       2.793   6.432  18.678  0.00  0.00    +0.000 A 
ATOM      9  C   UNL     1       2.261   7.732  18.745  0.00  0.00    +0.000 A 
ATOM     10  C   UNL     1       2.461   8.680  17.588  0.00  0.00    +0.000 C 
ATOM     11  C   UNL     1       2.223  10.144  17.963  0.00  0.00    +0.000 C 
ATOM     12  C   UNL     1       0.903  10.309  18.703  0.00  0.00    +0.000 C 
ATOM     13  C   UNL     1       0.514  11.677  19.315  0.00  0.00    +0.000 C 
ENDROOT
BRANCH   1  17
ATOM     14  C   UNL     1      -1.794  13.757  23.530  0.00  0.00    +0.000 A 
ATOM     15  C   UNL     1      -2.257  12.465  23.269  0.00  0.00    +0.000 A 
ATOM     16  C   UNL     1      -1.608  11.666  22.320  0.00  0.00    +0.000 A 
ATOM     17  C   UNL     1      -0.460  12.106  21.639  0.00  0.00    +0.000 A 
ATOM     18  C   UNL     1       0.002  13.397  21.925  0.00  0.00    +0.000 A 
ATOM     19  C   UNL     1      -0.665  14.219  22.850  0.00  0.00    +0.000 A 
ATOM     20 CL   UNL     1      -0.053  15.820  23.084  0.00  0.00    +0.000 Cl
BRANCH  14  22
ATOM     21  N   UNL     1      -3.038  15.213  25.280  0.00  0.00    +0.000 NA
ATOM     22  C   UNL     1      -2.495  14.561  24.487  0.00  0.00    +0.000 C 
ENDBRANCH  14  22
ENDBRANCH   1  17
BRANCH  13  23
ATOM     23  C   UNL     1       1.659  12.703  19.311  0.00  0.00    +0.000 C 
ATOM     24  C   UNL     1       2.596  12.749  18.067  0.00  0.00    +0.000 C 
ATOM     25  C   UNL     1       2.607  14.278  18.184  0.00  0.00    +0.000 C 
ATOM     26  C   UNL     1       1.280  14.172  18.952  0.00  0.00    +0.000 C 
ENDBRANCH  13  23
BRANCH   7  27
ATOM     27  C   UNL     1       3.121   4.139  19.694  0.00  0.00    +0.000 C 
ATOM     28  O   UNL     1       3.730   3.691  18.739  0.00  0.00    +0.000 OA
BRANCH  27  29
ATOM     29  O   UNL     1       2.839   3.411  20.795  0.00  0.00    +0.000 OA
ATOM     30  H   UNL     1       2.013   3.646  21.254  0.00  0.00    +0.000 HD
ENDBRANCH  27  29
ENDBRANCH   7  27
TORSDOF 5
ENDMDL
MODEL 6
REMARK VINA RESULT:      -7.3      3.671      6.719
REMARK  Name = 
REMARK  5 active torsions:
REMARK  status: ('A' for Active; 'I' for Inactive)
REMARK    1  A    between atoms: C_2  and  C_3
REMARK    2  A    between atoms: C_6  and  N_7
REMARK    3  A    between atoms: C_13  and  C_14
REMARK    4  A    between atoms: C_14  and  O_16
REMARK    5  A    between atoms: C_22  and  C_23
REMARK                            x       y       z     vdW  Elec       q    Type
REMARK                         _______ _______ _______ _____ _____    ______ ____
ROOT
ATOM      1  N   UNL     1      -0.603  11.485  20.116  0.00  0.00    +0.000 N 
ATOM      2  N   UNL     1      -0.175  10.304  20.644  0.00  0.00    +0.000 NA
ATOM      3  C   UNL     1       0.471   9.688  19.705  0.00  0.00    +0.000 C 
ATOM      4  C   UNL     1       1.126   8.376  19.852  0.00  0.00    +0.000 A 
ATOM      5  C   UNL     1       0.805   7.547  20.928  0.00  0.00    +0.000 A 
ATOM      6  C   UNL     1       1.448   6.314  21.068  0.00  0.00    +0.000 A 
ATOM      7  C   UNL     1       2.421   5.915  20.142  0.00  0.00    +0.000 A 
ATOM      8  C   UNL     1       2.719   6.738  19.047  0.00  0.00    +0.000 A 
ATOM      9  C   UNL     1       2.079   7.982  18.897  0.00  0.00    +0.000 A 
ATOM     10  C   UNL     1       2.382   8.835  17.690  0.00  0.00    +0.000 C 
ATOM     11  C   UNL     1       1.970  10.297  17.870  0.00  0.00    +0.000 C 
ATOM     12  C   UNL     1       0.540  10.401  18.382  0.00  0.00    +0.000 C 
ATOM     13  C   UNL     1      -0.051  11.775  18.781  0.00  0.00    +0.000 C 
ENDROOT
BRANCH   1  17
ATOM     14  C   UNL     1      -3.082  14.093  22.340  0.00  0.00    +0.000 A 
ATOM     15  C   UNL     1      -3.513  13.561  21.122  0.00  0.00    +0.000 A 
ATOM     16  C   UNL     1      -2.677  12.705  20.396  0.00  0.00    +0.000 A 
ATOM     17  C   UNL     1      -1.414  12.317  20.875  0.00  0.00    +0.000 A 
ATOM     18  C   UNL     1      -1.004  12.846  22.106  0.00  0.00    +0.000 A 
ATOM     19  C   UNL     1      -1.821  13.734  22.824  0.00  0.00    +0.000 A 
ATOM     20 CL   UNL     1      -1.195  14.382  24.301  0.00  0.00    +0.000 Cl
BRANCH  14  22
ATOM     21  N   UNL     1      -4.668  15.689  23.630  0.00  0.00    +0.000 NA
ATOM     22  C   UNL     1      -3.949  14.988  23.048  0.00  0.00    +0.000 C 
ENDBRANCH  14  22
ENDBRANCH   1  17
BRANCH  13  23
ATOM     23  C   UNL     1       0.992  12.902  18.842  0.00  0.00    +0.000 C 
ATOM     24  C   UNL     1       0.491  14.347  19.140  0.00  0.00    +0.000 C 
ATOM     25  C   UNL     1       1.733  14.553  20.016  0.00  0.00    +0.000 C 
ATOM     26  C   UNL     1       1.812  13.025  20.163  0.00  0.00    +0.000 C 
ENDBRANCH  13  23
BRANCH   7  27
ATOM     27  C   UNL     1       3.065   4.589  20.335  0.00  0.00    +0.000 C 
ATOM     28  O   UNL     1       3.998   4.205  19.652  0.00  0.00    +0.000 OA
BRANCH  27  29
ATOM     29  O   UNL     1       2.503   3.837  21.305  0.00  0.00    +0.000 OA
ATOM     30  H   UNL     1       2.893   2.954  21.430  0.00  0.00    +0.000 HD
ENDBRANCH  27  29
ENDBRANCH   7  27
TORSDOF 5
ENDMDL
MODEL 7
REMARK VINA RESULT:      -7.2      5.007      8.726
REMARK  Name = 
REMARK  5 active torsions:
REMARK  status: ('A' for Active; 'I' for Inactive)
REMARK    1  A    between atoms: C_2  and  C_3
REMARK    2  A    between atoms: C_6  and  N_7
REMARK    3  A    between atoms: C_13  and  C_14
REMARK    4  A    between atoms: C_14  and  O_16
REMARK    5  A    between atoms: C_22  and  C_23
REMARK                            x       y       z     vdW  Elec       q    Type
REMARK                         _______ _______ _______ _____ _____    ______ ____
ROOT
ATOM      1  N   UNL     1       1.405   9.730  19.199  0.00  0.00    +0.000 N 
ATOM      2  N   UNL     1       2.004  10.886  18.797  0.00  0.00    +0.000 NA
ATOM      3  C   UNL     1       1.169  11.845  19.044  0.00  0.00    +0.000 C 
ATOM      4  C   UNL     1       1.424  13.273  18.784  0.00  0.00    +0.000 A 
ATOM      5  C   UNL     1       2.461  13.659  17.933  0.00  0.00    +0.000 A 
ATOM      6  C   UNL     1       2.705  15.017  17.710  0.00  0.00    +0.000 A 
ATOM      7  C   UNL     1       1.923  15.989  18.347  0.00  0.00    +0.000 A 
ATOM      8  C   UNL     1       0.863  15.597  19.178  0.00  0.00    +0.000 A 
ATOM      9  C   UNL     1       0.610  14.233  19.410  0.00  0.00    +0.000 A 
ATOM     10  C   UNL     1      -0.560  13.830  20.273  0.00  0.00    +0.000 C 
ATOM     11  C   UNL     1      -0.460  12.391  20.785  0.00  0.00    +0.000 C 
ATOM     12  C   UNL     1      -0.144  11.429  19.648  0.00  0.00    +0.000 C 
ATOM     13  C   UNL     1       0.151   9.938  19.943  0.00  0.00    +0.000 C 
ENDROOT
BRANCH   1  17
ATOM     14  C   UNL     1       3.272   6.023  18.384  0.00  0.00    +0.000 A 
ATOM     15  C   UNL     1       3.361   7.084  17.479  0.00  0.00    +0.000 A 
ATOM     16  C   UNL     1       2.731   8.301  17.761  0.00  0.00    +0.000 A 
ATOM     17  C   UNL     1       2.037   8.517  18.964  0.00  0.00    +0.000 A 
ATOM     18  C   UNL     1       1.972   7.449  19.869  0.00  0.00    +0.000 A 
ATOM     19  C   UNL     1       2.570   6.212  19.577  0.00  0.00    +0.000 A 
ATOM     20 CL   UNL     1       2.377   4.938  20.732  0.00  0.00    +0.000 Cl
BRANCH  14  22
ATOM     21  N   UNL     1       4.393   3.766  17.771  0.00  0.00    +0.000 NA
ATOM     22  C   UNL     1       3.904   4.780  18.056  0.00  0.00    +0.000 C 
ENDBRANCH  14  22
ENDBRANCH   1  17
BRANCH  13  23
ATOM     23  C   UNL     1       0.331   9.628  21.438  0.00  0.00    +0.000 C 
ATOM     24  C   UNL     1      -0.371  10.562  22.468  0.00  0.00    +0.000 C 
ATOM     25  C   UNL     1      -0.697   9.321  23.308  0.00  0.00    +0.000 C 
ATOM     26  C   UNL     1      -0.552   8.486  22.026  0.00  0.00    +0.000 C 
ENDBRANCH  13  23
BRANCH   7  27
ATOM     27  C   UNL     1       2.221  17.418  18.066  0.00  0.00    +0.000 C 
ATOM     28  O   UNL     1       2.378  17.849  16.937  0.00  0.00    +0.000 OA
BRANCH  27  29
ATOM     29  O   UNL     1       2.341  18.186  19.170  0.00  0.00    +0.000 OA
ATOM     30  H   UNL     1       2.395  17.703  20.014  0.00  0.00    +0.000 HD
ENDBRANCH  27  29
ENDBRANCH   7  27
TORSDOF 5
ENDMDL
MODEL 8
REMARK VINA RESULT:      -7.2      3.010      5.533
REMARK  Name = 
REMARK  5 active torsions:
REMARK  status: ('A' for Active; 'I' for Inactive)
REMARK    1  A    between atoms: C_2  and  C_3
REMARK    2  A    between atoms: C_6  and  N_7
REMARK    3  A    between atoms: C_13  and  C_14
REMARK    4  A    between atoms: C_14  and  O_16
REMARK    5  A    between atoms: C_22  and  C_23
REMARK                            x       y       z     vdW  Elec       q    Type
REMARK                         _______ _______ _______ _____ _____    ______ ____
ROOT
ATOM      1  N   UNL     1       0.328   9.940  19.363  0.00  0.00    +0.000 N 
ATOM      2  N   UNL     1       0.654   8.775  19.988  0.00  0.00    +0.000 NA
ATOM      3  C   UNL     1       1.467   8.143  19.201  0.00  0.00    +0.000 C 
ATOM      4  C   UNL     1       2.087   6.840  19.498  0.00  0.00    +0.000 A 
ATOM      5  C   UNL     1       1.573   6.031  20.513  0.00  0.00    +0.000 A 
ATOM      6  C   UNL     1       2.183   4.807  20.799  0.00  0.00    +0.000 A 
ATOM      7  C   UNL     1       3.313   4.396  20.082  0.00  0.00    +0.000 A 
ATOM      8  C   UNL     1       3.809   5.197  19.043  0.00  0.00    +0.000 A 
ATOM      9  C   UNL     1       3.204   6.432  18.748  0.00  0.00    +0.000 A 
ATOM     10  C   UNL     1       3.725   7.261  17.600  0.00  0.00    +0.000 C 
ATOM     11  C   UNL     1       3.281   8.724  17.666  0.00  0.00    +0.000 C 
ATOM     12  C   UNL     1       1.780   8.828  17.898  0.00  0.00    +0.000 C 
ATOM     13  C   UNL     1       1.120  10.206  18.149  0.00  0.00    +0.000 C 
ENDROOT
BRANCH   1  17
ATOM     14  C   UNL     1      -2.503  12.593  21.047  0.00  0.00    +0.000 A 
ATOM     15  C   UNL     1      -2.463  12.370  19.668  0.00  0.00    +0.000 A 
ATOM     16  C   UNL     1      -1.515  11.494  19.127  0.00  0.00    +0.000 A 
ATOM     17  C   UNL     1      -0.613  10.782  19.937  0.00  0.00    +0.000 A 
ATOM     18  C   UNL     1      -0.678  11.004  21.319  0.00  0.00    +0.000 A 
ATOM     19  C   UNL     1      -1.603  11.908  21.867  0.00  0.00    +0.000 A 
ATOM     20 CL   UNL     1      -1.559  12.159  23.579  0.00  0.00    +0.000 Cl
BRANCH  14  22
ATOM     21  N   UNL     1      -4.226  14.285  21.994  0.00  0.00    +0.000 NA
ATOM     22  C   UNL     1      -3.467  13.516  21.570  0.00  0.00    +0.000 C 
ENDBRANCH  14  22
ENDBRANCH   1  17
BRANCH  13  23
ATOM     23  C   UNL     1       2.129  11.342  18.379  0.00  0.00    +0.000 C 
ATOM     24  C   UNL     1       1.802  12.743  17.781  0.00  0.00    +0.000 C 
ATOM     25  C   UNL     1       2.367  13.374  19.059  0.00  0.00    +0.000 C 
ATOM     26  C   UNL     1       2.090  12.041  19.771  0.00  0.00    +0.000 C 
ENDBRANCH  13  23
BRANCH   7  27
ATOM     27  C   UNL     1       3.915   3.079  20.422  0.00  0.00    +0.000 C 
ATOM     28  O   UNL     1       3.517   2.392  21.345  0.00  0.00    +0.000 OA
BRANCH  27  29
ATOM     29  O   UNL     1       4.963   2.733  19.644  0.00  0.00    +0.000 OA
ATOM     30  H   UNL     1       4.756   2.139  18.901  0.00  0.00    +0.000 HD
ENDBRANCH  27  29
ENDBRANCH   7  27
TORSDOF 5
ENDMDL
MODEL 9
REMARK VINA RESULT:      -7.2      8.639     11.063
REMARK  Name = 
REMARK  5 active torsions:
REMARK  status: ('A' for Active; 'I' for Inactive)
REMARK    1  A    between atoms: C_2  and  C_3
REMARK    2  A    between atoms: C_6  and  N_7
REMARK    3  A    between atoms: C_13  and  C_14
REMARK    4  A    between atoms: C_14  and  O_16
REMARK    5  A    between atoms: C_22  and  C_23
REMARK                            x       y       z     vdW  Elec       q    Type
REMARK                         _______ _______ _______ _____ _____    ______ ____
ROOT
ATOM      1  N   UNL     1      -3.923  13.671  22.307  0.00  0.00    +0.000 N 
ATOM      2  N   UNL     1      -3.341  13.258  21.147  0.00  0.00    +0.000 NA
ATOM      3  C   UNL     1      -4.261  12.658  20.461  0.00  0.00    +0.000 C 
ATOM      4  C   UNL     1      -4.068  12.072  19.122  0.00  0.00    +0.000 A 
ATOM      5  C   UNL     1      -2.781  11.825  18.642  0.00  0.00    +0.000 A 
ATOM      6  C   UNL     1      -2.610  11.288  17.363  0.00  0.00    +0.000 A 
ATOM      7  C   UNL     1      -3.723  11.010  16.558  0.00  0.00    +0.000 A 
ATOM      8  C   UNL     1      -5.015  11.232  17.057  0.00  0.00    +0.000 A 
ATOM      9  C   UNL     1      -5.198  11.774  18.342  0.00  0.00    +0.000 A 
ATOM     10  C   UNL     1      -6.596  11.967  18.876  0.00  0.00    +0.000 C 
ATOM     11  C   UNL     1      -6.658  12.936  20.058  0.00  0.00    +0.000 C 
ATOM     12  C   UNL     1      -5.616  12.581  21.110  0.00  0.00    +0.000 C 
ATOM     13  C   UNL     1      -5.387  13.506  22.330  0.00  0.00    +0.000 C 
ENDROOT
BRANCH   1  17
ATOM     14  C   UNL     1      -1.636  15.539  25.336  0.00  0.00    +0.000 A 
ATOM     15  C   UNL     1      -2.770  14.788  25.656  0.00  0.00    +0.000 A 
ATOM     16  C   UNL     1      -3.519  14.182  24.640  0.00  0.00    +0.000 A 
ATOM     17  C   UNL     1      -3.142  14.266  23.289  0.00  0.00    +0.000 A 
ATOM     18  C   UNL     1      -1.993  15.008  22.987  0.00  0.00    +0.000 A 
ATOM     19  C   UNL     1      -1.256  15.649  23.996  0.00  0.00    +0.000 A 
ATOM     20 CL   UNL     1       0.109  16.595  23.512  0.00  0.00    +0.000 Cl
BRANCH  14  22
ATOM     21  N   UNL     1      -0.319  16.709  27.240  0.00  0.00    +0.000 NA
ATOM     22  C   UNL     1      -0.905  16.170  26.395  0.00  0.00    +0.000 C 
ENDBRANCH  14  22
ENDBRANCH   1  17
BRANCH  13  23
ATOM     23  C   UNL     1      -6.103  14.861  22.220  0.00  0.00    +0.000 C 
ATOM     24  C   UNL     1      -6.339  15.672  23.530  0.00  0.00    +0.000 C 
ATOM     25  C   UNL     1      -6.009  16.950  22.749  0.00  0.00    +0.000 C 
ATOM     26  C   UNL     1      -5.241  16.071  21.749  0.00  0.00    +0.000 C 
ENDBRANCH  13  23
BRANCH   7  27
ATOM     27  C   UNL     1      -3.483  10.431  15.211  0.00  0.00    +0.000 C 
ATOM     28  O   UNL     1      -2.369  10.321  14.730  0.00  0.00    +0.000 OA
BRANCH  27  29
ATOM     29  O   UNL     1      -4.607  10.075  14.553  0.00  0.00    +0.000 OA
ATOM     30  H   UNL     1      -4.883   9.148  14.664  0.00  0.00    +0.000 HD
ENDBRANCH  27  29
ENDBRANCH   7  27
TORSDOF 5
ENDMDL
