MODEL 1
REMARK VINA RESULT:      -6.7      0.000      0.000
REMARK  Name = 
REMARK  2 active torsions:
REMARK  status: ('A' for Active; 'I' for Inactive)
REMARK    1  A    between atoms: N_3  and  C_4
REMARK    2  A    between atoms: N_10  and  C_11
REMARK                            x       y       z     vdW  Elec       q    Type
REMARK                         _______ _______ _______ _____ _____    ______ ____
ROOT
ATOM      1  O   UNL     1       2.660   6.697  17.974  0.00  0.00    +0.000 OA
ATOM      2  C   UNL     1       3.289   5.658  18.088  0.00  0.00    +0.000 C 
ATOM      3  N   UNL     1       2.788   4.478  18.570  0.00  0.00    +0.000 N 
ATOM      4  N   UNL     1       4.603   5.494  17.721  0.00  0.00    +0.000 N 
ATOM      5  H   UNL     1       3.479   3.883  19.001  0.00  0.00    +0.000 HD
ATOM      6  H   UNL     1       4.864   4.538  17.529  0.00  0.00    +0.000 HD
ENDROOT
BRANCH   4   7
ATOM      7  C   UNL     1       5.328   6.525  16.974  0.00  0.00    +0.000 C 
ATOM      8  C   UNL     1       5.168   6.328  15.461  0.00  0.00    +0.000 C 
ATOM      9  C   UNL     1       5.974   5.132  14.956  0.00  0.00    +0.000 C 
ATOM     10  N   UNL     1       7.388   5.224  15.323  0.00  0.00    +0.000 NA
ATOM     11  C   UNL     1       7.555   5.326  16.772  0.00  0.00    +0.000 C 
ATOM     12  C   UNL     1       6.811   6.527  17.354  0.00  0.00    +0.000 C 
ATOM     13  H   UNL     1       7.794   6.048  14.879  0.00  0.00    +0.000 HD
ENDBRANCH   4   7
BRANCH   3  14
ATOM     14  C   UNL     1       1.411   4.321  19.043  0.00  0.00    +0.000 C 
ATOM     15  C   UNL     1       0.929   2.863  18.983  0.00  0.00    +0.000 C 
ATOM     16  C   UNL     1       1.755   1.963  19.899  0.00  0.00    +0.000 C 
ATOM     17  C   UNL     1       1.737   2.461  21.343  0.00  0.00    +0.000 C 
ATOM     18  C   UNL     1       2.108   3.939  21.458  0.00  0.00    +0.000 C 
ATOM     19  C   UNL     1       1.307   4.818  20.494  0.00  0.00    +0.000 C 
ENDBRANCH   3  14
TORSDOF 2
ENDMDL
MODEL 2
REMARK VINA RESULT:      -6.7      1.030      6.239
REMARK  Name = 
REMARK  2 active torsions:
REMARK  status: ('A' for Active; 'I' for Inactive)
REMARK    1  A    between atoms: N_3  and  C_4
REMARK    2  A    between atoms: N_10  and  C_11
REMARK                            x       y       z     vdW  Elec       q    Type
REMARK                         _______ _______ _______ _____ _____    ______ ____
ROOT
ATOM      1  O   UNL     1       2.767   6.620  17.951  0.00  0.00    +0.000 OA
ATOM      2  C   UNL     1       3.347   5.553  18.069  0.00  0.00    +0.000 C 
ATOM      3  N   UNL     1       4.650   5.316  17.718  0.00  0.00    +0.000 N 
ATOM      4  N   UNL     1       2.791   4.417  18.605  0.00  0.00    +0.000 N 
ATOM      5  H   UNL     1       4.840   4.359  17.466  0.00  0.00    +0.000 HD
ATOM      6  H   UNL     1       3.464   3.758  18.969  0.00  0.00    +0.000 HD
ENDROOT
BRANCH   4   7
ATOM      7  C   UNL     1       1.483   4.436  19.264  0.00  0.00    +0.000 C 
ATOM      8  C   UNL     1       1.604   4.897  20.722  0.00  0.00    +0.000 C 
ATOM      9  C   UNL     1       2.241   3.825  21.606  0.00  0.00    +0.000 C 
ATOM     10  N   UNL     1       1.532   2.547  21.520  0.00  0.00    +0.000 NA
ATOM     11  C   UNL     1       1.485   2.056  20.143  0.00  0.00    +0.000 C 
ATOM     12  C   UNL     1       0.822   3.056  19.198  0.00  0.00    +0.000 C 
ATOM     13  H   UNL     1       0.580   2.670  21.865  0.00  0.00    +0.000 HD
ENDBRANCH   4   7
BRANCH   3  14
ATOM     14  C   UNL     1       5.520   6.330  17.120  0.00  0.00    +0.000 C 
ATOM     15  C   UNL     1       7.012   6.029  17.335  0.00  0.00    +0.000 C 
ATOM     16  C   UNL     1       7.421   4.723  16.659  0.00  0.00    +0.000 C 
ATOM     17  C   UNL     1       7.100   4.738  15.166  0.00  0.00    +0.000 C 
ATOM     18  C   UNL     1       5.653   5.134  14.880  0.00  0.00    +0.000 C 
ATOM     19  C   UNL     1       5.244   6.417  15.611  0.00  0.00    +0.000 C 
ENDBRANCH   3  14
TORSDOF 2
ENDMDL
MODEL 3
REMARK VINA RESULT:      -6.5      1.806      6.196
REMARK  Name = 
REMARK  2 active torsions:
REMARK  status: ('A' for Active; 'I' for Inactive)
REMARK    1  A    between atoms: N_3  and  C_4
REMARK    2  A    between atoms: N_10  and  C_11
REMARK                            x       y       z     vdW  Elec       q    Type
REMARK                         _______ _______ _______ _____ _____    ______ ____
ROOT
ATOM      1  O   UNL     1       4.320   3.671  16.243  0.00  0.00    +0.000 OA
ATOM      2  C   UNL     1       4.588   3.702  17.433  0.00  0.00    +0.000 C 
ATOM      3  N   UNL     1       5.801   4.058  17.962  0.00  0.00    +0.000 N 
ATOM      4  N   UNL     1       3.703   3.412  18.442  0.00  0.00    +0.000 N 
ATOM      5  H   UNL     1       6.001   3.633  18.854  0.00  0.00    +0.000 HD
ATOM      6  H   UNL     1       3.940   3.824  19.332  0.00  0.00    +0.000 HD
ENDROOT
BRANCH   4   7
ATOM      7  C   UNL     1       2.276   3.212  18.181  0.00  0.00    +0.000 C 
ATOM      8  C   UNL     1       1.474   4.484  18.483  0.00  0.00    +0.000 C 
ATOM      9  C   UNL     1       1.353   4.735  19.986  0.00  0.00    +0.000 C 
ATOM     10  N   UNL     1       0.792   3.584  20.695  0.00  0.00    +0.000 NA
ATOM     11  C   UNL     1       1.599   2.383  20.481  0.00  0.00    +0.000 C 
ATOM     12  C   UNL     1       1.734   2.037  19.000  0.00  0.00    +0.000 C 
ATOM     13  H   UNL     1      -0.156   3.415  20.359  0.00  0.00    +0.000 HD
ENDBRANCH   4   7
BRANCH   3  14
ATOM     14  C   UNL     1       6.958   4.429  17.146  0.00  0.00    +0.000 C 
ATOM     15  C   UNL     1       6.731   5.728  16.355  0.00  0.00    +0.000 C 
ATOM     16  C   UNL     1       6.520   6.919  17.287  0.00  0.00    +0.000 C 
ATOM     17  C   UNL     1       7.690   7.092  18.253  0.00  0.00    +0.000 C 
ATOM     18  C   UNL     1       8.033   5.802  18.996  0.00  0.00    +0.000 C 
ATOM     19  C   UNL     1       8.188   4.608  18.049  0.00  0.00    +0.000 C 
ENDBRANCH   3  14
TORSDOF 2
ENDMDL
MODEL 4
REMARK VINA RESULT:      -6.5      1.111      1.343
REMARK  Name = 
REMARK  2 active torsions:
REMARK  status: ('A' for Active; 'I' for Inactive)
REMARK    1  A    between atoms: N_3  and  C_4
REMARK    2  A    between atoms: N_10  and  C_11
REMARK                            x       y       z     vdW  Elec       q    Type
REMARK                         _______ _______ _______ _____ _____    ______ ____
ROOT
ATOM      1  O   UNL     1       3.320   6.538  17.756  0.00  0.00    +0.000 OA
ATOM      2  C   UNL     1       3.822   5.763  18.554  0.00  0.00    +0.000 C 
ATOM      3  N   UNL     1       3.133   4.881  19.343  0.00  0.00    +0.000 N 
ATOM      4  N   UNL     1       5.173   5.631  18.770  0.00  0.00    +0.000 N 
ATOM      5  H   UNL     1       3.599   4.650  20.207  0.00  0.00    +0.000 HD
ATOM      6  H   UNL     1       5.444   4.739  19.157  0.00  0.00    +0.000 HD
ENDROOT
BRANCH   4   7
ATOM      7  C   UNL     1       6.158   6.291  17.912  0.00  0.00    +0.000 C 
ATOM      8  C   UNL     1       6.042   5.807  16.461  0.00  0.00    +0.000 C 
ATOM      9  C   UNL     1       6.574   4.384  16.292  0.00  0.00    +0.000 C 
ATOM     10  N   UNL     1       7.948   4.248  16.780  0.00  0.00    +0.000 NA
ATOM     11  C   UNL     1       8.053   4.626  18.189  0.00  0.00    +0.000 C 
ATOM     12  C   UNL     1       7.578   6.057  18.437  0.00  0.00    +0.000 C 
ATOM     13  H   UNL     1       8.560   4.847  16.225  0.00  0.00    +0.000 HD
ENDBRANCH   4   7
BRANCH   3  14
ATOM     14  C   UNL     1       1.673   4.773  19.345  0.00  0.00    +0.000 C 
ATOM     15  C   UNL     1       1.144   3.908  18.190  0.00  0.00    +0.000 C 
ATOM     16  C   UNL     1       1.636   2.466  18.300  0.00  0.00    +0.000 C 
ATOM     17  C   UNL     1       1.253   1.842  19.640  0.00  0.00    +0.000 C 
ATOM     18  C   UNL     1       1.661   2.709  20.830  0.00  0.00    +0.000 C 
ATOM     19  C   UNL     1       1.205   4.164  20.675  0.00  0.00    +0.000 C 
ENDBRANCH   3  14
TORSDOF 2
ENDMDL
MODEL 5
REMARK VINA RESULT:      -6.4      1.803      6.220
REMARK  Name = 
REMARK  2 active torsions:
REMARK  status: ('A' for Active; 'I' for Inactive)
REMARK    1  A    between atoms: N_3  and  C_4
REMARK    2  A    between atoms: N_10  and  C_11
REMARK                            x       y       z     vdW  Elec       q    Type
REMARK                         _______ _______ _______ _____ _____    ______ ____
ROOT
ATOM      1  O   UNL     1       5.768   3.664  19.562  0.00  0.00    +0.000 OA
ATOM      2  C   UNL     1       4.872   4.355  19.105  0.00  0.00    +0.000 C 
ATOM      3  N   UNL     1       5.035   5.351  18.178  0.00  0.00    +0.000 N 
ATOM      4  N   UNL     1       3.543   4.226  19.426  0.00  0.00    +0.000 N 
ATOM      5  H   UNL     1       4.339   6.079  18.231  0.00  0.00    +0.000 HD
ATOM      6  H   UNL     1       2.911   4.588  18.728  0.00  0.00    +0.000 HD
ENDROOT
BRANCH   4   7
ATOM      7  C   UNL     1       3.050   3.102  20.225  0.00  0.00    +0.000 C 
ATOM      8  C   UNL     1       2.536   1.968  19.328  0.00  0.00    +0.000 C 
ATOM      9  C   UNL     1       1.204   2.325  18.669  0.00  0.00    +0.000 C 
ATOM     10  N   UNL     1       0.190   2.714  19.650  0.00  0.00    +0.000 NA
ATOM     11  C   UNL     1       0.636   3.851  20.454  0.00  0.00    +0.000 C 
ATOM     12  C   UNL     1       1.947   3.560  21.184  0.00  0.00    +0.000 C 
ATOM     13  H   UNL     1      -0.001   1.923  20.265  0.00  0.00    +0.000 HD
ENDBRANCH   4   7
BRANCH   3  14
ATOM     14  C   UNL     1       6.336   5.735  17.628  0.00  0.00    +0.000 C 
ATOM     15  C   UNL     1       7.055   4.562  16.941  0.00  0.00    +0.000 C 
ATOM     16  C   UNL     1       6.265   4.050  15.739  0.00  0.00    +0.000 C 
ATOM     17  C   UNL     1       5.994   5.163  14.729  0.00  0.00    +0.000 C 
ATOM     18  C   UNL     1       5.373   6.401  15.371  0.00  0.00    +0.000 C 
ATOM     19  C   UNL     1       6.149   6.868  16.607  0.00  0.00    +0.000 C 
ENDBRANCH   3  14
TORSDOF 2
ENDMDL
MODEL 6
REMARK VINA RESULT:      -6.3      1.879      2.538
REMARK  Name = 
REMARK  2 active torsions:
REMARK  status: ('A' for Active; 'I' for Inactive)
REMARK    1  A    between atoms: N_3  and  C_4
REMARK    2  A    between atoms: N_10  and  C_11
REMARK                            x       y       z     vdW  Elec       q    Type
REMARK                         _______ _______ _______ _____ _____    ______ ____
ROOT
ATOM      1  O   UNL     1       4.768   3.207  16.911  0.00  0.00    +0.000 OA
ATOM      2  C   UNL     1       4.518   4.187  17.594  0.00  0.00    +0.000 C 
ATOM      3  N   UNL     1       3.409   4.340  18.385  0.00  0.00    +0.000 N 
ATOM      4  N   UNL     1       5.328   5.291  17.703  0.00  0.00    +0.000 N 
ATOM      5  H   UNL     1       3.130   5.299  18.519  0.00  0.00    +0.000 HD
ATOM      6  H   UNL     1       5.187   5.826  18.547  0.00  0.00    +0.000 HD
ENDROOT
BRANCH   4   7
ATOM      7  C   UNL     1       6.680   5.313  17.141  0.00  0.00    +0.000 C 
ATOM      8  C   UNL     1       7.704   4.759  18.140  0.00  0.00    +0.000 C 
ATOM      9  C   UNL     1       7.965   5.736  19.287  0.00  0.00    +0.000 C 
ATOM     10  N   UNL     1       8.368   7.058  18.804  0.00  0.00    +0.000 NA
ATOM     11  C   UNL     1       7.358   7.632  17.917  0.00  0.00    +0.000 C 
ATOM     12  C   UNL     1       7.068   6.732  16.717  0.00  0.00    +0.000 C 
ATOM     13  H   UNL     1       9.250   6.973  18.298  0.00  0.00    +0.000 HD
ENDBRANCH   4   7
BRANCH   3  14
ATOM     14  C   UNL     1       2.351   3.333  18.491  0.00  0.00    +0.000 C 
ATOM     15  C   UNL     1       2.752   2.148  19.384  0.00  0.00    +0.000 C 
ATOM     16  C   UNL     1       3.006   2.593  20.823  0.00  0.00    +0.000 C 
ATOM     17  C   UNL     1       1.791   3.307  21.413  0.00  0.00    +0.000 C 
ATOM     18  C   UNL     1       1.279   4.433  20.517  0.00  0.00    +0.000 C 
ATOM     19  C   UNL     1       1.083   3.981  19.067  0.00  0.00    +0.000 C 
ENDBRANCH   3  14
TORSDOF 2
ENDMDL
MODEL 7
REMARK VINA RESULT:      -6.3      1.917      6.208
REMARK  Name = 
REMARK  2 active torsions:
REMARK  status: ('A' for Active; 'I' for Inactive)
REMARK    1  A    between atoms: N_3  and  C_4
REMARK    2  A    between atoms: N_10  and  C_11
REMARK                            x       y       z     vdW  Elec       q    Type
REMARK                         _______ _______ _______ _____ _____    ______ ____
ROOT
ATOM      1  O   UNL     1       4.081   2.339  17.404  0.00  0.00    +0.000 OA
ATOM      2  C   UNL     1       4.477   3.047  18.316  0.00  0.00    +0.000 C 
ATOM      3  N   UNL     1       5.421   4.033  18.200  0.00  0.00    +0.000 N 
ATOM      4  N   UNL     1       4.016   2.988  19.608  0.00  0.00    +0.000 N 
ATOM      5  H   UNL     1       5.938   4.209  19.047  0.00  0.00    +0.000 HD
ATOM      6  H   UNL     1       4.151   3.838  20.135  0.00  0.00    +0.000 HD
ENDROOT
BRANCH   4   7
ATOM      7  C   UNL     1       2.852   2.178  19.975  0.00  0.00    +0.000 C 
ATOM      8  C   UNL     1       1.721   2.338  18.950  0.00  0.00    +0.000 C 
ATOM      9  C   UNL     1       1.041   3.701  19.064  0.00  0.00    +0.000 C 
ATOM     10  N   UNL     1       0.557   3.966  20.420  0.00  0.00    +0.000 NA
ATOM     11  C   UNL     1       1.645   3.900  21.395  0.00  0.00    +0.000 C 
ATOM     12  C   UNL     1       2.354   2.547  21.375  0.00  0.00    +0.000 C 
ATOM     13  H   UNL     1      -0.153   3.273  20.661  0.00  0.00    +0.000 HD
ENDBRANCH   4   7
BRANCH   3  14
ATOM     14  C   UNL     1       6.105   4.349  16.944  0.00  0.00    +0.000 C 
ATOM     15  C   UNL     1       5.412   5.476  16.163  0.00  0.00    +0.000 C 
ATOM     16  C   UNL     1       5.421   6.787  16.946  0.00  0.00    +0.000 C 
ATOM     17  C   UNL     1       6.840   7.207  17.324  0.00  0.00    +0.000 C 
ATOM     18  C   UNL     1       7.619   6.089  18.014  0.00  0.00    +0.000 C 
ATOM     19  C   UNL     1       7.553   4.768  17.241  0.00  0.00    +0.000 C 
ENDBRANCH   3  14
TORSDOF 2
ENDMDL
MODEL 8
REMARK VINA RESULT:      -6.3      1.859      2.692
REMARK  Name = 
REMARK  2 active torsions:
REMARK  status: ('A' for Active; 'I' for Inactive)
REMARK    1  A    between atoms: N_3  and  C_4
REMARK    2  A    between atoms: N_10  and  C_11
REMARK                            x       y       z     vdW  Elec       q    Type
REMARK                         _______ _______ _______ _____ _____    ______ ____
ROOT
ATOM      1  O   UNL     1       4.459   3.938  16.356  0.00  0.00    +0.000 OA
ATOM      2  C   UNL     1       4.675   3.792  17.548  0.00  0.00    +0.000 C 
ATOM      3  N   UNL     1       3.793   3.266  18.454  0.00  0.00    +0.000 N 
ATOM      4  N   UNL     1       5.857   4.108  18.173  0.00  0.00    +0.000 N 
ATOM      5  H   UNL     1       3.922   3.601  19.396  0.00  0.00    +0.000 HD
ATOM      6  H   UNL     1       6.015   3.610  19.036  0.00  0.00    +0.000 HD
ENDROOT
BRANCH   4   7
ATOM      7  C   UNL     1       7.052   4.485  17.415  0.00  0.00    +0.000 C 
ATOM      8  C   UNL     1       8.234   4.770  18.350  0.00  0.00    +0.000 C 
ATOM      9  C   UNL     1       8.063   6.093  19.096  0.00  0.00    +0.000 C 
ATOM     10  N   UNL     1       7.837   7.216  18.183  0.00  0.00    +0.000 NA
ATOM     11  C   UNL     1       6.660   6.992  17.345  0.00  0.00    +0.000 C 
ATOM     12  C   UNL     1       6.771   5.704  16.530  0.00  0.00    +0.000 C 
ATOM     13  H   UNL     1       8.657   7.330  17.587  0.00  0.00    +0.000 HD
ENDBRANCH   4   7
BRANCH   3  14
ATOM     14  C   UNL     1       2.442   2.826  18.101  0.00  0.00    +0.000 C 
ATOM     15  C   UNL     1       1.845   1.861  19.138  0.00  0.00    +0.000 C 
ATOM     16  C   UNL     1       1.688   2.532  20.501  0.00  0.00    +0.000 C 
ATOM     17  C   UNL     1       0.835   3.795  20.410  0.00  0.00    +0.000 C 
ATOM     18  C   UNL     1       1.317   4.752  19.322  0.00  0.00    +0.000 C 
ATOM     19  C   UNL     1       1.521   4.050  17.976  0.00  0.00    +0.000 C 
ENDBRANCH   3  14
TORSDOF 2
ENDMDL
MODEL 9
REMARK VINA RESULT:      -6.2      1.580      6.204
REMARK  Name = 
REMARK  2 active torsions:
REMARK  status: ('A' for Active; 'I' for Inactive)
REMARK    1  A    between atoms: N_3  and  C_4
REMARK    2  A    between atoms: N_10  and  C_11
REMARK                            x       y       z     vdW  Elec       q    Type
REMARK                         _______ _______ _______ _____ _____    ______ ____
ROOT
ATOM      1  O   UNL     1       3.925   4.808  16.817  0.00  0.00    +0.000 OA
ATOM      2  C   UNL     1       4.299   4.621  17.963  0.00  0.00    +0.000 C 
ATOM      3  N   UNL     1       5.606   4.532  18.365  0.00  0.00    +0.000 N 
ATOM      4  N   UNL     1       3.466   4.498  19.048  0.00  0.00    +0.000 N 
ATOM      5  H   UNL     1       5.745   3.967  19.188  0.00  0.00    +0.000 HD
ATOM      6  H   UNL     1       3.901   4.714  19.932  0.00  0.00    +0.000 HD
ENDROOT
BRANCH   4   7
ATOM      7  C   UNL     1       2.030   4.768  18.950  0.00  0.00    +0.000 C 
ATOM      8  C   UNL     1       1.398   4.914  20.341  0.00  0.00    +0.000 C 
ATOM      9  C   UNL     1       1.284   3.568  21.056  0.00  0.00    +0.000 C 
ATOM     10  N   UNL     1       0.562   2.577  20.256  0.00  0.00    +0.000 NA
ATOM     11  C   UNL     1       1.207   2.368  18.960  0.00  0.00    +0.000 C 
ATOM     12  C   UNL     1       1.322   3.664  18.159  0.00  0.00    +0.000 C 
ATOM     13  H   UNL     1      -0.394   2.901  20.107  0.00  0.00    +0.000 HD
ENDBRANCH   4   7
BRANCH   3  14
ATOM     14  C   UNL     1       6.740   4.627  17.443  0.00  0.00    +0.000 C 
ATOM     15  C   UNL     1       6.629   5.831  16.495  0.00  0.00    +0.000 C 
ATOM     16  C   UNL     1       6.646   7.151  17.263  0.00  0.00    +0.000 C 
ATOM     17  C   UNL     1       7.896   7.281  18.131  0.00  0.00    +0.000 C 
ATOM     18  C   UNL     1       8.119   6.063  19.025  0.00  0.00    +0.000 C 
ATOM     19  C   UNL     1       8.045   4.746  18.246  0.00  0.00    +0.000 C 
ENDBRANCH   3  14
TORSDOF 2
ENDMDL
