MODEL 1
REMARK VINA RESULT:      -8.5      0.000      0.000
REMARK  Name = 
REMARK  5 active torsions:
REMARK  status: ('A' for Active; 'I' for Inactive)
REMARK    1  A    between atoms: C_8  and  O_9
REMARK    2  A    between atoms: O_9  and  C_10
REMARK    3  A    between atoms: C_14  and  C_16
REMARK    4  A    between atoms: C_21  and  C_22
REMARK    5  A    between atoms: C_26  and  O_27
REMARK                            x       y       z     vdW  Elec       q    Type
REMARK                         _______ _______ _______ _____ _____    ______ ____
ROOT
ATOM      1  O   UNL     1       0.191   1.865  19.016  0.00  0.00    +0.000 OA
ATOM      2  C   UNL     1       1.229   2.393  18.671  0.00  0.00    +0.000 C 
ATOM      3  N   UNL     1       2.170   1.890  17.810  0.00  0.00    +0.000 N 
ATOM      4  C   UNL     1       3.301   2.765  17.640  0.00  0.00    +0.000 C 
ATOM      5  C   UNL     1       2.966   3.935  18.517  0.00  0.00    +0.000 A 
ATOM      6  C   UNL     1       1.719   3.701  19.113  0.00  0.00    +0.000 A 
ATOM      7  C   UNL     1       1.086   4.591  19.962  0.00  0.00    +0.000 A 
ATOM      8  C   UNL     1       1.747   5.781  20.247  0.00  0.00    +0.000 A 
ATOM      9  C   UNL     1       3.006   6.035  19.646  0.00  0.00    +0.000 A 
ATOM     10  C   UNL     1       3.652   5.127  18.760  0.00  0.00    +0.000 A 
ATOM     11  H   UNL     1       2.076   0.965  17.409  0.00  0.00    +0.000 HD
ENDROOT
BRANCH  10  12
ATOM     12  C   UNL     1       4.947   5.469  18.119  0.00  0.00    +0.000 A 
ATOM     13  C   UNL     1       5.156   6.648  17.391  0.00  0.00    +0.000 A 
ATOM     14  N   UNL     1       6.335   7.048  16.844  0.00  0.00    +0.000 NA
ATOM     15  C   UNL     1       7.377   6.206  16.985  0.00  0.00    +0.000 A 
ATOM     16  C   UNL     1       7.282   4.992  17.640  0.00  0.00    +0.000 A 
ATOM     17  C   UNL     1       6.066   4.629  18.213  0.00  0.00    +0.000 A 
BRANCH  16  18
ATOM     18  O   UNL     1       8.331   4.130  17.753  0.00  0.00    +0.000 OA
ATOM     19  H   UNL     1       8.464   3.677  16.902  0.00  0.00    +0.000 HD
ENDBRANCH  16  18
ENDBRANCH  10  12
BRANCH   8  20
ATOM     20  O   UNL     1       1.283   6.772  21.085  0.00  0.00    +0.000 OA
BRANCH  20  21
ATOM     21  C   UNL     1       1.792   8.100  20.880  0.00  0.00    +0.000 C 
ATOM     22  C   UNL     1       1.633   8.938  22.161  0.00  0.00    +0.000 C 
ATOM     23  C   UNL     1       0.474   9.895  21.899  0.00  0.00    +0.000 C 
ATOM     24  N   UNL     1       0.487  10.058  20.465  0.00  0.00    +0.000 N 
ATOM     25  C   UNL     1      -0.038  11.083  19.697  0.00  0.00    +0.000 C 
ATOM     26  O   UNL     1       0.002  11.057  18.468  0.00  0.00    +0.000 OA
ATOM     27  C   UNL     1       0.988   8.863  19.821  0.00  0.00    +0.000 C 
BRANCH  25  28
ATOM     28  C   UNL     1      -0.644  12.257  20.390  0.00  0.00    +0.000 C 
ATOM     29  C   UNL     1      -1.358  13.325  19.591  0.00  0.00    +0.000 C 
ATOM     30  C   UNL     1      -2.155  12.381  20.440  0.00  0.00    +0.000 C 
ENDBRANCH  25  28
ENDBRANCH  20  21
ENDBRANCH   8  20
TORSDOF 5
ENDMDL
MODEL 2
REMARK VINA RESULT:      -8.4      1.966      2.332
REMARK  Name = 
REMARK  5 active torsions:
REMARK  status: ('A' for Active; 'I' for Inactive)
REMARK    1  A    between atoms: C_8  and  O_9
REMARK    2  A    between atoms: O_9  and  C_10
REMARK    3  A    between atoms: C_14  and  C_16
REMARK    4  A    between atoms: C_21  and  C_22
REMARK    5  A    between atoms: C_26  and  O_27
REMARK                            x       y       z     vdW  Elec       q    Type
REMARK                         _______ _______ _______ _____ _____    ______ ____
ROOT
ATOM      1  O   UNL     1       1.162   2.566  20.465  0.00  0.00    +0.000 OA
ATOM      2  C   UNL     1       2.029   2.819  19.652  0.00  0.00    +0.000 C 
ATOM      3  N   UNL     1       2.749   1.926  18.900  0.00  0.00    +0.000 N 
ATOM      4  C   UNL     1       3.723   2.564  18.053  0.00  0.00    +0.000 C 
ATOM      5  C   UNL     1       3.538   4.023  18.350  0.00  0.00    +0.000 A 
ATOM      6  C   UNL     1       2.513   4.156  19.297  0.00  0.00    +0.000 A 
ATOM      7  C   UNL     1       2.056   5.369  19.779  0.00  0.00    +0.000 A 
ATOM      8  C   UNL     1       2.672   6.519  19.300  0.00  0.00    +0.000 A 
ATOM      9  C   UNL     1       3.705   6.401  18.336  0.00  0.00    +0.000 A 
ATOM     10  C   UNL     1       4.167   5.154  17.827  0.00  0.00    +0.000 A 
ATOM     11  H   UNL     1       2.627   0.927  19.008  0.00  0.00    +0.000 HD
ENDROOT
BRANCH  10  12
ATOM     12  C   UNL     1       5.218   5.094  16.780  0.00  0.00    +0.000 A 
ATOM     13  C   UNL     1       6.374   5.883  16.805  0.00  0.00    +0.000 A 
ATOM     14  N   UNL     1       7.401   5.822  15.916  0.00  0.00    +0.000 NA
ATOM     15  C   UNL     1       7.263   4.948  14.901  0.00  0.00    +0.000 A 
ATOM     16  C   UNL     1       6.145   4.149  14.741  0.00  0.00    +0.000 A 
ATOM     17  C   UNL     1       5.126   4.218  15.687  0.00  0.00    +0.000 A 
BRANCH  16  18
ATOM     18  O   UNL     1       5.996   3.289  13.694  0.00  0.00    +0.000 OA
ATOM     19  H   UNL     1       5.350   2.604  13.935  0.00  0.00    +0.000 HD
ENDBRANCH  16  18
ENDBRANCH  10  12
BRANCH   8  20
ATOM     20  O   UNL     1       2.367   7.808  19.681  0.00  0.00    +0.000 OA
BRANCH  20  21
ATOM     21  C   UNL     1       1.359   8.498  18.925  0.00  0.00    +0.000 C 
ATOM     22  C   UNL     1       1.989   9.210  17.715  0.00  0.00    +0.000 C 
ATOM     23  C   UNL     1       2.015  10.694  18.064  0.00  0.00    +0.000 C 
ATOM     24  N   UNL     1       0.915  10.846  18.986  0.00  0.00    +0.000 N 
ATOM     25  C   UNL     1       0.204  11.985  19.319  0.00  0.00    +0.000 C 
ATOM     26  O   UNL     1      -0.681  11.969  20.173  0.00  0.00    +0.000 OA
ATOM     27  C   UNL     1       0.708   9.625  19.736  0.00  0.00    +0.000 C 
BRANCH  25  28
ATOM     28  C   UNL     1       0.513  13.256  18.601  0.00  0.00    +0.000 C 
ATOM     29  C   UNL     1      -0.004  14.575  19.135  0.00  0.00    +0.000 C 
ATOM     30  C   UNL     1       1.456  14.253  19.247  0.00  0.00    +0.000 C 
ENDBRANCH  25  28
ENDBRANCH  20  21
ENDBRANCH   8  20
TORSDOF 5
ENDMDL
MODEL 3
REMARK VINA RESULT:      -8.4      2.059      2.405
REMARK  Name = 
REMARK  5 active torsions:
REMARK  status: ('A' for Active; 'I' for Inactive)
REMARK    1  A    between atoms: C_8  and  O_9
REMARK    2  A    between atoms: O_9  and  C_10
REMARK    3  A    between atoms: C_14  and  C_16
REMARK    4  A    between atoms: C_21  and  C_22
REMARK    5  A    between atoms: C_26  and  O_27
REMARK                            x       y       z     vdW  Elec       q    Type
REMARK                         _______ _______ _______ _____ _____    ______ ____
ROOT
ATOM      1  O   UNL     1       1.256   2.533  20.358  0.00  0.00    +0.000 OA
ATOM      2  C   UNL     1       2.091   2.780  19.511  0.00  0.00    +0.000 C 
ATOM      3  N   UNL     1       2.749   1.883  18.709  0.00  0.00    +0.000 N 
ATOM      4  C   UNL     1       3.701   2.511  17.829  0.00  0.00    +0.000 C 
ATOM      5  C   UNL     1       3.572   3.967  18.163  0.00  0.00    +0.000 A 
ATOM      6  C   UNL     1       2.596   4.109  19.159  0.00  0.00    +0.000 A 
ATOM      7  C   UNL     1       2.196   5.325  19.685  0.00  0.00    +0.000 A 
ATOM      8  C   UNL     1       2.821   6.467  19.199  0.00  0.00    +0.000 A 
ATOM      9  C   UNL     1       3.806   6.340  18.187  0.00  0.00    +0.000 A 
ATOM     10  C   UNL     1       4.208   5.092  17.633  0.00  0.00    +0.000 A 
ATOM     11  H   UNL     1       2.604   0.886  18.804  0.00  0.00    +0.000 HD
ENDROOT
BRANCH  10  12
ATOM     12  C   UNL     1       5.207   5.024  16.537  0.00  0.00    +0.000 A 
ATOM     13  C   UNL     1       6.494   5.567  16.636  0.00  0.00    +0.000 A 
ATOM     14  N   UNL     1       7.473   5.474  15.696  0.00  0.00    +0.000 NA
ATOM     15  C   UNL     1       7.149   4.836  14.555  0.00  0.00    +0.000 A 
ATOM     16  C   UNL     1       5.896   4.301  14.320  0.00  0.00    +0.000 A 
ATOM     17  C   UNL     1       4.928   4.389  15.317  0.00  0.00    +0.000 A 
BRANCH  16  18
ATOM     18  O   UNL     1       5.564   3.684  13.152  0.00  0.00    +0.000 OA
ATOM     19  H   UNL     1       6.168   3.983  12.451  0.00  0.00    +0.000 HD
ENDBRANCH  16  18
ENDBRANCH  10  12
BRANCH   8  20
ATOM     20  O   UNL     1       2.571   7.755  19.619  0.00  0.00    +0.000 OA
BRANCH  20  21
ATOM     21  C   UNL     1       1.210   8.095  19.929  0.00  0.00    +0.000 C 
ATOM     22  C   UNL     1       0.735   9.263  19.046  0.00  0.00    +0.000 C 
ATOM     23  C   UNL     1       0.708  10.492  19.949  0.00  0.00    +0.000 C 
ATOM     24  N   UNL     1       0.489   9.942  21.266  0.00  0.00    +0.000 N 
ATOM     25  C   UNL     1      -0.020  10.555  22.396  0.00  0.00    +0.000 C 
ATOM     26  O   UNL     1      -0.095   9.966  23.473  0.00  0.00    +0.000 OA
ATOM     27  C   UNL     1       1.063   8.616  21.364  0.00  0.00    +0.000 C 
BRANCH  25  28
ATOM     28  C   UNL     1      -0.508  11.961  22.288  0.00  0.00    +0.000 C 
ATOM     29  C   UNL     1      -1.803  12.261  21.564  0.00  0.00    +0.000 C 
ATOM     30  C   UNL     1      -1.750  12.367  23.059  0.00  0.00    +0.000 C 
ENDBRANCH  25  28
ENDBRANCH  20  21
ENDBRANCH   8  20
TORSDOF 5
ENDMDL
MODEL 4
REMARK VINA RESULT:      -8.3      2.122      2.462
REMARK  Name = 
REMARK  5 active torsions:
REMARK  status: ('A' for Active; 'I' for Inactive)
REMARK    1  A    between atoms: C_8  and  O_9
REMARK    2  A    between atoms: O_9  and  C_10
REMARK    3  A    between atoms: C_14  and  C_16
REMARK    4  A    between atoms: C_21  and  C_22
REMARK    5  A    between atoms: C_26  and  O_27
REMARK                            x       y       z     vdW  Elec       q    Type
REMARK                         _______ _______ _______ _____ _____    ______ ____
ROOT
ATOM      1  O   UNL     1       0.621   3.074  19.668  0.00  0.00    +0.000 OA
ATOM      2  C   UNL     1       1.557   3.249  18.914  0.00  0.00    +0.000 C 
ATOM      3  N   UNL     1       2.202   2.303  18.158  0.00  0.00    +0.000 N 
ATOM      4  C   UNL     1       3.294   2.846  17.393  0.00  0.00    +0.000 C 
ATOM      5  C   UNL     1       3.275   4.303  17.750  0.00  0.00    +0.000 A 
ATOM      6  C   UNL     1       2.223   4.526  18.648  0.00  0.00    +0.000 A 
ATOM      7  C   UNL     1       1.894   5.767  19.163  0.00  0.00    +0.000 A 
ATOM      8  C   UNL     1       2.674   6.849  18.770  0.00  0.00    +0.000 A 
ATOM      9  C   UNL     1       3.738   6.640  17.857  0.00  0.00    +0.000 A 
ATOM     10  C   UNL     1       4.069   5.366  17.314  0.00  0.00    +0.000 A 
ATOM     11  H   UNL     1       1.950   1.324  18.213  0.00  0.00    +0.000 HD
ENDROOT
BRANCH  10  12
ATOM     12  C   UNL     1       5.162   5.215  16.320  0.00  0.00    +0.000 A 
ATOM     13  C   UNL     1       6.437   5.768  16.490  0.00  0.00    +0.000 A 
ATOM     14  N   UNL     1       7.495   5.605  15.652  0.00  0.00    +0.000 NA
ATOM     15  C   UNL     1       7.272   4.879  14.540  0.00  0.00    +0.000 A 
ATOM     16  C   UNL     1       6.042   4.323  14.237  0.00  0.00    +0.000 A 
ATOM     17  C   UNL     1       4.990   4.486  15.133  0.00  0.00    +0.000 A 
BRANCH  16  18
ATOM     18  O   UNL     1       5.814   3.616  13.095  0.00  0.00    +0.000 OA
ATOM     19  H   UNL     1       5.596   2.697  13.328  0.00  0.00    +0.000 HD
ENDBRANCH  16  18
ENDBRANCH  10  12
BRANCH   8  20
ATOM     20  O   UNL     1       2.510   8.149  19.196  0.00  0.00    +0.000 OA
BRANCH  20  21
ATOM     21  C   UNL     1       1.169   8.597  19.446  0.00  0.00    +0.000 C 
ATOM     22  C   UNL     1       0.774   9.695  18.440  0.00  0.00    +0.000 C 
ATOM     23  C   UNL     1       0.810  11.009  19.214  0.00  0.00    +0.000 C 
ATOM     24  N   UNL     1       0.543  10.609  20.576  0.00  0.00    +0.000 N 
ATOM     25  C   UNL     1       0.059  11.363  21.629  0.00  0.00    +0.000 C 
ATOM     26  O   UNL     1      -0.065  10.892  22.759  0.00  0.00    +0.000 OA
ATOM     27  C   UNL     1       1.035   9.269  20.817  0.00  0.00    +0.000 C 
BRANCH  25  28
ATOM     28  C   UNL     1      -0.343  12.776  21.371  0.00  0.00    +0.000 C 
ATOM     29  C   UNL     1      -0.550  13.730  22.528  0.00  0.00    +0.000 C 
ATOM     30  C   UNL     1       0.654  13.885  21.649  0.00  0.00    +0.000 C 
ENDBRANCH  25  28
ENDBRANCH  20  21
ENDBRANCH   8  20
TORSDOF 5
ENDMDL
MODEL 5
REMARK VINA RESULT:      -8.3      1.757      2.061
REMARK  Name = 
REMARK  5 active torsions:
REMARK  status: ('A' for Active; 'I' for Inactive)
REMARK    1  A    between atoms: C_8  and  O_9
REMARK    2  A    between atoms: O_9  and  C_10
REMARK    3  A    between atoms: C_14  and  C_16
REMARK    4  A    between atoms: C_21  and  C_22
REMARK    5  A    between atoms: C_26  and  O_27
REMARK                            x       y       z     vdW  Elec       q    Type
REMARK                         _______ _______ _______ _____ _____    ______ ____
ROOT
ATOM      1  O   UNL     1       0.796   2.917  21.382  0.00  0.00    +0.000 OA
ATOM      2  C   UNL     1       1.674   3.133  20.572  0.00  0.00    +0.000 C 
ATOM      3  N   UNL     1       2.390   2.208  19.856  0.00  0.00    +0.000 N 
ATOM      4  C   UNL     1       3.381   2.806  18.999  0.00  0.00    +0.000 C 
ATOM      5  C   UNL     1       3.211   4.276  19.248  0.00  0.00    +0.000 A 
ATOM      6  C   UNL     1       2.178   4.452  20.178  0.00  0.00    +0.000 A 
ATOM      7  C   UNL     1       1.731   5.685  20.617  0.00  0.00    +0.000 A 
ATOM      8  C   UNL     1       2.366   6.812  20.107  0.00  0.00    +0.000 A 
ATOM      9  C   UNL     1       3.408   6.650  19.159  0.00  0.00    +0.000 A 
ATOM     10  C   UNL     1       3.860   5.382  18.696  0.00  0.00    +0.000 A 
ATOM     11  H   UNL     1       2.255   1.215  19.995  0.00  0.00    +0.000 HD
ENDROOT
BRANCH  10  12
ATOM     12  C   UNL     1       4.920   5.275  17.663  0.00  0.00    +0.000 A 
ATOM     13  C   UNL     1       4.771   5.755  16.355  0.00  0.00    +0.000 A 
ATOM     14  N   UNL     1       5.728   5.749  15.389  0.00  0.00    +0.000 NA
ATOM     15  C   UNL     1       6.908   5.192  15.720  0.00  0.00    +0.000 A 
ATOM     16  C   UNL     1       7.160   4.640  16.963  0.00  0.00    +0.000 A 
ATOM     17  C   UNL     1       6.166   4.690  17.936  0.00  0.00    +0.000 A 
BRANCH  16  18
ATOM     18  O   UNL     1       8.346   4.049  17.281  0.00  0.00    +0.000 OA
ATOM     19  H   UNL     1       8.173   3.266  17.832  0.00  0.00    +0.000 HD
ENDBRANCH  16  18
ENDBRANCH  10  12
BRANCH   8  20
ATOM     20  O   UNL     1       2.073   8.116  20.444  0.00  0.00    +0.000 OA
BRANCH  20  21
ATOM     21  C   UNL     1       0.696   8.520  20.380  0.00  0.00    +0.000 C 
ATOM     22  C   UNL     1       0.518   9.662  19.363  0.00  0.00    +0.000 C 
ATOM     23  C   UNL     1       0.319  10.932  20.185  0.00  0.00    +0.000 C 
ATOM     24  N   UNL     1      -0.255  10.451  21.420  0.00  0.00    +0.000 N 
ATOM     25  C   UNL     1      -1.007  11.134  22.359  0.00  0.00    +0.000 C 
ATOM     26  O   UNL     1      -1.383  10.599  23.400  0.00  0.00    +0.000 OA
ATOM     27  C   UNL     1       0.211   9.111  21.709  0.00  0.00    +0.000 C 
BRANCH  25  28
ATOM     28  C   UNL     1      -1.383  12.550  22.079  0.00  0.00    +0.000 C 
ATOM     29  C   UNL     1      -1.747  13.478  23.219  0.00  0.00    +0.000 C 
ATOM     30  C   UNL     1      -0.440  13.659  22.508  0.00  0.00    +0.000 C 
ENDBRANCH  25  28
ENDBRANCH  20  21
ENDBRANCH   8  20
TORSDOF 5
ENDMDL
MODEL 6
REMARK VINA RESULT:      -8.3      2.230      2.595
REMARK  Name = 
REMARK  5 active torsions:
REMARK  status: ('A' for Active; 'I' for Inactive)
REMARK    1  A    between atoms: C_8  and  O_9
REMARK    2  A    between atoms: O_9  and  C_10
REMARK    3  A    between atoms: C_14  and  C_16
REMARK    4  A    between atoms: C_21  and  C_22
REMARK    5  A    between atoms: C_26  and  O_27
REMARK                            x       y       z     vdW  Elec       q    Type
REMARK                         _______ _______ _______ _____ _____    ______ ____
ROOT
ATOM      1  O   UNL     1       1.105   3.206  20.051  0.00  0.00    +0.000 OA
ATOM      2  C   UNL     1       1.988   3.355  19.231  0.00  0.00    +0.000 C 
ATOM      3  N   UNL     1       2.672   2.373  18.559  0.00  0.00    +0.000 N 
ATOM      4  C   UNL     1       3.681   2.897  17.675  0.00  0.00    +0.000 C 
ATOM      5  C   UNL     1       3.560   4.381  17.854  0.00  0.00    +0.000 A 
ATOM      6  C   UNL     1       2.536   4.635  18.776  0.00  0.00    +0.000 A 
ATOM      7  C   UNL     1       2.131   5.902  19.156  0.00  0.00    +0.000 A 
ATOM      8  C   UNL     1       2.802   6.982  18.593  0.00  0.00    +0.000 A 
ATOM      9  C   UNL     1       3.836   6.741  17.654  0.00  0.00    +0.000 A 
ATOM     10  C   UNL     1       4.245   5.438  17.250  0.00  0.00    +0.000 A 
ATOM     11  H   UNL     1       2.504   1.393  18.745  0.00  0.00    +0.000 HD
ENDROOT
BRANCH  10  12
ATOM     12  C   UNL     1       5.299   5.248  16.223  0.00  0.00    +0.000 A 
ATOM     13  C   UNL     1       6.545   5.886  16.273  0.00  0.00    +0.000 A 
ATOM     14  N   UNL     1       7.573   5.697  15.403  0.00  0.00    +0.000 NA
ATOM     15  C   UNL     1       7.345   4.848  14.382  0.00  0.00    +0.000 A 
ATOM     16  C   UNL     1       6.139   4.196  14.198  0.00  0.00    +0.000 A 
ATOM     17  C   UNL     1       5.119   4.392  15.125  0.00  0.00    +0.000 A 
BRANCH  16  18
ATOM     18  O   UNL     1       5.903   3.364  13.146  0.00  0.00    +0.000 OA
ATOM     19  H   UNL     1       6.678   3.365  12.558  0.00  0.00    +0.000 HD
ENDBRANCH  16  18
ENDBRANCH  10  12
BRANCH   8  20
ATOM     20  O   UNL     1       2.554   8.309  18.868  0.00  0.00    +0.000 OA
BRANCH  20  21
ATOM     21  C   UNL     1       1.875   9.076  17.861  0.00  0.00    +0.000 C 
ATOM     22  C   UNL     1       2.127  10.580  18.069  0.00  0.00    +0.000 C 
ATOM     23  C   UNL     1       0.834  11.149  18.645  0.00  0.00    +0.000 C 
ATOM     24  N   UNL     1      -0.184  10.258  18.139  0.00  0.00    +0.000 N 
ATOM     25  C   UNL     1      -1.540  10.481  17.981  0.00  0.00    +0.000 C 
ATOM     26  O   UNL     1      -2.298   9.597  17.585  0.00  0.00    +0.000 OA
ATOM     27  C   UNL     1       0.352   8.926  17.957  0.00  0.00    +0.000 C 
BRANCH  25  28
ATOM     28  C   UNL     1      -2.081  11.839  18.277  0.00  0.00    +0.000 C 
ATOM     29  C   UNL     1      -3.518  12.002  18.725  0.00  0.00    +0.000 C 
ATOM     30  C   UNL     1      -2.409  12.200  19.714  0.00  0.00    +0.000 C 
ENDBRANCH  25  28
ENDBRANCH  20  21
ENDBRANCH   8  20
TORSDOF 5
ENDMDL
MODEL 7
REMARK VINA RESULT:      -8.3      2.103      2.434
REMARK  Name = 
REMARK  5 active torsions:
REMARK  status: ('A' for Active; 'I' for Inactive)
REMARK    1  A    between atoms: C_8  and  O_9
REMARK    2  A    between atoms: O_9  and  C_10
REMARK    3  A    between atoms: C_14  and  C_16
REMARK    4  A    between atoms: C_21  and  C_22
REMARK    5  A    between atoms: C_26  and  O_27
REMARK                            x       y       z     vdW  Elec       q    Type
REMARK                         _______ _______ _______ _____ _____    ______ ____
ROOT
ATOM      1  O   UNL     1       1.150   2.958  21.543  0.00  0.00    +0.000 OA
ATOM      2  C   UNL     1       2.004   3.094  20.690  0.00  0.00    +0.000 C 
ATOM      3  N   UNL     1       2.731   2.105  20.079  0.00  0.00    +0.000 N 
ATOM      4  C   UNL     1       3.686   2.616  19.129  0.00  0.00    +0.000 C 
ATOM      5  C   UNL     1       3.479   4.100  19.196  0.00  0.00    +0.000 A 
ATOM      6  C   UNL     1       2.462   4.365  20.122  0.00  0.00    +0.000 A 
ATOM      7  C   UNL     1       1.989   5.632  20.413  0.00  0.00    +0.000 A 
ATOM      8  C   UNL     1       2.580   6.702  19.750  0.00  0.00    +0.000 A 
ATOM      9  C   UNL     1       3.605   6.449  18.805  0.00  0.00    +0.000 A 
ATOM     10  C   UNL     1       4.084   5.144  18.493  0.00  0.00    +0.000 A 
ATOM     11  H   UNL     1       2.627   1.134  20.344  0.00  0.00    +0.000 HD
ENDROOT
BRANCH  10  12
ATOM     12  C   UNL     1       5.124   4.935  17.455  0.00  0.00    +0.000 A 
ATOM     13  C   UNL     1       6.498   5.000  17.721  0.00  0.00    +0.000 A 
ATOM     14  N   UNL     1       7.495   4.749  16.830  0.00  0.00    +0.000 NA
ATOM     15  C   UNL     1       7.114   4.453  15.573  0.00  0.00    +0.000 A 
ATOM     16  C   UNL     1       5.790   4.408  15.177  0.00  0.00    +0.000 A 
ATOM     17  C   UNL     1       4.795   4.642  16.123  0.00  0.00    +0.000 A 
BRANCH  16  18
ATOM     18  O   UNL     1       5.411   4.139  13.896  0.00  0.00    +0.000 OA
ATOM     19  H   UNL     1       5.932   3.389  13.561  0.00  0.00    +0.000 HD
ENDBRANCH  16  18
ENDBRANCH  10  12
BRANCH   8  20
ATOM     20  O   UNL     1       2.257   8.029  19.928  0.00  0.00    +0.000 OA
BRANCH  20  21
ATOM     21  C   UNL     1       0.882   8.342  20.206  0.00  0.00    +0.000 C 
ATOM     22  C   UNL     1       0.342   9.350  19.176  0.00  0.00    +0.000 C 
ATOM     23  C   UNL     1       0.260  10.690  19.900  0.00  0.00    +0.000 C 
ATOM     24  N   UNL     1       0.078  10.319  21.283  0.00  0.00    +0.000 N 
ATOM     25  C   UNL     1      -0.453  11.058  22.325  0.00  0.00    +0.000 C 
ATOM     26  O   UNL     1      -0.492  10.622  23.474  0.00  0.00    +0.000 OA
ATOM     27  C   UNL     1       0.719   9.050  21.556  0.00  0.00    +0.000 C 
BRANCH  25  28
ATOM     28  C   UNL     1      -1.012  12.409  22.030  0.00  0.00    +0.000 C 
ATOM     29  C   UNL     1      -1.098  13.451  23.125  0.00  0.00    +0.000 C 
ATOM     30  C   UNL     1      -0.080  13.606  22.035  0.00  0.00    +0.000 C 
ENDBRANCH  25  28
ENDBRANCH  20  21
ENDBRANCH   8  20
TORSDOF 5
ENDMDL
MODEL 8
REMARK VINA RESULT:      -8.3      1.568      1.992
REMARK  Name = 
REMARK  5 active torsions:
REMARK  status: ('A' for Active; 'I' for Inactive)
REMARK    1  A    between atoms: C_8  and  O_9
REMARK    2  A    between atoms: O_9  and  C_10
REMARK    3  A    between atoms: C_14  and  C_16
REMARK    4  A    between atoms: C_21  and  C_22
REMARK    5  A    between atoms: C_26  and  O_27
REMARK                            x       y       z     vdW  Elec       q    Type
REMARK                         _______ _______ _______ _____ _____    ______ ____
ROOT
ATOM      1  O   UNL     1       0.740   2.930  21.230  0.00  0.00    +0.000 OA
ATOM      2  C   UNL     1       1.649   3.134  20.449  0.00  0.00    +0.000 C 
ATOM      3  N   UNL     1       2.418   2.197  19.808  0.00  0.00    +0.000 N 
ATOM      4  C   UNL     1       3.432   2.782  18.969  0.00  0.00    +0.000 C 
ATOM      5  C   UNL     1       3.217   4.256  19.145  0.00  0.00    +0.000 A 
ATOM      6  C   UNL     1       2.139   4.446  20.020  0.00  0.00    +0.000 A 
ATOM      7  C   UNL     1       1.644   5.686  20.383  0.00  0.00    +0.000 A 
ATOM      8  C   UNL     1       2.275   6.805  19.852  0.00  0.00    +0.000 A 
ATOM      9  C   UNL     1       3.362   6.629  18.959  0.00  0.00    +0.000 A 
ATOM     10  C   UNL     1       3.864   5.354  18.573  0.00  0.00    +0.000 A 
ATOM     11  H   UNL     1       2.299   1.207  19.985  0.00  0.00    +0.000 HD
ENDROOT
BRANCH  10  12
ATOM     12  C   UNL     1       4.972   5.229  17.593  0.00  0.00    +0.000 A 
ATOM     13  C   UNL     1       4.879   5.672  16.268  0.00  0.00    +0.000 A 
ATOM     14  N   UNL     1       5.880   5.650  15.348  0.00  0.00    +0.000 NA
ATOM     15  C   UNL     1       7.048   5.111  15.747  0.00  0.00    +0.000 A 
ATOM     16  C   UNL     1       7.247   4.595  17.015  0.00  0.00    +0.000 A 
ATOM     17  C   UNL     1       6.208   4.662  17.939  0.00  0.00    +0.000 A 
BRANCH  16  18
ATOM     18  O   UNL     1       8.420   4.023  17.403  0.00  0.00    +0.000 OA
ATOM     19  H   UNL     1       8.883   3.682  16.619  0.00  0.00    +0.000 HD
ENDBRANCH  16  18
ENDBRANCH  10  12
BRANCH   8  20
ATOM     20  O   UNL     1       1.936   8.114  20.117  0.00  0.00    +0.000 OA
BRANCH  20  21
ATOM     21  C   UNL     1       1.039   8.762  19.201  0.00  0.00    +0.000 C 
ATOM     22  C   UNL     1       1.826   9.420  18.054  0.00  0.00    +0.000 C 
ATOM     23  C   UNL     1       1.806  10.919  18.332  0.00  0.00    +0.000 C 
ATOM     24  N   UNL     1       0.591  11.108  19.090  0.00  0.00    +0.000 N 
ATOM     25  C   UNL     1      -0.157  12.257  19.270  0.00  0.00    +0.000 C 
ATOM     26  O   UNL     1      -1.149  12.275  19.997  0.00  0.00    +0.000 OA
ATOM     27  C   UNL     1       0.286   9.922  19.863  0.00  0.00    +0.000 C 
BRANCH  25  28
ATOM     28  C   UNL     1       0.245  13.494  18.540  0.00  0.00    +0.000 C 
ATOM     29  C   UNL     1      -0.211  14.850  19.035  0.00  0.00    +0.000 C 
ATOM     30  C   UNL     1       1.224  14.448  19.198  0.00  0.00    +0.000 C 
ENDBRANCH  25  28
ENDBRANCH  20  21
ENDBRANCH   8  20
TORSDOF 5
ENDMDL
MODEL 9
REMARK VINA RESULT:      -8.2      1.986      2.103
REMARK  Name = 
REMARK  5 active torsions:
REMARK  status: ('A' for Active; 'I' for Inactive)
REMARK    1  A    between atoms: C_8  and  O_9
REMARK    2  A    between atoms: O_9  and  C_10
REMARK    3  A    between atoms: C_14  and  C_16
REMARK    4  A    between atoms: C_21  and  C_22
REMARK    5  A    between atoms: C_26  and  O_27
REMARK                            x       y       z     vdW  Elec       q    Type
REMARK                         _______ _______ _______ _____ _____    ______ ____
ROOT
ATOM      1  O   UNL     1       1.922   2.966  22.002  0.00  0.00    +0.000 OA
ATOM      2  C   UNL     1       2.699   3.210  21.100  0.00  0.00    +0.000 C 
ATOM      3  N   UNL     1       3.717   2.413  20.643  0.00  0.00    +0.000 N 
ATOM      4  C   UNL     1       4.468   3.020  19.575  0.00  0.00    +0.000 C 
ATOM      5  C   UNL     1       3.790   4.345  19.385  0.00  0.00    +0.000 A 
ATOM      6  C   UNL     1       2.728   4.434  20.295  0.00  0.00    +0.000 A 
ATOM      7  C   UNL     1       1.865   5.512  20.376  0.00  0.00    +0.000 A 
ATOM      8  C   UNL     1       2.088   6.574  19.507  0.00  0.00    +0.000 A 
ATOM      9  C   UNL     1       3.154   6.496  18.577  0.00  0.00    +0.000 A 
ATOM     10  C   UNL     1       4.034   5.381  18.481  0.00  0.00    +0.000 A 
ATOM     11  H   UNL     1       3.929   1.526  21.082  0.00  0.00    +0.000 HD
ENDROOT
BRANCH  10  12
ATOM     12  C   UNL     1       5.102   5.331  17.451  0.00  0.00    +0.000 A 
ATOM     13  C   UNL     1       6.192   6.211  17.431  0.00  0.00    +0.000 A 
ATOM     14  N   UNL     1       7.234   6.169  16.559  0.00  0.00    +0.000 NA
ATOM     15  C   UNL     1       7.181   5.218  15.607  0.00  0.00    +0.000 A 
ATOM     16  C   UNL     1       6.133   4.323  15.493  0.00  0.00    +0.000 A 
ATOM     17  C   UNL     1       5.097   4.376  16.422  0.00  0.00    +0.000 A 
BRANCH  16  18
ATOM     18  O   UNL     1       6.068   3.383  14.509  0.00  0.00    +0.000 OA
ATOM     19  H   UNL     1       6.955   3.011  14.365  0.00  0.00    +0.000 HD
ENDBRANCH  16  18
ENDBRANCH  10  12
BRANCH   8  20
ATOM     20  O   UNL     1       1.349   7.736  19.460  0.00  0.00    +0.000 OA
BRANCH  20  21
ATOM     21  C   UNL     1       1.740   8.803  20.339  0.00  0.00    +0.000 C 
ATOM     22  C   UNL     1       1.470   8.417  21.805  0.00  0.00    +0.000 C 
ATOM     23  C   UNL     1       0.237   9.208  22.229  0.00  0.00    +0.000 C 
ATOM     24  N   UNL     1       0.275  10.377  21.382  0.00  0.00    +0.000 N 
ATOM     25  C   UNL     1      -0.319  11.613  21.571  0.00  0.00    +0.000 C 
ATOM     26  O   UNL     1      -0.242  12.503  20.725  0.00  0.00    +0.000 OA
ATOM     27  C   UNL     1       0.901  10.066  20.115  0.00  0.00    +0.000 C 
BRANCH  25  28
ATOM     28  C   UNL     1      -1.048  11.868  22.847  0.00  0.00    +0.000 C 
ATOM     29  C   UNL     1      -1.620  13.240  23.132  0.00  0.00    +0.000 C 
ATOM     30  C   UNL     1      -2.545  12.108  22.801  0.00  0.00    +0.000 C 
ENDBRANCH  25  28
ENDBRANCH  20  21
ENDBRANCH   8  20
TORSDOF 5
ENDMDL
