MODEL 1
REMARK VINA RESULT:      -7.2      0.000      0.000
REMARK  Name = 
REMARK  10 active torsions:
REMARK  status: ('A' for Active; 'I' for Inactive)
REMARK    1  A    between atoms: C_2  and  C_3
REMARK    2  A    between atoms: C_3  and  O_4
REMARK    3  A    between atoms: O_4  and  C_5
REMARK    4  A    between atoms: C_9  and  C_10
REMARK    5  A    between atoms: C_11  and  C_12
REMARK    6  A    between atoms: C_12  and  C_14
REMARK    7  A    between atoms: C_19  and  O_20
REMARK    8  A    between atoms: N_23  and  C_24
REMARK    9  A    between atoms: C_24  and  C_25
REMARK   10  A    between atoms: C_25  and  N_26
REMARK                            x       y       z     vdW  Elec       q    Type
REMARK                         _______ _______ _______ _____ _____    ______ ____
ROOT
ATOM      1  C   UNL     1       2.730   5.961  17.997  0.00  0.00    +0.000 C 
ATOM      2  C   UNL     1       2.178   4.891  18.887  0.00  0.00    +0.000 C 
ATOM      3  C   UNL     1       1.743   5.364  20.064  0.00  0.00    +0.000 C 
ATOM      4  C   UNL     1       1.901   6.838  20.022  0.00  0.00    +0.000 C 
ATOM      5  O   UNL     1       1.614   7.609  20.918  0.00  0.00    +0.000 OA
ATOM      6  N   UNL     1       2.402   7.148  18.770  0.00  0.00    +0.000 N 
ENDROOT
BRANCH   1  11
ATOM      7  C   UNL     1       6.038   5.798  16.071  0.00  0.00    +0.000 A 
ATOM      8  C   UNL     1       6.972   5.843  17.101  0.00  0.00    +0.000 A 
ATOM      9  C   UNL     1       6.544   5.835  18.429  0.00  0.00    +0.000 A 
ATOM     10  C   UNL     1       5.182   5.850  18.731  0.00  0.00    +0.000 A 
ATOM     11  C   UNL     1       4.220   5.849  17.709  0.00  0.00    +0.000 A 
ATOM     12  C   UNL     1       4.677   5.789  16.380  0.00  0.00    +0.000 A 
BRANCH   7  13
ATOM     13  O   UNL     1       6.337   5.782  14.735  0.00  0.00    +0.000 OA
BRANCH  13  14
ATOM     14  C   UNL     1       6.811   4.530  14.242  0.00  0.00    +0.000 C 
BRANCH  14  16
ATOM     15  C   UNL     1       6.034   3.221  12.255  0.00  0.00    +0.000 C 
ATOM     16  C   UNL     1       5.764   3.956  13.342  0.00  0.00    +0.000 C 
ENDBRANCH  14  16
ENDBRANCH  13  14
ENDBRANCH   7  13
ENDBRANCH   1  11
BRANCH   2  17
ATOM     17  C   UNL     1       2.124   3.448  18.562  0.00  0.00    +0.000 C 
ATOM     18  O   UNL     1       1.192   3.062  17.849  0.00  0.00    +0.000 OA
BRANCH  17  19
ATOM     19  C   UNL     1       3.148   2.544  19.048  0.00  0.00    +0.000 A 
ATOM     20  C   UNL     1       3.688   1.410  18.474  0.00  0.00    +0.000 A 
ATOM     21  C   UNL     1       4.665   0.922  19.376  0.00  0.00    +0.000 A 
ATOM     22  C   UNL     1       4.674   1.793  20.437  0.00  0.00    +0.000 A 
ATOM     23  O   UNL     1       3.775   2.786  20.237  0.00  0.00    +0.000 OA
ENDBRANCH  17  19
ENDBRANCH   2  17
BRANCH   3  24
ATOM     24  O   UNL     1       1.235   4.678  21.131  0.00  0.00    +0.000 OA
ATOM     25  H   UNL     1       1.975   4.496  21.749  0.00  0.00    +0.000 HD
ENDBRANCH   3  24
BRANCH   6  26
ATOM     26  C   UNL     1       2.721   8.516  18.369  0.00  0.00    +0.000 C 
BRANCH  26  27
ATOM     27  C   UNL     1       1.490   9.391  18.059  0.00  0.00    +0.000 C 
BRANCH  27  28
ATOM     28  N   UNL     1       0.892  10.036  19.240  0.00  0.00    +0.000 NA
ATOM     29  C   UNL     1      -0.579  10.142  19.152  0.00  0.00    +0.000 C 
ATOM     30  C   UNL     1      -1.058  11.174  18.117  0.00  0.00    +0.000 C 
ATOM     31  O   UNL     1      -0.510  12.471  18.386  0.00  0.00    +0.000 OA
ATOM     32  C   UNL     1       0.921  12.430  18.416  0.00  0.00    +0.000 C 
ATOM     33  C   UNL     1       1.437  11.401  19.438  0.00  0.00    +0.000 C 
ENDBRANCH  27  28
ENDBRANCH  26  27
ENDBRANCH   6  26
TORSDOF 10
ENDMDL
MODEL 2
REMARK VINA RESULT:      -6.9      1.959      5.578
REMARK  Name = 
REMARK  10 active torsions:
REMARK  status: ('A' for Active; 'I' for Inactive)
REMARK    1  A    between atoms: C_2  and  C_3
REMARK    2  A    between atoms: C_3  and  O_4
REMARK    3  A    between atoms: O_4  and  C_5
REMARK    4  A    between atoms: C_9  and  C_10
REMARK    5  A    between atoms: C_11  and  C_12
REMARK    6  A    between atoms: C_12  and  C_14
REMARK    7  A    between atoms: C_19  and  O_20
REMARK    8  A    between atoms: N_23  and  C_24
REMARK    9  A    between atoms: C_24  and  C_25
REMARK   10  A    between atoms: C_25  and  N_26
REMARK                            x       y       z     vdW  Elec       q    Type
REMARK                         _______ _______ _______ _____ _____    ______ ____
ROOT
ATOM      1  C   UNL     1       4.928   5.609  18.313  0.00  0.00    +0.000 C 
ATOM      2  C   UNL     1       5.556   5.882  16.980  0.00  0.00    +0.000 C 
ATOM      3  C   UNL     1       4.865   6.769  16.250  0.00  0.00    +0.000 C 
ATOM      4  C   UNL     1       3.735   7.233  17.090  0.00  0.00    +0.000 C 
ATOM      5  O   UNL     1       2.888   8.042  16.760  0.00  0.00    +0.000 OA
ATOM      6  N   UNL     1       3.858   6.592  18.312  0.00  0.00    +0.000 N 
ENDROOT
BRANCH   1  11
ATOM      7  C   UNL     1       3.583   2.442  19.999  0.00  0.00    +0.000 A 
ATOM      8  C   UNL     1       3.268   1.646  18.903  0.00  0.00    +0.000 A 
ATOM      9  C   UNL     1       3.570   2.085  17.614  0.00  0.00    +0.000 A 
ATOM     10  C   UNL     1       4.125   3.349  17.411  0.00  0.00    +0.000 A 
ATOM     11  C   UNL     1       4.412   4.189  18.498  0.00  0.00    +0.000 A 
ATOM     12  C   UNL     1       4.161   3.696  19.792  0.00  0.00    +0.000 A 
BRANCH   7  13
ATOM     13  O   UNL     1       3.355   2.111  21.308  0.00  0.00    +0.000 OA
BRANCH  13  14
ATOM     14  C   UNL     1       2.313   2.851  21.940  0.00  0.00    +0.000 C 
BRANCH  14  16
ATOM     15  C   UNL     1       0.691   4.000  20.417  0.00  0.00    +0.000 C 
ATOM     16  C   UNL     1       1.138   2.887  21.016  0.00  0.00    +0.000 C 
ENDBRANCH  14  16
ENDBRANCH  13  14
ENDBRANCH   7  13
ENDBRANCH   1  11
BRANCH   2  17
ATOM     17  C   UNL     1       6.787   5.243  16.465  0.00  0.00    +0.000 C 
ATOM     18  O   UNL     1       7.704   5.048  17.270  0.00  0.00    +0.000 OA
BRANCH  17  19
ATOM     19  C   UNL     1       6.884   4.845  15.074  0.00  0.00    +0.000 A 
ATOM     20  C   UNL     1       6.210   3.864  14.373  0.00  0.00    +0.000 A 
ATOM     21  C   UNL     1       6.684   3.917  13.040  0.00  0.00    +0.000 A 
ATOM     22  C   UNL     1       7.606   4.934  13.002  0.00  0.00    +0.000 A 
ATOM     23  O   UNL     1       7.717   5.512  14.221  0.00  0.00    +0.000 OA
ENDBRANCH  17  19
ENDBRANCH   2  17
BRANCH   3  24
ATOM     24  O   UNL     1       5.106   7.211  14.980  0.00  0.00    +0.000 OA
ATOM     25  H   UNL     1       4.578   6.657  14.366  0.00  0.00    +0.000 HD
ENDBRANCH   3  24
BRANCH   6  26
ATOM     26  C   UNL     1       2.897   6.777  19.396  0.00  0.00    +0.000 C 
BRANCH  26  27
ATOM     27  C   UNL     1       2.411   8.228  19.575  0.00  0.00    +0.000 C 
BRANCH  27  28
ATOM     28  N   UNL     1       1.001   8.350  19.980  0.00  0.00    +0.000 NA
ATOM     29  C   UNL     1       0.436   9.686  19.697  0.00  0.00    +0.000 C 
ATOM     30  C   UNL     1       0.987  10.791  20.613  0.00  0.00    +0.000 C 
ATOM     31  O   UNL     1       0.771  10.476  21.994  0.00  0.00    +0.000 OA
ATOM     32  C   UNL     1       1.361   9.215  22.333  0.00  0.00    +0.000 C 
ATOM     33  C   UNL     1       0.836   8.085  21.430  0.00  0.00    +0.000 C 
ENDBRANCH  27  28
ENDBRANCH  26  27
ENDBRANCH   6  26
TORSDOF 10
ENDMDL
MODEL 3
REMARK VINA RESULT:      -6.8      7.166     10.344
REMARK  Name = 
REMARK  10 active torsions:
REMARK  status: ('A' for Active; 'I' for Inactive)
REMARK    1  A    between atoms: C_2  and  C_3
REMARK    2  A    between atoms: C_3  and  O_4
REMARK    3  A    between atoms: O_4  and  C_5
REMARK    4  A    between atoms: C_9  and  C_10
REMARK    5  A    between atoms: C_11  and  C_12
REMARK    6  A    between atoms: C_12  and  C_14
REMARK    7  A    between atoms: C_19  and  O_20
REMARK    8  A    between atoms: N_23  and  C_24
REMARK    9  A    between atoms: C_24  and  C_25
REMARK   10  A    between atoms: C_25  and  N_26
REMARK                            x       y       z     vdW  Elec       q    Type
REMARK                         _______ _______ _______ _____ _____    ______ ____
ROOT
ATOM      1  C   UNL     1      -2.002  13.402  22.340  0.00  0.00    +0.000 C 
ATOM      2  C   UNL     1      -3.037  13.479  23.419  0.00  0.00    +0.000 C 
ATOM      3  C   UNL     1      -2.637  14.197  24.477  0.00  0.00    +0.000 C 
ATOM      4  C   UNL     1      -1.296  14.740  24.149  0.00  0.00    +0.000 C 
ATOM      5  O   UNL     1      -0.615  15.440  24.874  0.00  0.00    +0.000 OA
ATOM      6  N   UNL     1      -1.002  14.319  22.863  0.00  0.00    +0.000 N 
ENDROOT
BRANCH   1  11
ATOM      7  C   UNL     1      -0.524  10.374  20.517  0.00  0.00    +0.000 A 
ATOM      8  C   UNL     1      -0.211   9.527  21.576  0.00  0.00    +0.000 A 
ATOM      9  C   UNL     1      -0.555   9.886  22.878  0.00  0.00    +0.000 A 
ATOM     10  C   UNL     1      -1.153  11.120  23.136  0.00  0.00    +0.000 A 
ATOM     11  C   UNL     1      -1.439  12.010  22.090  0.00  0.00    +0.000 A 
ATOM     12  C   UNL     1      -1.143  11.597  20.778  0.00  0.00    +0.000 A 
BRANCH   7  13
ATOM     13  O   UNL     1      -0.255  10.122  19.198  0.00  0.00    +0.000 OA
BRANCH  13  14
ATOM     14  C   UNL     1      -1.029  10.881  18.272  0.00  0.00    +0.000 C 
BRANCH  14  16
ATOM     15  C   UNL     1      -3.083   9.828  17.302  0.00  0.00    +0.000 C 
ATOM     16  C   UNL     1      -1.749   9.928  17.372  0.00  0.00    +0.000 C 
ENDBRANCH  14  16
ENDBRANCH  13  14
ENDBRANCH   7  13
ENDBRANCH   1  11
BRANCH   2  17
ATOM     17  C   UNL     1      -4.364  12.823  23.383  0.00  0.00    +0.000 C 
ATOM     18  O   UNL     1      -4.675  12.120  24.350  0.00  0.00    +0.000 OA
BRANCH  17  19
ATOM     19  C   UNL     1      -5.259  13.031  22.262  0.00  0.00    +0.000 A 
ATOM     20  C   UNL     1      -6.284  13.941  22.090  0.00  0.00    +0.000 A 
ATOM     21  C   UNL     1      -6.818  13.713  20.798  0.00  0.00    +0.000 A 
ATOM     22  C   UNL     1      -6.081  12.691  20.254  0.00  0.00    +0.000 A 
ATOM     23  O   UNL     1      -5.124  12.288  21.123  0.00  0.00    +0.000 OA
ENDBRANCH  17  19
ENDBRANCH   2  17
BRANCH   3  24
ATOM     24  O   UNL     1      -3.289  14.432  25.655  0.00  0.00    +0.000 OA
ATOM     25  H   UNL     1      -2.611  14.528  26.358  0.00  0.00    +0.000 HD
ENDBRANCH   3  24
BRANCH   6  26
ATOM     26  C   UNL     1       0.262  14.635  22.203  0.00  0.00    +0.000 C 
BRANCH  26  27
ATOM     27  C   UNL     1       0.146  15.674  21.070  0.00  0.00    +0.000 C 
BRANCH  27  28
ATOM     28  N   UNL     1       0.046  15.093  19.722  0.00  0.00    +0.000 NA
ATOM     29  C   UNL     1       1.163  14.178  19.407  0.00  0.00    +0.000 C 
ATOM     30  C   UNL     1       2.505  14.899  19.198  0.00  0.00    +0.000 C 
ATOM     31  O   UNL     1       2.407  15.889  18.166  0.00  0.00    +0.000 OA
ATOM     32  C   UNL     1       1.377  16.840  18.460  0.00  0.00    +0.000 C 
ATOM     33  C   UNL     1       0.018  16.152  18.683  0.00  0.00    +0.000 C 
ENDBRANCH  27  28
ENDBRANCH  26  27
ENDBRANCH   6  26
TORSDOF 10
ENDMDL
MODEL 4
REMARK VINA RESULT:      -6.7      2.134      5.396
REMARK  Name = 
REMARK  10 active torsions:
REMARK  status: ('A' for Active; 'I' for Inactive)
REMARK    1  A    between atoms: C_2  and  C_3
REMARK    2  A    between atoms: C_3  and  O_4
REMARK    3  A    between atoms: O_4  and  C_5
REMARK    4  A    between atoms: C_9  and  C_10
REMARK    5  A    between atoms: C_11  and  C_12
REMARK    6  A    between atoms: C_12  and  C_14
REMARK    7  A    between atoms: C_19  and  O_20
REMARK    8  A    between atoms: N_23  and  C_24
REMARK    9  A    between atoms: C_24  and  C_25
REMARK   10  A    between atoms: C_25  and  N_26
REMARK                            x       y       z     vdW  Elec       q    Type
REMARK                         _______ _______ _______ _____ _____    ______ ____
ROOT
ATOM      1  C   UNL     1       4.284   5.829  19.086  0.00  0.00    +0.000 C 
ATOM      2  C   UNL     1       4.873   6.303  17.793  0.00  0.00    +0.000 C 
ATOM      3  C   UNL     1       4.035   7.079  17.091  0.00  0.00    +0.000 C 
ATOM      4  C   UNL     1       2.816   7.256  17.917  0.00  0.00    +0.000 C 
ATOM      5  O   UNL     1       1.832   7.899  17.603  0.00  0.00    +0.000 OA
ATOM      6  N   UNL     1       3.039   6.579  19.104  0.00  0.00    +0.000 N 
ENDROOT
BRANCH   1  11
ATOM      7  C   UNL     1       4.545   2.199  20.283  0.00  0.00    +0.000 A 
ATOM      8  C   UNL     1       3.553   1.577  19.531  0.00  0.00    +0.000 A 
ATOM      9  C   UNL     1       2.853   2.303  18.568  0.00  0.00    +0.000 A 
ATOM     10  C   UNL     1       3.094   3.667  18.398  0.00  0.00    +0.000 A 
ATOM     11  C   UNL     1       4.060   4.327  19.174  0.00  0.00    +0.000 A 
ATOM     12  C   UNL     1       4.799   3.558  20.093  0.00  0.00    +0.000 A 
BRANCH   7  13
ATOM     13  O   UNL     1       5.309   1.587  21.240  0.00  0.00    +0.000 OA
BRANCH  13  14
ATOM     14  C   UNL     1       5.524   0.192  21.035  0.00  0.00    +0.000 C 
BRANCH  14  16
ATOM     15  C   UNL     1       7.196  -1.311  22.135  0.00  0.00    +0.000 C 
ATOM     16  C   UNL     1       6.272  -0.344  22.213  0.00  0.00    +0.000 C 
ENDBRANCH  14  16
ENDBRANCH  13  14
ENDBRANCH   7  13
ENDBRANCH   1  11
BRANCH   2  17
ATOM     17  C   UNL     1       6.218   5.955  17.285  0.00  0.00    +0.000 C 
ATOM     18  O   UNL     1       7.188   6.276  17.980  0.00  0.00    +0.000 OA
BRANCH  17  19
ATOM     19  C   UNL     1       6.371   5.243  16.031  0.00  0.00    +0.000 A 
ATOM     20  C   UNL     1       5.704   4.138  15.541  0.00  0.00    +0.000 A 
ATOM     21  C   UNL     1       6.243   3.871  14.259  0.00  0.00    +0.000 A 
ATOM     22  C   UNL     1       7.194   4.836  14.036  0.00  0.00    +0.000 A 
ATOM     23  O   UNL     1       7.263   5.680  15.093  0.00  0.00    +0.000 OA
ENDBRANCH  17  19
ENDBRANCH   2  17
BRANCH   3  24
ATOM     24  O   UNL     1       4.210   7.637  15.856  0.00  0.00    +0.000 OA
ATOM     25  H   UNL     1       3.537   7.252  15.256  0.00  0.00    +0.000 HD
ENDBRANCH   3  24
BRANCH   6  26
ATOM     26  C   UNL     1       2.037   6.501  20.163  0.00  0.00    +0.000 C 
BRANCH  26  27
ATOM     27  C   UNL     1       1.792   7.829  20.907  0.00  0.00    +0.000 C 
BRANCH  27  28
ATOM     28  N   UNL     1       0.439   8.381  20.734  0.00  0.00    +0.000 NA
ATOM     29  C   UNL     1       0.445   9.750  20.178  0.00  0.00    +0.000 C 
ATOM     30  C   UNL     1       0.951  10.811  21.169  0.00  0.00    +0.000 C 
ATOM     31  O   UNL     1       0.181  10.801  22.379  0.00  0.00    +0.000 OA
ATOM     32  C   UNL     1       0.200   9.505  22.990  0.00  0.00    +0.000 C 
ATOM     33  C   UNL     1      -0.294   8.416  22.022  0.00  0.00    +0.000 C 
ENDBRANCH  27  28
ENDBRANCH  26  27
ENDBRANCH   6  26
TORSDOF 10
ENDMDL
MODEL 5
REMARK VINA RESULT:      -6.7      3.580      6.615
REMARK  Name = 
REMARK  10 active torsions:
REMARK  status: ('A' for Active; 'I' for Inactive)
REMARK    1  A    between atoms: C_2  and  C_3
REMARK    2  A    between atoms: C_3  and  O_4
REMARK    3  A    between atoms: O_4  and  C_5
REMARK    4  A    between atoms: C_9  and  C_10
REMARK    5  A    between atoms: C_11  and  C_12
REMARK    6  A    between atoms: C_12  and  C_14
REMARK    7  A    between atoms: C_19  and  O_20
REMARK    8  A    between atoms: N_23  and  C_24
REMARK    9  A    between atoms: C_24  and  C_25
REMARK   10  A    between atoms: C_25  and  N_26
REMARK                            x       y       z     vdW  Elec       q    Type
REMARK                         _______ _______ _______ _____ _____    ______ ____
ROOT
ATOM      1  C   UNL     1       5.399   5.772  16.600  0.00  0.00    +0.000 C 
ATOM      2  C   UNL     1       5.809   4.634  15.717  0.00  0.00    +0.000 C 
ATOM      3  C   UNL     1       5.312   3.456  16.120  0.00  0.00    +0.000 C 
ATOM      4  C   UNL     1       4.443   3.731  17.290  0.00  0.00    +0.000 C 
ATOM      5  O   UNL     1       3.823   2.899  17.926  0.00  0.00    +0.000 OA
ATOM      6  N   UNL     1       4.459   5.102  17.483  0.00  0.00    +0.000 N 
ENDROOT
BRANCH   1  11
ATOM      7  C   UNL     1       7.802   8.462  17.892  0.00  0.00    +0.000 A 
ATOM      8  C   UNL     1       8.502   7.772  18.878  0.00  0.00    +0.000 A 
ATOM      9  C   UNL     1       8.268   6.411  19.073  0.00  0.00    +0.000 A 
ATOM     10  C   UNL     1       7.288   5.750  18.331  0.00  0.00    +0.000 A 
ATOM     11  C   UNL     1       6.540   6.434  17.361  0.00  0.00    +0.000 A 
ATOM     12  C   UNL     1       6.840   7.790  17.137  0.00  0.00    +0.000 A 
BRANCH   7  13
ATOM     13  O   UNL     1       7.959   9.790  17.596  0.00  0.00    +0.000 OA
BRANCH  13  14
ATOM     14  C   UNL     1       9.034  10.433  18.278  0.00  0.00    +0.000 C 
BRANCH  14  16
ATOM     15  C   UNL     1       9.938  12.767  18.315  0.00  0.00    +0.000 C 
ATOM     16  C   UNL     1       9.005  11.887  17.928  0.00  0.00    +0.000 C 
ENDBRANCH  14  16
ENDBRANCH  13  14
ENDBRANCH   7  13
ENDBRANCH   1  11
BRANCH   2  17
ATOM     17  C   UNL     1       6.691   4.740  14.534  0.00  0.00    +0.000 C 
ATOM     18  O   UNL     1       7.721   5.412  14.653  0.00  0.00    +0.000 OA
BRANCH  17  19
ATOM     19  C   UNL     1       6.356   4.056  13.301  0.00  0.00    +0.000 A 
ATOM     20  C   UNL     1       7.171   3.553  12.305  0.00  0.00    +0.000 A 
ATOM     21  C   UNL     1       6.318   2.970  11.336  0.00  0.00    +0.000 A 
ATOM     22  C   UNL     1       5.038   3.139  11.803  0.00  0.00    +0.000 A 
ATOM     23  O   UNL     1       5.054   3.775  12.998  0.00  0.00    +0.000 OA
ENDBRANCH  17  19
ENDBRANCH   2  17
BRANCH   3  24
ATOM     24  O   UNL     1       5.518   2.211  15.596  0.00  0.00    +0.000 OA
ATOM     25  H   UNL     1       4.661   1.733  15.615  0.00  0.00    +0.000 HD
ENDBRANCH   3  24
BRANCH   6  26
ATOM     26  C   UNL     1       3.737   5.749  18.575  0.00  0.00    +0.000 C 
BRANCH  26  27
ATOM     27  C   UNL     1       3.720   4.947  19.891  0.00  0.00    +0.000 C 
BRANCH  27  28
ATOM     28  N   UNL     1       2.461   5.047  20.647  0.00  0.00    +0.000 NA
ATOM     29  C   UNL     1       2.375   4.066  21.749  0.00  0.00    +0.000 C 
ATOM     30  C   UNL     1       2.185   2.619  21.266  0.00  0.00    +0.000 C 
ATOM     31  O   UNL     1       1.021   2.496  20.438  0.00  0.00    +0.000 OA
ATOM     32  C   UNL     1       1.091   3.384  19.317  0.00  0.00    +0.000 C 
ATOM     33  C   UNL     1       1.288   4.844  19.763  0.00  0.00    +0.000 C 
ENDBRANCH  27  28
ENDBRANCH  26  27
ENDBRANCH   6  26
TORSDOF 10
ENDMDL
MODEL 6
REMARK VINA RESULT:      -6.6      1.867      5.531
REMARK  Name = 
REMARK  10 active torsions:
REMARK  status: ('A' for Active; 'I' for Inactive)
REMARK    1  A    between atoms: C_2  and  C_3
REMARK    2  A    between atoms: C_3  and  O_4
REMARK    3  A    between atoms: O_4  and  C_5
REMARK    4  A    between atoms: C_9  and  C_10
REMARK    5  A    between atoms: C_11  and  C_12
REMARK    6  A    between atoms: C_12  and  C_14
REMARK    7  A    between atoms: C_19  and  O_20
REMARK    8  A    between atoms: N_23  and  C_24
REMARK    9  A    between atoms: C_24  and  C_25
REMARK   10  A    between atoms: C_25  and  N_26
REMARK                            x       y       z     vdW  Elec       q    Type
REMARK                         _______ _______ _______ _____ _____    ______ ____
ROOT
ATOM      1  C   UNL     1       5.033   5.543  18.331  0.00  0.00    +0.000 C 
ATOM      2  C   UNL     1       5.622   5.810  16.981  0.00  0.00    +0.000 C 
ATOM      3  C   UNL     1       4.934   6.724  16.282  0.00  0.00    +0.000 C 
ATOM      4  C   UNL     1       3.846   7.213  17.164  0.00  0.00    +0.000 C 
ATOM      5  O   UNL     1       3.013   8.048  16.869  0.00  0.00    +0.000 OA
ATOM      6  N   UNL     1       3.993   6.557  18.375  0.00  0.00    +0.000 N 
ENDROOT
BRANCH   1  11
ATOM      7  C   UNL     1       3.622   2.414  20.032  0.00  0.00    +0.000 A 
ATOM      8  C   UNL     1       3.277   1.624  18.940  0.00  0.00    +0.000 A 
ATOM      9  C   UNL     1       3.579   2.055  17.648  0.00  0.00    +0.000 A 
ATOM     10  C   UNL     1       4.165   3.304  17.439  0.00  0.00    +0.000 A 
ATOM     11  C   UNL     1       4.482   4.137  18.522  0.00  0.00    +0.000 A 
ATOM     12  C   UNL     1       4.229   3.652  19.819  0.00  0.00    +0.000 A 
BRANCH   7  13
ATOM     13  O   UNL     1       3.395   2.089  21.343  0.00  0.00    +0.000 OA
BRANCH  13  14
ATOM     14  C   UNL     1       2.079   2.373  21.812  0.00  0.00    +0.000 C 
BRANCH  14  16
ATOM     15  C   UNL     1       0.735   3.934  20.389  0.00  0.00    +0.000 C 
ATOM     16  C   UNL     1       1.686   3.726  21.310  0.00  0.00    +0.000 C 
ENDBRANCH  14  16
ENDBRANCH  13  14
ENDBRANCH   7  13
ENDBRANCH   1  11
BRANCH   2  17
ATOM     17  C   UNL     1       6.816   5.141  16.418  0.00  0.00    +0.000 C 
ATOM     18  O   UNL     1       7.743   4.888  17.194  0.00  0.00    +0.000 OA
BRANCH  17  19
ATOM     19  C   UNL     1       6.867   4.781  15.014  0.00  0.00    +0.000 A 
ATOM     20  C   UNL     1       6.171   3.816  14.311  0.00  0.00    +0.000 A 
ATOM     21  C   UNL     1       6.598   3.907  12.964  0.00  0.00    +0.000 A 
ATOM     22  C   UNL     1       7.515   4.928  12.921  0.00  0.00    +0.000 A 
ATOM     23  O   UNL     1       7.667   5.474  14.152  0.00  0.00    +0.000 OA
ENDBRANCH  17  19
ENDBRANCH   2  17
BRANCH   3  24
ATOM     24  O   UNL     1       5.144   7.170  15.008  0.00  0.00    +0.000 OA
ATOM     25  H   UNL     1       4.565   7.949  14.865  0.00  0.00    +0.000 HD
ENDBRANCH   3  24
BRANCH   6  26
ATOM     26  C   UNL     1       3.075   6.759  19.493  0.00  0.00    +0.000 C 
BRANCH  26  27
ATOM     27  C   UNL     1       1.919   7.736  19.199  0.00  0.00    +0.000 C 
BRANCH  27  28
ATOM     28  N   UNL     1       1.939   8.961  20.015  0.00  0.00    +0.000 NA
ATOM     29  C   UNL     1       1.348   8.766  21.356  0.00  0.00    +0.000 C 
ATOM     30  C   UNL     1      -0.178   8.585  21.332  0.00  0.00    +0.000 C 
ATOM     31  O   UNL     1      -0.823   9.695  20.694  0.00  0.00    +0.000 OA
ATOM     32  C   UNL     1      -0.328   9.883  19.363  0.00  0.00    +0.000 C 
ATOM     33  C   UNL     1       1.200  10.061  19.348  0.00  0.00    +0.000 C 
ENDBRANCH  27  28
ENDBRANCH  26  27
ENDBRANCH   6  26
TORSDOF 10
ENDMDL
MODEL 7
REMARK VINA RESULT:      -6.6      1.530      2.691
REMARK  Name = 
REMARK  10 active torsions:
REMARK  status: ('A' for Active; 'I' for Inactive)
REMARK    1  A    between atoms: C_2  and  C_3
REMARK    2  A    between atoms: C_3  and  O_4
REMARK    3  A    between atoms: O_4  and  C_5
REMARK    4  A    between atoms: C_9  and  C_10
REMARK    5  A    between atoms: C_11  and  C_12
REMARK    6  A    between atoms: C_12  and  C_14
REMARK    7  A    between atoms: C_19  and  O_20
REMARK    8  A    between atoms: N_23  and  C_24
REMARK    9  A    between atoms: C_24  and  C_25
REMARK   10  A    between atoms: C_25  and  N_26
REMARK                            x       y       z     vdW  Elec       q    Type
REMARK                         _______ _______ _______ _____ _____    ______ ____
ROOT
ATOM      1  C   UNL     1       2.704   6.190  17.724  0.00  0.00    +0.000 C 
ATOM      2  C   UNL     1       2.256   5.145  18.699  0.00  0.00    +0.000 C 
ATOM      3  C   UNL     1       2.003   5.643  19.918  0.00  0.00    +0.000 C 
ATOM      4  C   UNL     1       2.189   7.111  19.832  0.00  0.00    +0.000 C 
ATOM      5  O   UNL     1       2.050   7.900  20.747  0.00  0.00    +0.000 OA
ATOM      6  N   UNL     1       2.517   7.394  18.517  0.00  0.00    +0.000 N 
ENDROOT
BRANCH   1  11
ATOM      7  C   UNL     1       6.511   6.561  17.502  0.00  0.00    +0.000 A 
ATOM      8  C   UNL     1       6.831   5.643  16.506  0.00  0.00    +0.000 A 
ATOM      9  C   UNL     1       5.815   4.963  15.835  0.00  0.00    +0.000 A 
ATOM     10  C   UNL     1       4.481   5.147  16.202  0.00  0.00    +0.000 A 
ATOM     11  C   UNL     1       4.136   6.034  17.232  0.00  0.00    +0.000 A 
ATOM     12  C   UNL     1       5.173   6.759  17.848  0.00  0.00    +0.000 A 
BRANCH   7  13
ATOM     13  O   UNL     1       7.417   7.301  18.214  0.00  0.00    +0.000 OA
BRANCH  13  14
ATOM     14  C   UNL     1       7.861   8.491  17.565  0.00  0.00    +0.000 C 
BRANCH  14  16
ATOM     15  C   UNL     1       9.201  10.478  18.289  0.00  0.00    +0.000 C 
ATOM     16  C   UNL     1       8.531   9.356  18.584  0.00  0.00    +0.000 C 
ENDBRANCH  14  16
ENDBRANCH  13  14
ENDBRANCH   7  13
ENDBRANCH   1  11
BRANCH   2  17
ATOM     17  C   UNL     1       2.121   3.701  18.407  0.00  0.00    +0.000 C 
ATOM     18  O   UNL     1       1.169   3.351  17.701  0.00  0.00    +0.000 OA
BRANCH  17  19
ATOM     19  C   UNL     1       3.093   2.752  18.915  0.00  0.00    +0.000 A 
ATOM     20  C   UNL     1       3.519   1.544  18.399  0.00  0.00    +0.000 A 
ATOM     21  C   UNL     1       4.493   1.040  19.295  0.00  0.00    +0.000 A 
ATOM     22  C   UNL     1       4.615   1.974  20.294  0.00  0.00    +0.000 A 
ATOM     23  O   UNL     1       3.787   3.020  20.060  0.00  0.00    +0.000 OA
ENDBRANCH  17  19
ENDBRANCH   2  17
BRANCH   3  24
ATOM     24  O   UNL     1       1.632   4.983  21.056  0.00  0.00    +0.000 OA
ATOM     25  H   UNL     1       1.877   4.039  20.947  0.00  0.00    +0.000 HD
ENDBRANCH   3  24
BRANCH   6  26
ATOM     26  C   UNL     1       2.810   8.748  18.054  0.00  0.00    +0.000 C 
BRANCH  26  27
ATOM     27  C   UNL     1       1.569   9.648  17.894  0.00  0.00    +0.000 C 
BRANCH  27  28
ATOM     28  N   UNL     1       1.126  10.299  19.138  0.00  0.00    +0.000 NA
ATOM     29  C   UNL     1      -0.345  10.339  19.272  0.00  0.00    +0.000 C 
ATOM     30  C   UNL     1      -1.021  11.320  18.301  0.00  0.00    +0.000 C 
ATOM     31  O   UNL     1      -0.501  12.647  18.456  0.00  0.00    +0.000 OA
ATOM     32  C   UNL     1       0.919  12.668  18.268  0.00  0.00    +0.000 C 
ATOM     33  C   UNL     1       1.630  11.691  19.221  0.00  0.00    +0.000 C 
ENDBRANCH  27  28
ENDBRANCH  26  27
ENDBRANCH   6  26
TORSDOF 10
ENDMDL
MODEL 8
REMARK VINA RESULT:      -6.6      0.637      1.098
REMARK  Name = 
REMARK  10 active torsions:
REMARK  status: ('A' for Active; 'I' for Inactive)
REMARK    1  A    between atoms: C_2  and  C_3
REMARK    2  A    between atoms: C_3  and  O_4
REMARK    3  A    between atoms: O_4  and  C_5
REMARK    4  A    between atoms: C_9  and  C_10
REMARK    5  A    between atoms: C_11  and  C_12
REMARK    6  A    between atoms: C_12  and  C_14
REMARK    7  A    between atoms: C_19  and  O_20
REMARK    8  A    between atoms: N_23  and  C_24
REMARK    9  A    between atoms: C_24  and  C_25
REMARK   10  A    between atoms: C_25  and  N_26
REMARK                            x       y       z     vdW  Elec       q    Type
REMARK                         _______ _______ _______ _____ _____    ______ ____
ROOT
ATOM      1  C   UNL     1       2.837   5.757  17.805  0.00  0.00    +0.000 C 
ATOM      2  C   UNL     1       2.302   4.735  18.759  0.00  0.00    +0.000 C 
ATOM      3  C   UNL     1       1.848   5.273  19.900  0.00  0.00    +0.000 C 
ATOM      4  C   UNL     1       1.974   6.744  19.764  0.00  0.00    +0.000 C 
ATOM      5  O   UNL     1       1.664   7.566  20.606  0.00  0.00    +0.000 OA
ATOM      6  N   UNL     1       2.479   6.984  18.497  0.00  0.00    +0.000 N 
ENDROOT
BRANCH   1  11
ATOM      7  C   UNL     1       6.159   5.481  15.915  0.00  0.00    +0.000 A 
ATOM      8  C   UNL     1       7.086   5.669  16.936  0.00  0.00    +0.000 A 
ATOM      9  C   UNL     1       6.651   5.795  18.255  0.00  0.00    +0.000 A 
ATOM     10  C   UNL     1       5.288   5.803  18.551  0.00  0.00    +0.000 A 
ATOM     11  C   UNL     1       4.332   5.659  17.534  0.00  0.00    +0.000 A 
ATOM     12  C   UNL     1       4.797   5.465  16.220  0.00  0.00    +0.000 A 
BRANCH   7  13
ATOM     13  O   UNL     1       6.465   5.325  14.590  0.00  0.00    +0.000 OA
BRANCH  13  14
ATOM     14  C   UNL     1       6.486   3.974  14.134  0.00  0.00    +0.000 C 
BRANCH  14  16
ATOM     15  C   UNL     1       5.816   2.914  11.968  0.00  0.00    +0.000 C 
ATOM     16  C   UNL     1       5.689   3.894  12.872  0.00  0.00    +0.000 C 
ENDBRANCH  14  16
ENDBRANCH  13  14
ENDBRANCH   7  13
ENDBRANCH   1  11
BRANCH   2  17
ATOM     17  C   UNL     1       2.281   3.273  18.528  0.00  0.00    +0.000 C 
ATOM     18  O   UNL     1       1.383   2.826  17.807  0.00  0.00    +0.000 OA
BRANCH  17  19
ATOM     19  C   UNL     1       3.298   2.421  19.112  0.00  0.00    +0.000 A 
ATOM     20  C   UNL     1       3.896   1.276  18.623  0.00  0.00    +0.000 A 
ATOM     21  C   UNL     1       4.833   0.856  19.599  0.00  0.00    +0.000 A 
ATOM     22  C   UNL     1       4.762   1.775  20.616  0.00  0.00    +0.000 A 
ATOM     23  O   UNL     1       3.852   2.734  20.321  0.00  0.00    +0.000 OA
ENDBRANCH  17  19
ENDBRANCH   2  17
BRANCH   3  24
ATOM     24  O   UNL     1       1.347   4.647  21.006  0.00  0.00    +0.000 OA
ATOM     25  H   UNL     1       1.891   3.847  21.169  0.00  0.00    +0.000 HD
ENDBRANCH   3  24
BRANCH   6  26
ATOM     26  C   UNL     1       2.771   8.330  18.009  0.00  0.00    +0.000 C 
BRANCH  26  27
ATOM     27  C   UNL     1       2.205   9.462  18.890  0.00  0.00    +0.000 C 
BRANCH  27  28
ATOM     28  N   UNL     1       1.379  10.440  18.163  0.00  0.00    +0.000 NA
ATOM     29  C   UNL     1       1.563  11.822  18.654  0.00  0.00    +0.000 C 
ATOM     30  C   UNL     1       0.953  12.063  20.044  0.00  0.00    +0.000 C 
ATOM     31  O   UNL     1      -0.444  11.743  20.062  0.00  0.00    +0.000 OA
ATOM     32  C   UNL     1      -0.666  10.387  19.655  0.00  0.00    +0.000 C 
ATOM     33  C   UNL     1      -0.062  10.107  18.268  0.00  0.00    +0.000 C 
ENDBRANCH  27  28
ENDBRANCH  26  27
ENDBRANCH   6  26
TORSDOF 10
ENDMDL
MODEL 9
REMARK VINA RESULT:      -6.6      1.732      4.446
REMARK  Name = 
REMARK  10 active torsions:
REMARK  status: ('A' for Active; 'I' for Inactive)
REMARK    1  A    between atoms: C_2  and  C_3
REMARK    2  A    between atoms: C_3  and  O_4
REMARK    3  A    between atoms: O_4  and  C_5
REMARK    4  A    between atoms: C_9  and  C_10
REMARK    5  A    between atoms: C_11  and  C_12
REMARK    6  A    between atoms: C_12  and  C_14
REMARK    7  A    between atoms: C_19  and  O_20
REMARK    8  A    between atoms: N_23  and  C_24
REMARK    9  A    between atoms: C_24  and  C_25
REMARK   10  A    between atoms: C_25  and  N_26
REMARK                            x       y       z     vdW  Elec       q    Type
REMARK                         _______ _______ _______ _____ _____    ______ ____
ROOT
ATOM      1  C   UNL     1       3.154   6.516  19.677  0.00  0.00    +0.000 C 
ATOM      2  C   UNL     1       4.130   6.479  18.542  0.00  0.00    +0.000 C 
ATOM      3  C   UNL     1       3.795   7.303  17.539  0.00  0.00    +0.000 C 
ATOM      4  C   UNL     1       2.578   8.034  17.968  0.00  0.00    +0.000 C 
ATOM      5  O   UNL     1       1.981   8.867  17.313  0.00  0.00    +0.000 OA
ATOM      6  N   UNL     1       2.289   7.603  19.251  0.00  0.00    +0.000 N 
ENDROOT
BRANCH   1  11
ATOM      7  C   UNL     1       1.594   3.077  19.029  0.00  0.00    +0.000 A 
ATOM      8  C   UNL     1       1.160   2.715  20.301  0.00  0.00    +0.000 A 
ATOM      9  C   UNL     1       1.285   3.613  21.360  0.00  0.00    +0.000 A 
ATOM     10  C   UNL     1       1.904   4.849  21.168  0.00  0.00    +0.000 A 
ATOM     11  C   UNL     1       2.389   5.220  19.905  0.00  0.00    +0.000 A 
ATOM     12  C   UNL     1       2.191   4.324  18.838  0.00  0.00    +0.000 A 
BRANCH   7  13
ATOM     13  O   UNL     1       1.506   2.290  17.912  0.00  0.00    +0.000 OA
BRANCH  13  14
ATOM     14  C   UNL     1       2.759   1.906  17.350  0.00  0.00    +0.000 C 
BRANCH  14  16
ATOM     15  C   UNL     1       4.517   1.720  19.122  0.00  0.00    +0.000 C 
ATOM     16  C   UNL     1       3.535   1.171  18.395  0.00  0.00    +0.000 C 
ENDBRANCH  14  16
ENDBRANCH  13  14
ENDBRANCH   7  13
ENDBRANCH   1  11
BRANCH   2  17
ATOM     17  C   UNL     1       5.334   5.621  18.473  0.00  0.00    +0.000 C 
ATOM     18  O   UNL     1       5.919   5.379  19.534  0.00  0.00    +0.000 OA
BRANCH  17  19
ATOM     19  C   UNL     1       5.778   5.075  17.206  0.00  0.00    +0.000 A 
ATOM     20  C   UNL     1       5.255   4.052  16.438  0.00  0.00    +0.000 A 
ATOM     21  C   UNL     1       6.075   3.946  15.288  0.00  0.00    +0.000 A 
ATOM     22  C   UNL     1       7.039   4.916  15.414  0.00  0.00    +0.000 A 
ATOM     23  O   UNL     1       6.853   5.615  16.559  0.00  0.00    +0.000 OA
ENDBRANCH  17  19
ENDBRANCH   2  17
BRANCH   3  24
ATOM     24  O   UNL     1       4.414   7.488  16.334  0.00  0.00    +0.000 OA
ATOM     25  H   UNL     1       4.175   6.731  15.757  0.00  0.00    +0.000 HD
ENDBRANCH   3  24
BRANCH   6  26
ATOM     26  C   UNL     1       1.128   8.083  19.997  0.00  0.00    +0.000 C 
BRANCH  26  27
ATOM     27  C   UNL     1       1.245   9.539  20.489  0.00  0.00    +0.000 C 
BRANCH  27  28
ATOM     28  N   UNL     1      -0.045  10.224  20.668  0.00  0.00    +0.000 NA
ATOM     29  C   UNL     1      -0.657  10.640  19.389  0.00  0.00    +0.000 C 
ATOM     30  C   UNL     1       0.078  11.808  18.710  0.00  0.00    +0.000 C 
ATOM     31  O   UNL     1       0.163  12.944  19.579  0.00  0.00    +0.000 OA
ATOM     32  C   UNL     1       0.810  12.604  20.811  0.00  0.00    +0.000 C 
ATOM     33  C   UNL     1       0.104  11.432  21.516  0.00  0.00    +0.000 C 
ENDBRANCH  27  28
ENDBRANCH  26  27
ENDBRANCH   6  26
TORSDOF 10
ENDMDL
