MODEL 1
REMARK VINA RESULT:      -8.3      0.000      0.000
REMARK  Name = 
REMARK  6 active torsions:
REMARK  status: ('A' for Active; 'I' for Inactive)
REMARK    1  A    between atoms: C_1  and  C_2
REMARK    2  A    between atoms: C_4  and  C_5
REMARK    3  A    between atoms: C_8  and  C_9
REMARK    4  A    between atoms: C_9  and  C_10
REMARK    5  A    between atoms: N_12  and  C_13
REMARK    6  A    between atoms: C_16  and  C_17
REMARK                            x       y       z     vdW  Elec       q    Type
REMARK                         _______ _______ _______ _____ _____    ______ ____
ROOT
ATOM      1  C   UNL     1       8.179   8.964  18.045  0.00  0.00    +0.000 C 
ATOM      2  O   UNL     1       7.345   9.761  17.622  0.00  0.00    +0.000 OA
ATOM      3  N   UNL     1       9.210   9.275  18.921  0.00  0.00    +0.000 N 
ATOM      4  H   UNL     1      10.038   8.694  18.857  0.00  0.00    +0.000 HD
ENDROOT
BRANCH   3   5
ATOM      5  C   UNL     1       9.368  10.559  19.482  0.00  0.00    +0.000 A 
ATOM      6  C   UNL     1       9.795  11.648  18.723  0.00  0.00    +0.000 A 
ATOM      7  C   UNL     1      10.007  12.892  19.330  0.00  0.00    +0.000 A 
ATOM      8  C   UNL     1       9.817  13.081  20.710  0.00  0.00    +0.000 A 
ATOM      9  C   UNL     1       9.342  11.978  21.443  0.00  0.00    +0.000 A 
ATOM     10  C   UNL     1       9.096  10.738  20.835  0.00  0.00    +0.000 A 
BRANCH   8  11
ATOM     11  C   UNL     1      10.150  14.371  21.364  0.00  0.00    +0.000 A 
ATOM     12  C   UNL     1       9.572  14.749  22.591  0.00  0.00    +0.000 A 
ATOM     13  C   UNL     1       9.838  15.993  23.172  0.00  0.00    +0.000 A 
ATOM     14  C   UNL     1      10.705  16.885  22.549  0.00  0.00    +0.000 A 
ATOM     15  C   UNL     1      11.307  16.531  21.347  0.00  0.00    +0.000 A 
ATOM     16  C   UNL     1      11.028  15.291  20.761  0.00  0.00    +0.000 A 
ENDBRANCH   8  11
ENDBRANCH   3   5
BRANCH   1  17
ATOM     17  C   UNL     1       8.169   7.513  17.601  0.00  0.00    +0.000 C 
BRANCH  17  21
ATOM     18  C   UNL     1       4.544   5.243  18.484  0.00  0.00    +0.000 A 
ATOM     19  C   UNL     1       4.622   6.137  17.404  0.00  0.00    +0.000 A 
ATOM     20  C   UNL     1       5.791   6.859  17.134  0.00  0.00    +0.000 A 
ATOM     21  C   UNL     1       6.925   6.725  17.946  0.00  0.00    +0.000 A 
ATOM     22  C   UNL     1       6.881   5.799  18.991  0.00  0.00    +0.000 A 
ATOM     23  C   UNL     1       5.709   5.074  19.256  0.00  0.00    +0.000 A 
BRANCH  18  27
ATOM     24  C   UNL     1       1.568   2.714  21.683  0.00  0.00    +0.000 C 
ATOM     25  C   UNL     1       1.852   3.302  20.334  0.00  0.00    +0.000 A 
ATOM     26  C   UNL     1       3.026   4.011  20.085  0.00  0.00    +0.000 A 
ATOM     27  C   UNL     1       3.285   4.526  18.807  0.00  0.00    +0.000 A 
ATOM     28  C   UNL     1       2.309   4.302  17.828  0.00  0.00    +0.000 A 
ATOM     29  C   UNL     1       1.159   3.602  18.159  0.00  0.00    +0.000 A 
ATOM     30  N   UNL     1       0.908   3.095  19.380  0.00  0.00    +0.000 NA
ENDBRANCH  18  27
ENDBRANCH  17  21
ENDBRANCH   1  17
TORSDOF 5
ENDMDL
MODEL 2
REMARK VINA RESULT:      -8.3      0.305      1.277
REMARK  Name = 
REMARK  6 active torsions:
REMARK  status: ('A' for Active; 'I' for Inactive)
REMARK    1  A    between atoms: C_1  and  C_2
REMARK    2  A    between atoms: C_4  and  C_5
REMARK    3  A    between atoms: C_8  and  C_9
REMARK    4  A    between atoms: C_9  and  C_10
REMARK    5  A    between atoms: N_12  and  C_13
REMARK    6  A    between atoms: C_16  and  C_17
REMARK                            x       y       z     vdW  Elec       q    Type
REMARK                         _______ _______ _______ _____ _____    ______ ____
ROOT
ATOM      1  C   UNL     1       8.236   9.026  18.058  0.00  0.00    +0.000 C 
ATOM      2  O   UNL     1       7.475   9.923  17.702  0.00  0.00    +0.000 OA
ATOM      3  N   UNL     1       9.268   9.171  18.975  0.00  0.00    +0.000 N 
ATOM      4  H   UNL     1      10.050   8.536  18.867  0.00  0.00    +0.000 HD
ENDROOT
BRANCH   3   5
ATOM      5  C   UNL     1       9.511  10.378  19.660  0.00  0.00    +0.000 A 
ATOM      6  C   UNL     1       8.937  10.651  20.902  0.00  0.00    +0.000 A 
ATOM      7  C   UNL     1       9.146  11.889  21.521  0.00  0.00    +0.000 A 
ATOM      8  C   UNL     1       9.916  12.896  20.912  0.00  0.00    +0.000 A 
ATOM      9  C   UNL     1      10.521  12.578  19.682  0.00  0.00    +0.000 A 
ATOM     10  C   UNL     1      10.343  11.328  19.073  0.00  0.00    +0.000 A 
BRANCH   8  11
ATOM     11  C   UNL     1      10.041  14.244  21.521  0.00  0.00    +0.000 A 
ATOM     12  C   UNL     1       9.310  14.606  22.669  0.00  0.00    +0.000 A 
ATOM     13  C   UNL     1       9.381  15.897  23.203  0.00  0.00    +0.000 A 
ATOM     14  C   UNL     1      10.198  16.855  22.612  0.00  0.00    +0.000 A 
ATOM     15  C   UNL     1      10.948  16.520  21.490  0.00  0.00    +0.000 A 
ATOM     16  C   UNL     1      10.865  15.231  20.950  0.00  0.00    +0.000 A 
ENDBRANCH   8  11
ENDBRANCH   3   5
BRANCH   1  17
ATOM     17  C   UNL     1       8.125   7.629  17.475  0.00  0.00    +0.000 C 
BRANCH  17  21
ATOM     18  C   UNL     1       4.482   5.449  18.499  0.00  0.00    +0.000 A 
ATOM     19  C   UNL     1       5.699   5.224  19.161  0.00  0.00    +0.000 A 
ATOM     20  C   UNL     1       6.859   5.930  18.821  0.00  0.00    +0.000 A 
ATOM     21  C   UNL     1       6.850   6.881  17.792  0.00  0.00    +0.000 A 
ATOM     22  C   UNL     1       5.633   7.154  17.161  0.00  0.00    +0.000 A 
ATOM     23  C   UNL     1       4.472   6.447  17.508  0.00  0.00    +0.000 A 
BRANCH  18  27
ATOM     24  C   UNL     1       1.645   2.760  21.693  0.00  0.00    +0.000 C 
ATOM     25  C   UNL     1       1.903   3.355  20.342  0.00  0.00    +0.000 A 
ATOM     26  C   UNL     1       3.031   4.135  20.098  0.00  0.00    +0.000 A 
ATOM     27  C   UNL     1       3.268   4.656  18.817  0.00  0.00    +0.000 A 
ATOM     28  C   UNL     1       2.316   4.363  17.832  0.00  0.00    +0.000 A 
ATOM     29  C   UNL     1       1.211   3.593  18.159  0.00  0.00    +0.000 A 
ATOM     30  N   UNL     1       0.982   3.081  19.382  0.00  0.00    +0.000 NA
ENDBRANCH  18  27
ENDBRANCH  17  21
ENDBRANCH   1  17
TORSDOF 5
ENDMDL
MODEL 3
REMARK VINA RESULT:      -8.3      6.979      8.881
REMARK  Name = 
REMARK  6 active torsions:
REMARK  status: ('A' for Active; 'I' for Inactive)
REMARK    1  A    between atoms: C_1  and  C_2
REMARK    2  A    between atoms: C_4  and  C_5
REMARK    3  A    between atoms: C_8  and  C_9
REMARK    4  A    between atoms: C_9  and  C_10
REMARK    5  A    between atoms: N_12  and  C_13
REMARK    6  A    between atoms: C_16  and  C_17
REMARK                            x       y       z     vdW  Elec       q    Type
REMARK                         _______ _______ _______ _____ _____    ______ ____
ROOT
ATOM      1  C   UNL     1       2.391   5.490  20.299  0.00  0.00    +0.000 C 
ATOM      2  O   UNL     1       1.268   5.130  20.646  0.00  0.00    +0.000 OA
ATOM      3  N   UNL     1       2.757   6.799  20.013  0.00  0.00    +0.000 N 
ATOM      4  H   UNL     1       3.522   6.912  19.357  0.00  0.00    +0.000 HD
ENDROOT
BRANCH   3   5
ATOM      5  C   UNL     1       1.871   7.885  20.160  0.00  0.00    +0.000 A 
ATOM      6  C   UNL     1       1.181   8.117  21.350  0.00  0.00    +0.000 A 
ATOM      7  C   UNL     1       0.257   9.166  21.437  0.00  0.00    +0.000 A 
ATOM      8  C   UNL     1      -0.018   9.999  20.338  0.00  0.00    +0.000 A 
ATOM      9  C   UNL     1       0.726   9.772  19.166  0.00  0.00    +0.000 A 
ATOM     10  C   UNL     1       1.677   8.744  19.083  0.00  0.00    +0.000 A 
BRANCH   8  11
ATOM     11  C   UNL     1      -1.078  11.035  20.405  0.00  0.00    +0.000 A 
ATOM     12  C   UNL     1      -1.865  11.360  19.283  0.00  0.00    +0.000 A 
ATOM     13  C   UNL     1      -2.819  12.382  19.331  0.00  0.00    +0.000 A 
ATOM     14  C   UNL     1      -3.022  13.095  20.508  0.00  0.00    +0.000 A 
ATOM     15  C   UNL     1      -2.274  12.782  21.638  0.00  0.00    +0.000 A 
ATOM     16  C   UNL     1      -1.312  11.768  21.583  0.00  0.00    +0.000 A 
ENDBRANCH   8  11
ENDBRANCH   3   5
BRANCH   1  17
ATOM     17  C   UNL     1       3.513   4.486  20.117  0.00  0.00    +0.000 C 
BRANCH  17  21
ATOM     18  C   UNL     1       5.307   4.435  16.135  0.00  0.00    +0.000 A 
ATOM     19  C   UNL     1       4.021   3.929  16.383  0.00  0.00    +0.000 A 
ATOM     20  C   UNL     1       3.459   3.951  17.665  0.00  0.00    +0.000 A 
ATOM     21  C   UNL     1       4.171   4.468  18.756  0.00  0.00    +0.000 A 
ATOM     22  C   UNL     1       5.430   5.024  18.515  0.00  0.00    +0.000 A 
ATOM     23  C   UNL     1       5.987   5.004  17.228  0.00  0.00    +0.000 A 
BRANCH  18  27
ATOM     24  C   UNL     1       5.515   2.571  11.449  0.00  0.00    +0.000 C 
ATOM     25  C   UNL     1       6.039   3.457  12.538  0.00  0.00    +0.000 A 
ATOM     26  C   UNL     1       5.400   3.541  13.773  0.00  0.00    +0.000 A 
ATOM     27  C   UNL     1       5.926   4.354  14.789  0.00  0.00    +0.000 A 
ATOM     28  C   UNL     1       7.093   5.066  14.485  0.00  0.00    +0.000 A 
ATOM     29  C   UNL     1       7.659   4.942  13.226  0.00  0.00    +0.000 A 
ATOM     30  N   UNL     1       7.167   4.157  12.250  0.00  0.00    +0.000 NA
ENDBRANCH  18  27
ENDBRANCH  17  21
ENDBRANCH   1  17
TORSDOF 5
ENDMDL
MODEL 4
REMARK VINA RESULT:      -8.3      7.059      8.742
REMARK  Name = 
REMARK  6 active torsions:
REMARK  status: ('A' for Active; 'I' for Inactive)
REMARK    1  A    between atoms: C_1  and  C_2
REMARK    2  A    between atoms: C_4  and  C_5
REMARK    3  A    between atoms: C_8  and  C_9
REMARK    4  A    between atoms: C_9  and  C_10
REMARK    5  A    between atoms: N_12  and  C_13
REMARK    6  A    between atoms: C_16  and  C_17
REMARK                            x       y       z     vdW  Elec       q    Type
REMARK                         _______ _______ _______ _____ _____    ______ ____
ROOT
ATOM      1  C   UNL     1       2.196   5.479  20.417  0.00  0.00    +0.000 C 
ATOM      2  O   UNL     1       1.055   5.069  20.616  0.00  0.00    +0.000 OA
ATOM      3  N   UNL     1       2.555   6.814  20.291  0.00  0.00    +0.000 N 
ATOM      4  H   UNL     1       3.377   7.002  19.728  0.00  0.00    +0.000 HD
ENDROOT
BRANCH   3   5
ATOM      5  C   UNL     1       1.632   7.867  20.450  0.00  0.00    +0.000 A 
ATOM      6  C   UNL     1       1.377   8.785  19.431  0.00  0.00    +0.000 A 
ATOM      7  C   UNL     1       0.504   9.859  19.649  0.00  0.00    +0.000 A 
ATOM      8  C   UNL     1      -0.123  10.057  20.892  0.00  0.00    +0.000 A 
ATOM      9  C   UNL     1       0.115   9.091  21.886  0.00  0.00    +0.000 A 
ATOM     10  C   UNL     1       0.962   7.995  21.663  0.00  0.00    +0.000 A 
BRANCH   8  11
ATOM     11  C   UNL     1      -0.957  11.257  21.150  0.00  0.00    +0.000 A 
ATOM     12  C   UNL     1      -1.481  12.033  20.098  0.00  0.00    +0.000 A 
ATOM     13  C   UNL     1      -2.213  13.199  20.343  0.00  0.00    +0.000 A 
ATOM     14  C   UNL     1      -2.454  13.611  21.650  0.00  0.00    +0.000 A 
ATOM     15  C   UNL     1      -1.967  12.854  22.709  0.00  0.00    +0.000 A 
ATOM     16  C   UNL     1      -1.224  11.695  22.460  0.00  0.00    +0.000 A 
ENDBRANCH   8  11
ENDBRANCH   3   5
BRANCH   1  17
ATOM     17  C   UNL     1       3.356   4.514  20.255  0.00  0.00    +0.000 C 
BRANCH  17  21
ATOM     18  C   UNL     1       5.232   4.311  16.316  0.00  0.00    +0.000 A 
ATOM     19  C   UNL     1       5.862   4.919  17.414  0.00  0.00    +0.000 A 
ATOM     20  C   UNL     1       5.247   4.977  18.671  0.00  0.00    +0.000 A 
ATOM     21  C   UNL     1       3.969   4.442  18.875  0.00  0.00    +0.000 A 
ATOM     22  C   UNL     1       3.352   3.786  17.806  0.00  0.00    +0.000 A 
ATOM     23  C   UNL     1       3.973   3.726  16.549  0.00  0.00    +0.000 A 
BRANCH  18  27
ATOM     24  C   UNL     1       5.423   2.763  11.516  0.00  0.00    +0.000 C 
ATOM     25  C   UNL     1       5.962   3.560  12.664  0.00  0.00    +0.000 A 
ATOM     26  C   UNL     1       5.317   3.577  13.900  0.00  0.00    +0.000 A 
ATOM     27  C   UNL     1       5.856   4.306  14.970  0.00  0.00    +0.000 A 
ATOM     28  C   UNL     1       7.042   5.008  14.720  0.00  0.00    +0.000 A 
ATOM     29  C   UNL     1       7.613   4.955  13.458  0.00  0.00    +0.000 A 
ATOM     30  N   UNL     1       7.108   4.249  12.429  0.00  0.00    +0.000 NA
ENDBRANCH  18  27
ENDBRANCH  17  21
ENDBRANCH   1  17
TORSDOF 5
ENDMDL
MODEL 5
REMARK VINA RESULT:      -8.2      6.844      8.916
REMARK  Name = 
REMARK  6 active torsions:
REMARK  status: ('A' for Active; 'I' for Inactive)
REMARK    1  A    between atoms: C_1  and  C_2
REMARK    2  A    between atoms: C_4  and  C_5
REMARK    3  A    between atoms: C_8  and  C_9
REMARK    4  A    between atoms: C_9  and  C_10
REMARK    5  A    between atoms: N_12  and  C_13
REMARK    6  A    between atoms: C_16  and  C_17
REMARK                            x       y       z     vdW  Elec       q    Type
REMARK                         _______ _______ _______ _____ _____    ______ ____
ROOT
ATOM      1  C   UNL     1       2.365   7.027  19.487  0.00  0.00    +0.000 C 
ATOM      2  O   UNL     1       1.825   7.383  18.442  0.00  0.00    +0.000 OA
ATOM      3  N   UNL     1       2.132   7.584  20.738  0.00  0.00    +0.000 N 
ATOM      4  H   UNL     1       2.897   7.523  21.400  0.00  0.00    +0.000 HD
ENDROOT
BRANCH   3   5
ATOM      5  C   UNL     1       1.177   8.598  20.951  0.00  0.00    +0.000 A 
ATOM      6  C   UNL     1       0.988   9.637  20.040  0.00  0.00    +0.000 A 
ATOM      7  C   UNL     1       0.078  10.665  20.318  0.00  0.00    +0.000 A 
ATOM      8  C   UNL     1      -0.655  10.694  21.518  0.00  0.00    +0.000 A 
ATOM      9  C   UNL     1      -0.480   9.610  22.398  0.00  0.00    +0.000 A 
ATOM     10  C   UNL     1       0.406   8.561  22.109  0.00  0.00    +0.000 A 
BRANCH   8  11
ATOM     11  C   UNL     1      -1.533  11.842  21.855  0.00  0.00    +0.000 A 
ATOM     12  C   UNL     1      -2.037  12.030  23.156  0.00  0.00    +0.000 A 
ATOM     13  C   UNL     1      -2.916  13.076  23.456  0.00  0.00    +0.000 A 
ATOM     14  C   UNL     1      -3.300  13.972  22.464  0.00  0.00    +0.000 A 
ATOM     15  C   UNL     1      -2.802  13.824  21.175  0.00  0.00    +0.000 A 
ATOM     16  C   UNL     1      -1.933  12.769  20.875  0.00  0.00    +0.000 A 
ENDBRANCH   8  11
ENDBRANCH   3   5
BRANCH   1  17
ATOM     17  C   UNL     1       3.400   5.917  19.494  0.00  0.00    +0.000 C 
BRANCH  17  21
ATOM     18  C   UNL     1       5.227   4.961  15.645  0.00  0.00    +0.000 A 
ATOM     19  C   UNL     1       4.602   3.986  16.438  0.00  0.00    +0.000 A 
ATOM     20  C   UNL     1       4.021   4.308  17.671  0.00  0.00    +0.000 A 
ATOM     21  C   UNL     1       4.058   5.618  18.166  0.00  0.00    +0.000 A 
ATOM     22  C   UNL     1       4.629   6.609  17.363  0.00  0.00    +0.000 A 
ATOM     23  C   UNL     1       5.205   6.283  16.126  0.00  0.00    +0.000 A 
BRANCH  18  27
ATOM     24  C   UNL     1       5.561   2.233  11.411  0.00  0.00    +0.000 C 
ATOM     25  C   UNL     1       6.071   3.296  12.336  0.00  0.00    +0.000 A 
ATOM     26  C   UNL     1       5.385   3.631  13.502  0.00  0.00    +0.000 A 
ATOM     27  C   UNL     1       5.897   4.608  14.368  0.00  0.00    +0.000 A 
ATOM     28  C   UNL     1       7.100   5.219  13.989  0.00  0.00    +0.000 A 
ATOM     29  C   UNL     1       7.713   4.841  12.805  0.00  0.00    +0.000 A 
ATOM     30  N   UNL     1       7.234   3.898  11.973  0.00  0.00    +0.000 NA
ENDBRANCH  18  27
ENDBRANCH  17  21
ENDBRANCH   1  17
TORSDOF 5
ENDMDL
MODEL 6
REMARK VINA RESULT:      -8.2      6.820     10.294
REMARK  Name = 
REMARK  6 active torsions:
REMARK  status: ('A' for Active; 'I' for Inactive)
REMARK    1  A    between atoms: C_1  and  C_2
REMARK    2  A    between atoms: C_4  and  C_5
REMARK    3  A    between atoms: C_8  and  C_9
REMARK    4  A    between atoms: C_9  and  C_10
REMARK    5  A    between atoms: N_12  and  C_13
REMARK    6  A    between atoms: C_16  and  C_17
REMARK                            x       y       z     vdW  Elec       q    Type
REMARK                         _______ _______ _______ _____ _____    ______ ____
ROOT
ATOM      1  C   UNL     1       2.315   5.764  19.421  0.00  0.00    +0.000 C 
ATOM      2  O   UNL     1       1.590   5.183  18.616  0.00  0.00    +0.000 OA
ATOM      3  N   UNL     1       3.665   6.031  19.234  0.00  0.00    +0.000 N 
ATOM      4  H   UNL     1       4.223   6.108  20.076  0.00  0.00    +0.000 HD
ENDROOT
BRANCH   3   5
ATOM      5  C   UNL     1       4.343   5.713  18.040  0.00  0.00    +0.000 A 
ATOM      6  C   UNL     1       4.611   6.673  17.065  0.00  0.00    +0.000 A 
ATOM      7  C   UNL     1       5.226   6.306  15.862  0.00  0.00    +0.000 A 
ATOM      8  C   UNL     1       5.574   4.970  15.590  0.00  0.00    +0.000 A 
ATOM      9  C   UNL     1       5.335   4.031  16.609  0.00  0.00    +0.000 A 
ATOM     10  C   UNL     1       4.749   4.398  17.830  0.00  0.00    +0.000 A 
BRANCH   8  11
ATOM     11  C   UNL     1       6.122   4.572  14.270  0.00  0.00    +0.000 A 
ATOM     12  C   UNL     1       7.293   5.155  13.749  0.00  0.00    +0.000 A 
ATOM     13  C   UNL     1       7.772   4.825  12.477  0.00  0.00    +0.000 A 
ATOM     14  C   UNL     1       7.100   3.888  11.699  0.00  0.00    +0.000 A 
ATOM     15  C   UNL     1       5.953   3.279  12.195  0.00  0.00    +0.000 A 
ATOM     16  C   UNL     1       5.469   3.622  13.463  0.00  0.00    +0.000 A 
ENDBRANCH   8  11
ENDBRANCH   3   5
BRANCH   1  17
ATOM     17  C   UNL     1       1.777   6.235  20.760  0.00  0.00    +0.000 C 
BRANCH  17  21
ATOM     18  C   UNL     1       0.237  10.316  20.983  0.00  0.00    +0.000 A 
ATOM     19  C   UNL     1       0.127   9.415  22.055  0.00  0.00    +0.000 A 
ATOM     20  C   UNL     1       0.625   8.109  21.968  0.00  0.00    +0.000 A 
ATOM     21  C   UNL     1       1.240   7.648  20.797  0.00  0.00    +0.000 A 
ATOM     22  C   UNL     1       1.405   8.549  19.741  0.00  0.00    +0.000 A 
ATOM     23  C   UNL     1       0.909   9.858  19.834  0.00  0.00    +0.000 A 
BRANCH  18  27
ATOM     24  C   UNL     1      -1.582  14.239  23.586  0.00  0.00    +0.000 C 
ATOM     25  C   UNL     1      -1.230  13.565  22.295  0.00  0.00    +0.000 A 
ATOM     26  C   UNL     1      -0.639  12.303  22.274  0.00  0.00    +0.000 A 
ATOM     27  C   UNL     1      -0.346  11.679  21.053  0.00  0.00    +0.000 A 
ATOM     28  C   UNL     1      -0.664  12.390  19.889  0.00  0.00    +0.000 A 
ATOM     29  C   UNL     1      -1.236  13.649  19.994  0.00  0.00    +0.000 A 
ATOM     30  N   UNL     1      -1.529  14.250  21.161  0.00  0.00    +0.000 NA
ENDBRANCH  18  27
ENDBRANCH  17  21
ENDBRANCH   1  17
TORSDOF 5
ENDMDL
MODEL 7
REMARK VINA RESULT:      -8.2      6.821     10.267
REMARK  Name = 
REMARK  6 active torsions:
REMARK  status: ('A' for Active; 'I' for Inactive)
REMARK    1  A    between atoms: C_1  and  C_2
REMARK    2  A    between atoms: C_4  and  C_5
REMARK    3  A    between atoms: C_8  and  C_9
REMARK    4  A    between atoms: C_9  and  C_10
REMARK    5  A    between atoms: N_12  and  C_13
REMARK    6  A    between atoms: C_16  and  C_17
REMARK                            x       y       z     vdW  Elec       q    Type
REMARK                         _______ _______ _______ _____ _____    ______ ____
ROOT
ATOM      1  C   UNL     1       2.330   5.816  19.416  0.00  0.00    +0.000 C 
ATOM      2  O   UNL     1       1.550   5.428  18.550  0.00  0.00    +0.000 OA
ATOM      3  N   UNL     1       3.707   5.911  19.267  0.00  0.00    +0.000 N 
ATOM      4  H   UNL     1       4.253   5.820  20.117  0.00  0.00    +0.000 HD
ENDROOT
BRANCH   3   5
ATOM      5  C   UNL     1       4.361   5.627  18.051  0.00  0.00    +0.000 A 
ATOM      6  C   UNL     1       4.598   6.613  17.093  0.00  0.00    +0.000 A 
ATOM      7  C   UNL     1       5.187   6.281  15.867  0.00  0.00    +0.000 A 
ATOM      8  C   UNL     1       5.540   4.956  15.555  0.00  0.00    +0.000 A 
ATOM      9  C   UNL     1       5.333   3.989  16.557  0.00  0.00    +0.000 A 
ATOM     10  C   UNL     1       4.773   4.322  17.799  0.00  0.00    +0.000 A 
BRANCH   8  11
ATOM     11  C   UNL     1       6.061   4.594  14.213  0.00  0.00    +0.000 A 
ATOM     12  C   UNL     1       5.415   3.642  13.402  0.00  0.00    +0.000 A 
ATOM     13  C   UNL     1       5.943   3.256  12.165  0.00  0.00    +0.000 A 
ATOM     14  C   UNL     1       7.124   3.826  11.701  0.00  0.00    +0.000 A 
ATOM     15  C   UNL     1       7.773   4.784  12.471  0.00  0.00    +0.000 A 
ATOM     16  C   UNL     1       7.249   5.159  13.714  0.00  0.00    +0.000 A 
ENDBRANCH   8  11
ENDBRANCH   3   5
BRANCH   1  17
ATOM     17  C   UNL     1       1.834   6.214  20.794  0.00  0.00    +0.000 C 
BRANCH  17  21
ATOM     18  C   UNL     1       0.012  10.178  20.979  0.00  0.00    +0.000 A 
ATOM     19  C   UNL     1       0.951   9.832  19.995  0.00  0.00    +0.000 A 
ATOM     20  C   UNL     1       1.527   8.557  19.949  0.00  0.00    +0.000 A 
ATOM     21  C   UNL     1       1.197   7.581  20.898  0.00  0.00    +0.000 A 
ATOM     22  C   UNL     1       0.224   7.893  21.851  0.00  0.00    +0.000 A 
ATOM     23  C   UNL     1      -0.354   9.171  21.891  0.00  0.00    +0.000 A 
BRANCH  18  27
ATOM     24  C   UNL     1      -1.310  14.280  23.609  0.00  0.00    +0.000 C 
ATOM     25  C   UNL     1      -1.198  13.520  22.322  0.00  0.00    +0.000 A 
ATOM     26  C   UNL     1      -0.618  12.254  22.276  0.00  0.00    +0.000 A 
ATOM     27  C   UNL     1      -0.551  11.549  21.065  0.00  0.00    +0.000 A 
ATOM     28  C   UNL     1      -1.077  12.187  19.934  0.00  0.00    +0.000 A 
ATOM     29  C   UNL     1      -1.622  13.455  20.059  0.00  0.00    +0.000 A 
ATOM     30  N   UNL     1      -1.699  14.134  21.219  0.00  0.00    +0.000 NA
ENDBRANCH  18  27
ENDBRANCH  17  21
ENDBRANCH   1  17
TORSDOF 5
ENDMDL
MODEL 8
REMARK VINA RESULT:      -8.2      6.721     10.352
REMARK  Name = 
REMARK  6 active torsions:
REMARK  status: ('A' for Active; 'I' for Inactive)
REMARK    1  A    between atoms: C_1  and  C_2
REMARK    2  A    between atoms: C_4  and  C_5
REMARK    3  A    between atoms: C_8  and  C_9
REMARK    4  A    between atoms: C_9  and  C_10
REMARK    5  A    between atoms: N_12  and  C_13
REMARK    6  A    between atoms: C_16  and  C_17
REMARK                            x       y       z     vdW  Elec       q    Type
REMARK                         _______ _______ _______ _____ _____    ______ ____
ROOT
ATOM      1  C   UNL     1       2.251   5.779  19.403  0.00  0.00    +0.000 C 
ATOM      2  O   UNL     1       1.502   5.308  18.550  0.00  0.00    +0.000 OA
ATOM      3  N   UNL     1       3.623   5.937  19.262  0.00  0.00    +0.000 N 
ATOM      4  H   UNL     1       4.162   5.917  20.120  0.00  0.00    +0.000 HD
ENDROOT
BRANCH   3   5
ATOM      5  C   UNL     1       4.304   5.627  18.068  0.00  0.00    +0.000 A 
ATOM      6  C   UNL     1       4.647   6.608  17.138  0.00  0.00    +0.000 A 
ATOM      7  C   UNL     1       5.262   6.254  15.931  0.00  0.00    +0.000 A 
ATOM      8  C   UNL     1       5.536   4.913  15.610  0.00  0.00    +0.000 A 
ATOM      9  C   UNL     1       5.223   3.948  16.585  0.00  0.00    +0.000 A 
ATOM     10  C   UNL     1       4.637   4.300  17.810  0.00  0.00    +0.000 A 
BRANCH   8  11
ATOM     11  C   UNL     1       6.085   4.536  14.283  0.00  0.00    +0.000 A 
ATOM     12  C   UNL     1       7.246   5.141  13.766  0.00  0.00    +0.000 A 
ATOM     13  C   UNL     1       7.725   4.831  12.488  0.00  0.00    +0.000 A 
ATOM     14  C   UNL     1       7.063   3.893  11.702  0.00  0.00    +0.000 A 
ATOM     15  C   UNL     1       5.926   3.264  12.195  0.00  0.00    +0.000 A 
ATOM     16  C   UNL     1       5.442   3.586  13.468  0.00  0.00    +0.000 A 
ENDBRANCH   8  11
ENDBRANCH   3   5
BRANCH   1  17
ATOM     17  C   UNL     1       1.719   6.219  20.754  0.00  0.00    +0.000 C 
BRANCH  17  21
ATOM     18  C   UNL     1       0.233  10.325  20.859  0.00  0.00    +0.000 A 
ATOM     19  C   UNL     1       1.049   9.851  19.819  0.00  0.00    +0.000 A 
ATOM     20  C   UNL     1       1.519   8.532  19.800  0.00  0.00    +0.000 A 
ATOM     21  C   UNL     1       1.202   7.638  20.831  0.00  0.00    +0.000 A 
ATOM     22  C   UNL     1       0.346   8.079  21.844  0.00  0.00    +0.000 A 
ATOM     23  C   UNL     1      -0.126   9.400  21.857  0.00  0.00    +0.000 A 
BRANCH  18  27
ATOM     24  C   UNL     1      -0.174  14.930  18.833  0.00  0.00    +0.000 C 
ATOM     25  C   UNL     1      -0.405  13.958  19.949  0.00  0.00    +0.000 A 
ATOM     26  C   UNL     1      -0.014  12.625  19.841  0.00  0.00    +0.000 A 
ATOM     27  C   UNL     1      -0.212  11.739  20.911  0.00  0.00    +0.000 A 
ATOM     28  C   UNL     1      -0.825  12.263  22.057  0.00  0.00    +0.000 A 
ATOM     29  C   UNL     1      -1.200  13.598  22.080  0.00  0.00    +0.000 A 
ATOM     30  N   UNL     1      -1.003  14.455  21.062  0.00  0.00    +0.000 NA
ENDBRANCH  18  27
ENDBRANCH  17  21
ENDBRANCH   1  17
TORSDOF 5
ENDMDL
MODEL 9
REMARK VINA RESULT:      -8.1      0.981      1.302
REMARK  Name = 
REMARK  6 active torsions:
REMARK  status: ('A' for Active; 'I' for Inactive)
REMARK    1  A    between atoms: C_1  and  C_2
REMARK    2  A    between atoms: C_4  and  C_5
REMARK    3  A    between atoms: C_8  and  C_9
REMARK    4  A    between atoms: C_9  and  C_10
REMARK    5  A    between atoms: N_12  and  C_13
REMARK    6  A    between atoms: C_16  and  C_17
REMARK                            x       y       z     vdW  Elec       q    Type
REMARK                         _______ _______ _______ _____ _____    ______ ____
ROOT
ATOM      1  C   UNL     1       8.180   8.212  17.960  0.00  0.00    +0.000 C 
ATOM      2  O   UNL     1       8.616   7.822  19.041  0.00  0.00    +0.000 OA
ATOM      3  N   UNL     1       8.156   9.535  17.539  0.00  0.00    +0.000 N 
ATOM      4  H   UNL     1       7.427   9.777  16.878  0.00  0.00    +0.000 HD
ENDROOT
BRANCH   3   5
ATOM      5  C   UNL     1       8.703  10.585  18.303  0.00  0.00    +0.000 A 
ATOM      6  C   UNL     1       9.325  10.358  19.531  0.00  0.00    +0.000 A 
ATOM      7  C   UNL     1       9.796  11.433  20.295  0.00  0.00    +0.000 A 
ATOM      8  C   UNL     1       9.645  12.764  19.865  0.00  0.00    +0.000 A 
ATOM      9  C   UNL     1       9.057  12.961  18.602  0.00  0.00    +0.000 A 
ATOM     10  C   UNL     1       8.613  11.887  17.818  0.00  0.00    +0.000 A 
BRANCH   8  11
ATOM     11  C   UNL     1      10.046  13.902  20.729  0.00  0.00    +0.000 A 
ATOM     12  C   UNL     1       9.449  14.122  21.985  0.00  0.00    +0.000 A 
ATOM     13  C   UNL     1       9.782  15.231  22.769  0.00  0.00    +0.000 A 
ATOM     14  C   UNL     1      10.736  16.141  22.324  0.00  0.00    +0.000 A 
ATOM     15  C   UNL     1      11.358  15.938  21.097  0.00  0.00    +0.000 A 
ATOM     16  C   UNL     1      11.012  14.834  20.309  0.00  0.00    +0.000 A 
ENDBRANCH   8  11
ENDBRANCH   3   5
BRANCH   1  17
ATOM     17  C   UNL     1       7.580   7.240  16.961  0.00  0.00    +0.000 C 
BRANCH  17  21
ATOM     18  C   UNL     1       4.127   4.926  18.302  0.00  0.00    +0.000 A 
ATOM     19  C   UNL     1       3.991   6.109  17.558  0.00  0.00    +0.000 A 
ATOM     20  C   UNL     1       5.108   6.841  17.136  0.00  0.00    +0.000 A 
ATOM     21  C   UNL     1       6.407   6.425  17.456  0.00  0.00    +0.000 A 
ATOM     22  C   UNL     1       6.559   5.221  18.149  0.00  0.00    +0.000 A 
ATOM     23  C   UNL     1       5.438   4.488  18.566  0.00  0.00    +0.000 A 
BRANCH  18  27
ATOM     24  C   UNL     1       1.553   2.640  21.993  0.00  0.00    +0.000 C 
ATOM     25  C   UNL     1       1.702   3.077  20.568  0.00  0.00    +0.000 A 
ATOM     26  C   UNL     1       2.808   3.814  20.148  0.00  0.00    +0.000 A 
ATOM     27  C   UNL     1       2.943   4.185  18.803  0.00  0.00    +0.000 A 
ATOM     28  C   UNL     1       1.915   3.793  17.935  0.00  0.00    +0.000 A 
ATOM     29  C   UNL     1       0.839   3.075  18.433  0.00  0.00    +0.000 A 
ATOM     30  N   UNL     1       0.708   2.706  19.720  0.00  0.00    +0.000 NA
ENDBRANCH  18  27
ENDBRANCH  17  21
ENDBRANCH   1  17
TORSDOF 5
ENDMDL
