MODEL 1
REMARK VINA RESULT:      -7.2      0.000      0.000
REMARK  Name = 
REMARK  8 active torsions:
REMARK  status: ('A' for Active; 'I' for Inactive)
REMARK    1  A    between atoms: C_1  and  C_2
REMARK    2  A    between atoms: C_2  and  C_3
REMARK    3  A    between atoms: C_2  and  C_4
REMARK    4  A    between atoms: C_2  and  C_5
REMARK    5  A    between atoms: C_5  and  C_6
REMARK    6  A    between atoms: N_8  and  C_9
REMARK    7  A    between atoms: C_12  and  C_13
REMARK    8  A    between atoms: C_13  and  N_14
REMARK                            x       y       z     vdW  Elec       q    Type
REMARK                         _______ _______ _______ _____ _____    ______ ____
ROOT
ATOM      1  C   UNL     1       5.835   5.180  18.770  0.00  0.00    +0.000 A 
ATOM      2  C   UNL     1       5.341   6.092  17.836  0.00  0.00    +0.000 A 
ATOM      3  C   UNL     1       6.115   7.178  17.416  0.00  0.00    +0.000 A 
ATOM      4  C   UNL     1       7.406   7.376  17.914  0.00  0.00    +0.000 A 
ATOM      5  C   UNL     1       7.899   6.475  18.868  0.00  0.00    +0.000 A 
ATOM      6  C   UNL     1       7.116   5.388  19.296  0.00  0.00    +0.000 A 
ENDROOT
BRANCH   1   9
ATOM      7  C   UNL     1       4.177   3.338  18.487  0.00  0.00    +0.000 C 
ATOM      8  O   UNL     1       4.008   3.425  17.275  0.00  0.00    +0.000 OA
ATOM      9  N   UNL     1       5.080   4.078  19.237  0.00  0.00    +0.000 N 
ATOM     10  H   UNL     1       5.280   3.757  20.176  0.00  0.00    +0.000 HD
BRANCH   7  11
ATOM     11  C   UNL     1       3.348   2.352  19.297  0.00  0.00    +0.000 C 
BRANCH  11  13
ATOM     12  C   UNL     1       1.636   2.558  21.185  0.00  0.00    +0.000 C 
ATOM     13  C   UNL     1       1.954   2.883  19.715  0.00  0.00    +0.000 C 
ATOM     14  C   UNL     1       0.852   2.298  18.819  0.00  0.00    +0.000 C 
ATOM     15  C   UNL     1       1.955   4.417  19.557  0.00  0.00    +0.000 C 
ENDBRANCH  11  13
ENDBRANCH   7  11
ENDBRANCH   1   9
BRANCH   4  16
ATOM     16  C   UNL     1       8.212   8.572  17.458  0.00  0.00    +0.000 C 
BRANCH  16  17
ATOM     17  N   UNL     1       8.740   9.257  18.619  0.00  0.00    +0.000 N 
ATOM     18  C   UNL     1       9.035  10.570  18.519  0.00  0.00    +0.000 A 
ATOM     19  N   UNL     1       8.497  11.412  17.667  0.00  0.00    +0.000 NA
ATOM     20  C   UNL     1       9.014  12.680  17.856  0.00  0.00    +0.000 A 
ATOM     21  C   UNL     1       9.980  12.788  18.831  0.00  0.00    +0.000 A 
ATOM     22  S   UNL     1      10.218  11.263  19.570  0.00  0.00    +0.000 S 
ATOM     23  H   UNL     1       9.346   8.697  19.205  0.00  0.00    +0.000 HD
ENDBRANCH  16  17
ENDBRANCH   4  16
TORSDOF 5
ENDMDL
MODEL 2
REMARK VINA RESULT:      -7.2      6.424      7.821
REMARK  Name = 
REMARK  8 active torsions:
REMARK  status: ('A' for Active; 'I' for Inactive)
REMARK    1  A    between atoms: C_1  and  C_2
REMARK    2  A    between atoms: C_2  and  C_3
REMARK    3  A    between atoms: C_2  and  C_4
REMARK    4  A    between atoms: C_2  and  C_5
REMARK    5  A    between atoms: C_5  and  C_6
REMARK    6  A    between atoms: N_8  and  C_9
REMARK    7  A    between atoms: C_12  and  C_13
REMARK    8  A    between atoms: C_13  and  N_14
REMARK                            x       y       z     vdW  Elec       q    Type
REMARK                         _______ _______ _______ _____ _____    ______ ____
ROOT
ATOM      1  C   UNL     1       2.020   7.787  19.572  0.00  0.00    +0.000 A 
ATOM      2  C   UNL     1       2.119   8.423  18.333  0.00  0.00    +0.000 A 
ATOM      3  C   UNL     1       1.435   9.617  18.084  0.00  0.00    +0.000 A 
ATOM      4  C   UNL     1       0.642  10.211  19.069  0.00  0.00    +0.000 A 
ATOM      5  C   UNL     1       0.523   9.565  20.309  0.00  0.00    +0.000 A 
ATOM      6  C   UNL     1       1.202   8.359  20.555  0.00  0.00    +0.000 A 
ENDROOT
BRANCH   1   9
ATOM      7  C   UNL     1       2.636   5.421  19.083  0.00  0.00    +0.000 C 
ATOM      8  O   UNL     1       2.153   5.330  17.959  0.00  0.00    +0.000 OA
ATOM      9  N   UNL     1       2.678   6.568  19.861  0.00  0.00    +0.000 N 
ATOM     10  H   UNL     1       3.296   6.566  20.663  0.00  0.00    +0.000 HD
BRANCH   7  11
ATOM     11  C   UNL     1       3.255   4.195  19.739  0.00  0.00    +0.000 C 
BRANCH  11  13
ATOM     12  C   UNL     1       2.125   1.973  19.168  0.00  0.00    +0.000 C 
ATOM     13  C   UNL     1       2.229   3.123  20.185  0.00  0.00    +0.000 C 
ATOM     14  C   UNL     1       0.839   3.745  20.388  0.00  0.00    +0.000 C 
ATOM     15  C   UNL     1       2.703   2.528  21.527  0.00  0.00    +0.000 C 
ENDBRANCH  11  13
ENDBRANCH   7  11
ENDBRANCH   1   9
BRANCH   4  16
ATOM     16  C   UNL     1      -0.104  11.492  18.765  0.00  0.00    +0.000 C 
BRANCH  16  17
ATOM     17  N   UNL     1      -1.514  11.291  19.025  0.00  0.00    +0.000 N 
ATOM     18  C   UNL     1      -2.362  11.212  17.978  0.00  0.00    +0.000 A 
ATOM     19  N   UNL     1      -2.039  10.841  16.760  0.00  0.00    +0.000 NA
ATOM     20  C   UNL     1      -3.155  10.852  15.946  0.00  0.00    +0.000 A 
ATOM     21  C   UNL     1      -4.322  11.274  16.544  0.00  0.00    +0.000 A 
ATOM     22  S   UNL     1      -4.024  11.625  18.192  0.00  0.00    +0.000 S 
ATOM     23  H   UNL     1      -1.861  11.747  19.860  0.00  0.00    +0.000 HD
ENDBRANCH  16  17
ENDBRANCH   4  16
TORSDOF 5
ENDMDL
MODEL 3
REMARK VINA RESULT:      -7.1      6.551      8.023
REMARK  Name = 
REMARK  8 active torsions:
REMARK  status: ('A' for Active; 'I' for Inactive)
REMARK    1  A    between atoms: C_1  and  C_2
REMARK    2  A    between atoms: C_2  and  C_3
REMARK    3  A    between atoms: C_2  and  C_4
REMARK    4  A    between atoms: C_2  and  C_5
REMARK    5  A    between atoms: C_5  and  C_6
REMARK    6  A    between atoms: N_8  and  C_9
REMARK    7  A    between atoms: C_12  and  C_13
REMARK    8  A    between atoms: C_13  and  N_14
REMARK                            x       y       z     vdW  Elec       q    Type
REMARK                         _______ _______ _______ _____ _____    ______ ____
ROOT
ATOM      1  C   UNL     1       1.714   8.014  19.898  0.00  0.00    +0.000 A 
ATOM      2  C   UNL     1       0.882   8.597  20.856  0.00  0.00    +0.000 A 
ATOM      3  C   UNL     1       0.209   9.793  20.587  0.00  0.00    +0.000 A 
ATOM      4  C   UNL     1       0.345  10.433  19.352  0.00  0.00    +0.000 A 
ATOM      5  C   UNL     1       1.196   9.862  18.395  0.00  0.00    +0.000 A 
ATOM      6  C   UNL     1       1.879   8.665  18.669  0.00  0.00    +0.000 A 
ENDROOT
BRANCH   1   9
ATOM      7  C   UNL     1       2.562   5.763  19.240  0.00  0.00    +0.000 C 
ATOM      8  O   UNL     1       2.215   5.770  18.063  0.00  0.00    +0.000 OA
ATOM      9  N   UNL     1       2.428   6.816  20.134  0.00  0.00    +0.000 N 
ATOM     10  H   UNL     1       2.952   6.762  20.999  0.00  0.00    +0.000 HD
BRANCH   7  11
ATOM     11  C   UNL     1       3.197   4.513  19.832  0.00  0.00    +0.000 C 
BRANCH  11  13
ATOM     12  C   UNL     1       2.247   2.227  19.191  0.00  0.00    +0.000 C 
ATOM     13  C   UNL     1       2.187   3.394  20.192  0.00  0.00    +0.000 C 
ATOM     14  C   UNL     1       0.753   3.943  20.241  0.00  0.00    +0.000 C 
ATOM     15  C   UNL     1       2.553   2.843  21.585  0.00  0.00    +0.000 C 
ENDBRANCH  11  13
ENDBRANCH   7  11
ENDBRANCH   1   9
BRANCH   4  16
ATOM     16  C   UNL     1      -0.378  11.738  19.097  0.00  0.00    +0.000 C 
BRANCH  16  17
ATOM     17  N   UNL     1      -0.884  11.741  17.740  0.00  0.00    +0.000 N 
ATOM     18  C   UNL     1      -2.202  11.535  17.539  0.00  0.00    +0.000 A 
ATOM     19  N   UNL     1      -3.155  11.781  18.410  0.00  0.00    +0.000 NA
ATOM     20  C   UNL     1      -4.388  11.475  17.866  0.00  0.00    +0.000 A 
ATOM     21  C   UNL     1      -4.363  10.957  16.590  0.00  0.00    +0.000 A 
ATOM     22  S   UNL     1      -2.747  10.892  16.033  0.00  0.00    +0.000 S 
ATOM     23  H   UNL     1      -0.251  11.355  17.050  0.00  0.00    +0.000 HD
ENDBRANCH  16  17
ENDBRANCH   4  16
TORSDOF 5
ENDMDL
MODEL 4
REMARK VINA RESULT:      -7.1      6.323      7.747
REMARK  Name = 
REMARK  8 active torsions:
REMARK  status: ('A' for Active; 'I' for Inactive)
REMARK    1  A    between atoms: C_1  and  C_2
REMARK    2  A    between atoms: C_2  and  C_3
REMARK    3  A    between atoms: C_2  and  C_4
REMARK    4  A    between atoms: C_2  and  C_5
REMARK    5  A    between atoms: C_5  and  C_6
REMARK    6  A    between atoms: N_8  and  C_9
REMARK    7  A    between atoms: C_12  and  C_13
REMARK    8  A    between atoms: C_13  and  N_14
REMARK                            x       y       z     vdW  Elec       q    Type
REMARK                         _______ _______ _______ _____ _____    ______ ____
ROOT
ATOM      1  C   UNL     1       2.318   7.587  19.065  0.00  0.00    +0.000 A 
ATOM      2  C   UNL     1       1.673   8.011  20.229  0.00  0.00    +0.000 A 
ATOM      3  C   UNL     1       0.882   9.164  20.230  0.00  0.00    +0.000 A 
ATOM      4  C   UNL     1       0.709   9.918  19.067  0.00  0.00    +0.000 A 
ATOM      5  C   UNL     1       1.371   9.508  17.900  0.00  0.00    +0.000 A 
ATOM      6  C   UNL     1       2.174   8.354  17.903  0.00  0.00    +0.000 A 
ENDROOT
BRANCH   1   9
ATOM      7  C   UNL     1       2.805   5.219  18.453  0.00  0.00    +0.000 C 
ATOM      8  O   UNL     1       1.812   4.995  17.769  0.00  0.00    +0.000 OA
ATOM      9  N   UNL     1       3.142   6.438  19.023  0.00  0.00    +0.000 N 
ATOM     10  H   UNL     1       4.088   6.545  19.369  0.00  0.00    +0.000 HD
BRANCH   7  11
ATOM     11  C   UNL     1       3.791   4.096  18.741  0.00  0.00    +0.000 C 
BRANCH  11  13
ATOM     12  C   UNL     1       4.372   2.166  20.315  0.00  0.00    +0.000 C 
ATOM     13  C   UNL     1       3.241   2.987  19.672  0.00  0.00    +0.000 C 
ATOM     14  C   UNL     1       2.304   2.041  18.905  0.00  0.00    +0.000 C 
ATOM     15  C   UNL     1       2.440   3.661  20.805  0.00  0.00    +0.000 C 
ENDBRANCH  11  13
ENDBRANCH   7  11
ENDBRANCH   1   9
BRANCH   4  16
ATOM     16  C   UNL     1      -0.135  11.173  19.103  0.00  0.00    +0.000 C 
BRANCH  16  17
ATOM     17  N   UNL     1      -0.724  11.385  17.797  0.00  0.00    +0.000 N 
ATOM     18  C   UNL     1      -2.069  11.381  17.684  0.00  0.00    +0.000 A 
ATOM     19  N   UNL     1      -2.918  11.662  18.646  0.00  0.00    +0.000 NA
ATOM     20  C   UNL     1      -4.215  11.584  18.177  0.00  0.00    +0.000 A 
ATOM     21  C   UNL     1      -4.349  11.201  16.861  0.00  0.00    +0.000 A 
ATOM     22  S   UNL     1      -2.798  10.976  16.172  0.00  0.00    +0.000 S 
ATOM     23  H   UNL     1      -0.201  10.990  17.025  0.00  0.00    +0.000 HD
ENDBRANCH  16  17
ENDBRANCH   4  16
TORSDOF 5
ENDMDL
MODEL 5
REMARK VINA RESULT:      -7.1      0.359      1.494
REMARK  Name = 
REMARK  8 active torsions:
REMARK  status: ('A' for Active; 'I' for Inactive)
REMARK    1  A    between atoms: C_1  and  C_2
REMARK    2  A    between atoms: C_2  and  C_3
REMARK    3  A    between atoms: C_2  and  C_4
REMARK    4  A    between atoms: C_2  and  C_5
REMARK    5  A    between atoms: C_5  and  C_6
REMARK    6  A    between atoms: N_8  and  C_9
REMARK    7  A    between atoms: C_12  and  C_13
REMARK    8  A    between atoms: C_13  and  N_14
REMARK                            x       y       z     vdW  Elec       q    Type
REMARK                         _______ _______ _______ _____ _____    ______ ____
ROOT
ATOM      1  C   UNL     1       5.876   5.280  18.615  0.00  0.00    +0.000 A 
ATOM      2  C   UNL     1       7.155   5.463  19.143  0.00  0.00    +0.000 A 
ATOM      3  C   UNL     1       7.929   6.568  18.776  0.00  0.00    +0.000 A 
ATOM      4  C   UNL     1       7.442   7.522  17.877  0.00  0.00    +0.000 A 
ATOM      5  C   UNL     1       6.166   7.331  17.329  0.00  0.00    +0.000 A 
ATOM      6  C   UNL     1       5.392   6.215  17.691  0.00  0.00    +0.000 A 
ENDROOT
BRANCH   1   9
ATOM      7  C   UNL     1       4.266   3.457  18.059  0.00  0.00    +0.000 C 
ATOM      8  O   UNL     1       4.255   3.584  16.839  0.00  0.00    +0.000 OA
ATOM      9  N   UNL     1       5.065   4.167  18.943  0.00  0.00    +0.000 N 
ATOM     10  H   UNL     1       5.141   3.815  19.890  0.00  0.00    +0.000 HD
BRANCH   7  11
ATOM     11  C   UNL     1       3.338   2.450  18.722  0.00  0.00    +0.000 C 
BRANCH  11  13
ATOM     12  C   UNL     1       1.819   4.506  18.792  0.00  0.00    +0.000 C 
ATOM     13  C   UNL     1       2.027   3.060  19.277  0.00  0.00    +0.000 C 
ATOM     14  C   UNL     1       2.019   3.038  20.814  0.00  0.00    +0.000 C 
ATOM     15  C   UNL     1       0.844   2.213  18.765  0.00  0.00    +0.000 C 
ENDBRANCH  11  13
ENDBRANCH   7  11
ENDBRANCH   1   9
BRANCH   4  16
ATOM     16  C   UNL     1       8.311   8.696  17.482  0.00  0.00    +0.000 C 
BRANCH  16  17
ATOM     17  N   UNL     1       8.779   9.362  18.679  0.00  0.00    +0.000 N 
ATOM     18  C   UNL     1       9.123  10.665  18.603  0.00  0.00    +0.000 A 
ATOM     19  N   UNL     1       8.671  11.524  17.719  0.00  0.00    +0.000 NA
ATOM     20  C   UNL     1       9.215  12.774  17.947  0.00  0.00    +0.000 A 
ATOM     21  C   UNL     1      10.115  12.850  18.986  0.00  0.00    +0.000 A 
ATOM     22  S   UNL     1      10.252  11.317  19.734  0.00  0.00    +0.000 S 
ATOM     23  H   UNL     1       9.325   8.781  19.303  0.00  0.00    +0.000 HD
ENDBRANCH  16  17
ENDBRANCH   4  16
TORSDOF 5
ENDMDL
MODEL 6
REMARK VINA RESULT:      -7.0      0.822      1.151
REMARK  Name = 
REMARK  8 active torsions:
REMARK  status: ('A' for Active; 'I' for Inactive)
REMARK    1  A    between atoms: C_1  and  C_2
REMARK    2  A    between atoms: C_2  and  C_3
REMARK    3  A    between atoms: C_2  and  C_4
REMARK    4  A    between atoms: C_2  and  C_5
REMARK    5  A    between atoms: C_5  and  C_6
REMARK    6  A    between atoms: N_8  and  C_9
REMARK    7  A    between atoms: C_12  and  C_13
REMARK    8  A    between atoms: C_13  and  N_14
REMARK                            x       y       z     vdW  Elec       q    Type
REMARK                         _______ _______ _______ _____ _____    ______ ____
ROOT
ATOM      1  C   UNL     1       5.820   5.322  18.603  0.00  0.00    +0.000 A 
ATOM      2  C   UNL     1       5.397   6.287  17.687  0.00  0.00    +0.000 A 
ATOM      3  C   UNL     1       6.229   7.354  17.336  0.00  0.00    +0.000 A 
ATOM      4  C   UNL     1       7.509   7.480  17.885  0.00  0.00    +0.000 A 
ATOM      5  C   UNL     1       7.929   6.524  18.821  0.00  0.00    +0.000 A 
ATOM      6  C   UNL     1       7.088   5.457  19.181  0.00  0.00    +0.000 A 
ENDROOT
BRANCH   1   9
ATOM      7  C   UNL     1       4.297   3.400  18.151  0.00  0.00    +0.000 C 
ATOM      8  O   UNL     1       4.388   3.373  16.928  0.00  0.00    +0.000 OA
ATOM      9  N   UNL     1       5.004   4.236  19.001  0.00  0.00    +0.000 N 
ATOM     10  H   UNL     1       5.005   4.006  19.988  0.00  0.00    +0.000 HD
BRANCH   7  11
ATOM     11  C   UNL     1       3.333   2.456  18.856  0.00  0.00    +0.000 C 
BRANCH  11  13
ATOM     12  C   UNL     1       0.788   2.219  18.780  0.00  0.00    +0.000 C 
ATOM     13  C   UNL     1       1.972   3.095  19.227  0.00  0.00    +0.000 C 
ATOM     14  C   UNL     1       1.831   4.491  18.601  0.00  0.00    +0.000 C 
ATOM     15  C   UNL     1       1.905   3.234  20.762  0.00  0.00    +0.000 C 
ENDBRANCH  11  13
ENDBRANCH   7  11
ENDBRANCH   1   9
BRANCH   4  16
ATOM     16  C   UNL     1       8.379   8.657  17.503  0.00  0.00    +0.000 C 
BRANCH  16  17
ATOM     17  N   UNL     1       8.305   9.658  18.546  0.00  0.00    +0.000 N 
ATOM     18  C   UNL     1       9.327  10.528  18.684  0.00  0.00    +0.000 A 
ATOM     19  N   UNL     1      10.161  10.884  17.734  0.00  0.00    +0.000 NA
ATOM     20  C   UNL     1      11.069  11.807  18.216  0.00  0.00    +0.000 A 
ATOM     21  C   UNL     1      10.945  12.121  19.551  0.00  0.00    +0.000 A 
ATOM     22  S   UNL     1       9.619  11.268  20.216  0.00  0.00    +0.000 S 
ATOM     23  H   UNL     1       7.847   9.354  19.397  0.00  0.00    +0.000 HD
ENDBRANCH  16  17
ENDBRANCH   4  16
TORSDOF 5
ENDMDL
MODEL 7
REMARK VINA RESULT:      -7.0      5.394      7.234
REMARK  Name = 
REMARK  8 active torsions:
REMARK  status: ('A' for Active; 'I' for Inactive)
REMARK    1  A    between atoms: C_1  and  C_2
REMARK    2  A    between atoms: C_2  and  C_3
REMARK    3  A    between atoms: C_2  and  C_4
REMARK    4  A    between atoms: C_2  and  C_5
REMARK    5  A    between atoms: C_5  and  C_6
REMARK    6  A    between atoms: N_8  and  C_9
REMARK    7  A    between atoms: C_12  and  C_13
REMARK    8  A    between atoms: C_13  and  N_14
REMARK                            x       y       z     vdW  Elec       q    Type
REMARK                         _______ _______ _______ _____ _____    ______ ____
ROOT
ATOM      1  C   UNL     1       2.642   5.902  18.669  0.00  0.00    +0.000 A 
ATOM      2  C   UNL     1       2.177   5.468  19.912  0.00  0.00    +0.000 A 
ATOM      3  C   UNL     1       1.638   6.374  20.831  0.00  0.00    +0.000 A 
ATOM      4  C   UNL     1       1.542   7.735  20.528  0.00  0.00    +0.000 A 
ATOM      5  C   UNL     1       2.027   8.178  19.289  0.00  0.00    +0.000 A 
ATOM      6  C   UNL     1       2.577   7.268  18.369  0.00  0.00    +0.000 A 
ENDROOT
BRANCH   1   9
ATOM      7  C   UNL     1       4.528   4.587  17.703  0.00  0.00    +0.000 C 
ATOM      8  O   UNL     1       5.356   4.769  18.591  0.00  0.00    +0.000 OA
ATOM      9  N   UNL     1       3.212   5.024  17.717  0.00  0.00    +0.000 N 
ATOM     10  H   UNL     1       2.579   4.620  17.036  0.00  0.00    +0.000 HD
BRANCH   7  11
ATOM     11  C   UNL     1       4.924   3.825  16.446  0.00  0.00    +0.000 C 
BRANCH  11  13
ATOM     12  C   UNL     1       5.275   6.135  15.405  0.00  0.00    +0.000 C 
ATOM     13  C   UNL     1       5.725   4.663  15.419  0.00  0.00    +0.000 C 
ATOM     14  C   UNL     1       5.585   4.079  14.005  0.00  0.00    +0.000 C 
ATOM     15  C   UNL     1       7.214   4.627  15.821  0.00  0.00    +0.000 C 
ENDBRANCH  11  13
ENDBRANCH   7  11
ENDBRANCH   1   9
BRANCH   4  16
ATOM     16  C   UNL     1       0.974   8.695  21.550  0.00  0.00    +0.000 C 
BRANCH  16  17
ATOM     17  N   UNL     1       0.863  10.009  20.953  0.00  0.00    +0.000 N 
ATOM     18  C   UNL     1       0.022  10.906  21.511  0.00  0.00    +0.000 A 
ATOM     19  N   UNL     1      -0.364  10.912  22.766  0.00  0.00    +0.000 NA
ATOM     20  C   UNL     1      -1.206  11.982  23.001  0.00  0.00    +0.000 A 
ATOM     21  C   UNL     1      -1.491  12.766  21.905  0.00  0.00    +0.000 A 
ATOM     22  S   UNL     1      -0.640  12.174  20.544  0.00  0.00    +0.000 S 
ATOM     23  H   UNL     1       0.944  10.026  19.944  0.00  0.00    +0.000 HD
ENDBRANCH  16  17
ENDBRANCH   4  16
TORSDOF 5
ENDMDL
MODEL 8
REMARK VINA RESULT:      -7.0      5.496      7.317
REMARK  Name = 
REMARK  8 active torsions:
REMARK  status: ('A' for Active; 'I' for Inactive)
REMARK    1  A    between atoms: C_1  and  C_2
REMARK    2  A    between atoms: C_2  and  C_3
REMARK    3  A    between atoms: C_2  and  C_4
REMARK    4  A    between atoms: C_2  and  C_5
REMARK    5  A    between atoms: C_5  and  C_6
REMARK    6  A    between atoms: N_8  and  C_9
REMARK    7  A    between atoms: C_12  and  C_13
REMARK    8  A    between atoms: C_13  and  N_14
REMARK                            x       y       z     vdW  Elec       q    Type
REMARK                         _______ _______ _______ _____ _____    ______ ____
ROOT
ATOM      1  C   UNL     1       2.645   6.083  18.627  0.00  0.00    +0.000 A 
ATOM      2  C   UNL     1       2.536   7.452  18.377  0.00  0.00    +0.000 A 
ATOM      3  C   UNL     1       1.973   8.312  19.326  0.00  0.00    +0.000 A 
ATOM      4  C   UNL     1       1.513   7.826  20.553  0.00  0.00    +0.000 A 
ATOM      5  C   UNL     1       1.602   6.448  20.801  0.00  0.00    +0.000 A 
ATOM      6  C   UNL     1       2.159   5.584  19.842  0.00  0.00    +0.000 A 
ENDROOT
BRANCH   1   9
ATOM      7  C   UNL     1       4.473   4.649  17.721  0.00  0.00    +0.000 C 
ATOM      8  O   UNL     1       5.276   4.767  18.640  0.00  0.00    +0.000 OA
ATOM      9  N   UNL     1       3.190   5.175  17.688  0.00  0.00    +0.000 N 
ATOM     10  H   UNL     1       2.558   4.821  16.981  0.00  0.00    +0.000 HD
BRANCH   7  11
ATOM     11  C   UNL     1       4.863   3.871  16.472  0.00  0.00    +0.000 C 
BRANCH  11  13
ATOM     12  C   UNL     1       5.314   6.153  15.410  0.00  0.00    +0.000 C 
ATOM     13  C   UNL     1       5.727   4.671  15.466  0.00  0.00    +0.000 C 
ATOM     14  C   UNL     1       5.630   4.068  14.057  0.00  0.00    +0.000 C 
ATOM     15  C   UNL     1       7.196   4.605  15.931  0.00  0.00    +0.000 C 
ENDBRANCH  11  13
ENDBRANCH   7  11
ENDBRANCH   1   9
BRANCH   4  16
ATOM     16  C   UNL     1       0.890   8.775  21.552  0.00  0.00    +0.000 C 
BRANCH  16  17
ATOM     17  N   UNL     1       0.573  10.021  20.886  0.00  0.00    +0.000 N 
ATOM     18  C   UNL     1      -0.242  10.899  21.507  0.00  0.00    +0.000 A 
ATOM     19  N   UNL     1      -0.426  10.986  22.805  0.00  0.00    +0.000 NA
ATOM     20  C   UNL     1      -1.309  12.009  23.094  0.00  0.00    +0.000 A 
ATOM     21  C   UNL     1      -1.828  12.672  22.005  0.00  0.00    +0.000 A 
ATOM     22  S   UNL     1      -1.154  12.027  20.571  0.00  0.00    +0.000 S 
ATOM     23  H   UNL     1       0.493   9.957  19.879  0.00  0.00    +0.000 HD
ENDBRANCH  16  17
ENDBRANCH   4  16
TORSDOF 5
ENDMDL
MODEL 9
REMARK VINA RESULT:      -6.9      6.422      7.831
REMARK  Name = 
REMARK  8 active torsions:
REMARK  status: ('A' for Active; 'I' for Inactive)
REMARK    1  A    between atoms: C_1  and  C_2
REMARK    2  A    between atoms: C_2  and  C_3
REMARK    3  A    between atoms: C_2  and  C_4
REMARK    4  A    between atoms: C_2  and  C_5
REMARK    5  A    between atoms: C_5  and  C_6
REMARK    6  A    between atoms: N_8  and  C_9
REMARK    7  A    between atoms: C_12  and  C_13
REMARK    8  A    between atoms: C_13  and  N_14
REMARK                            x       y       z     vdW  Elec       q    Type
REMARK                         _______ _______ _______ _____ _____    ______ ____
ROOT
ATOM      1  C   UNL     1       1.877   7.822  19.832  0.00  0.00    +0.000 A 
ATOM      2  C   UNL     1       1.892   8.429  18.576  0.00  0.00    +0.000 A 
ATOM      3  C   UNL     1       1.277   9.669  18.372  0.00  0.00    +0.000 A 
ATOM      4  C   UNL     1       0.640  10.337  19.421  0.00  0.00    +0.000 A 
ATOM      5  C   UNL     1       0.605   9.722  20.680  0.00  0.00    +0.000 A 
ATOM      6  C   UNL     1       1.215   8.471  20.882  0.00  0.00    +0.000 A 
ENDROOT
BRANCH   1   9
ATOM      7  C   UNL     1       3.192   5.812  19.163  0.00  0.00    +0.000 C 
ATOM      8  O   UNL     1       3.559   6.189  18.055  0.00  0.00    +0.000 OA
ATOM      9  N   UNL     1       2.469   6.561  20.080  0.00  0.00    +0.000 N 
ATOM     10  H   UNL     1       2.426   6.218  21.032  0.00  0.00    +0.000 HD
BRANCH   7  11
ATOM     11  C   UNL     1       3.527   4.402  19.629  0.00  0.00    +0.000 C 
BRANCH  11  13
ATOM     12  C   UNL     1       1.528   3.834  18.138  0.00  0.00    +0.000 C 
ATOM     13  C   UNL     1       2.465   3.338  19.253  0.00  0.00    +0.000 C 
ATOM     14  C   UNL     1       1.626   2.943  20.478  0.00  0.00    +0.000 C 
ATOM     15  C   UNL     1       3.200   2.086  18.733  0.00  0.00    +0.000 C 
ENDBRANCH  11  13
ENDBRANCH   7  11
ENDBRANCH   1   9
BRANCH   4  16
ATOM     16  C   UNL     1      -0.035  11.667  19.166  0.00  0.00    +0.000 C 
BRANCH  16  17
ATOM     17  N   UNL     1      -0.645  11.644  17.853  0.00  0.00    +0.000 N 
ATOM     18  C   UNL     1      -1.985  11.507  17.763  0.00  0.00    +0.000 A 
ATOM     19  N   UNL     1      -2.851  11.843  18.692  0.00  0.00    +0.000 NA
ATOM     20  C   UNL     1      -4.138  11.587  18.259  0.00  0.00    +0.000 A 
ATOM     21  C   UNL     1      -4.243  11.017  17.010  0.00  0.00    +0.000 A 
ATOM     22  S   UNL     1      -2.681  10.835  16.334  0.00  0.00    +0.000 S 
ATOM     23  H   UNL     1      -0.092  11.194  17.134  0.00  0.00    +0.000 HD
ENDBRANCH  16  17
ENDBRANCH   4  16
TORSDOF 5
ENDMDL
