MODEL 1
REMARK VINA RESULT:      -7.7      0.000      0.000
REMARK  Name = 
REMARK  6 active torsions:
REMARK  status: ('A' for Active; 'I' for Inactive)
REMARK    1  A    between atoms: N_3  and  C_4
REMARK    2  A    between atoms: N_10  and  C_11
REMARK    3  A    between atoms: N_14  and  C_15
REMARK    4  A    between atoms: C_15  and  C_16
REMARK    5  A    between atoms: C_16  and  C_17
REMARK    6  A    between atoms: N_29  and  C_30
REMARK                            x       y       z     vdW  Elec       q    Type
REMARK                         _______ _______ _______ _____ _____    ______ ____
ROOT
ATOM      1  C   UNL     1       0.746  10.247  19.743  0.00  0.00    +0.000 C 
ATOM      2  C   UNL     1       1.030  10.876  21.094  0.00  0.00    +0.000 C 
ATOM      3  O   UNL     1       2.199  10.851  21.516  0.00  0.00    +0.000 OA
ATOM      4  N   UNL     1       0.059  11.656  21.714  0.00  0.00    +0.000 N 
ATOM      5  C   UNL     1      -0.231  12.900  21.076  0.00  0.00    +0.000 A 
ATOM      6  C   UNL     1      -0.252  14.013  21.946  0.00  0.00    +0.000 A 
ATOM      7  C   UNL     1      -0.675  15.247  21.502  0.00  0.00    +0.000 A 
ATOM      8  C   UNL     1      -0.982  15.409  20.166  0.00  0.00    +0.000 A 
ATOM      9  C   UNL     1      -0.926  14.309  19.281  0.00  0.00    +0.000 A 
ATOM     10  C   UNL     1      -0.672  12.997  19.731  0.00  0.00    +0.000 A 
ATOM     11  N   UNL     1      -0.985  11.804  18.911  0.00  0.00    +0.000 N 
ATOM     12  C   UNL     1      -0.715  10.484  19.432  0.00  0.00    +0.000 C 
ATOM     13  O   UNL     1      -1.558   9.619  19.663  0.00  0.00    +0.000 OA
ENDROOT
BRANCH   1  17
ATOM     14  O   UNL     1       1.792   8.964  17.464  0.00  0.00    +0.000 OA
ATOM     15  C   UNL     1       1.880   8.362  18.536  0.00  0.00    +0.000 C 
ATOM     16  N   UNL     1       2.580   7.199  18.782  0.00  0.00    +0.000 N 
ATOM     17  N   UNL     1       1.247   8.854  19.690  0.00  0.00    +0.000 N 
ATOM     18  H   UNL     1       2.405   6.761  19.676  0.00  0.00    +0.000 HD
ATOM     19  H   UNL     1       1.719   8.595  20.529  0.00  0.00    +0.000 HD
BRANCH  16  20
ATOM     20  C   UNL     1       3.459   6.495  17.910  0.00  0.00    +0.000 A 
ATOM     21  C   UNL     1       4.494   7.100  17.191  0.00  0.00    +0.000 A 
ATOM     22  C   UNL     1       5.337   6.338  16.360  0.00  0.00    +0.000 A 
ATOM     23  C   UNL     1       5.159   4.963  16.235  0.00  0.00    +0.000 A 
ATOM     24  C   UNL     1       4.135   4.344  16.946  0.00  0.00    +0.000 A 
ATOM     25  C   UNL     1       3.296   5.103  17.775  0.00  0.00    +0.000 A 
ENDBRANCH  16  20
ENDBRANCH   1  17
BRANCH  11  26
ATOM     26  C   UNL     1      -2.114  11.805  18.001  0.00  0.00    +0.000 A 
ATOM     27  C   UNL     1      -1.880  11.213  16.744  0.00  0.00    +0.000 A 
ATOM     28  C   UNL     1      -2.779  10.271  16.281  0.00  0.00    +0.000 A 
ATOM     29  C   UNL     1      -4.009  10.124  16.906  0.00  0.00    +0.000 A 
ATOM     30  C   UNL     1      -4.390  11.026  17.885  0.00  0.00    +0.000 A 
ATOM     31  C   UNL     1      -3.439  11.912  18.419  0.00  0.00    +0.000 A 
ENDBRANCH  11  26
BRANCH   4  32
ATOM     32  C   UNL     1      -1.171  11.192  22.433  0.00  0.00    +0.000 C 
BRANCH  32  33
ATOM     33  C   UNL     1      -1.903  12.027  23.475  0.00  0.00    +0.000 C 
BRANCH  33  34
ATOM     34  C   UNL     1      -3.350  12.373  23.297  0.00  0.00    +0.000 A 
ATOM     35  C   UNL     1      -4.252  12.523  24.352  0.00  0.00    +0.000 A 
ATOM     36  C   UNL     1      -5.574  12.891  24.089  0.00  0.00    +0.000 A 
ATOM     37  C   UNL     1      -5.997  13.126  22.782  0.00  0.00    +0.000 A 
ATOM     38  C   UNL     1      -5.091  13.017  21.728  0.00  0.00    +0.000 A 
ATOM     39  C   UNL     1      -3.776  12.654  21.989  0.00  0.00    +0.000 A 
ENDBRANCH  33  34
ENDBRANCH  32  33
ENDBRANCH   4  32
TORSDOF 6
ENDMDL
MODEL 2
REMARK VINA RESULT:      -7.4      2.090      4.221
REMARK  Name = 
REMARK  6 active torsions:
REMARK  status: ('A' for Active; 'I' for Inactive)
REMARK    1  A    between atoms: N_3  and  C_4
REMARK    2  A    between atoms: N_10  and  C_11
REMARK    3  A    between atoms: N_14  and  C_15
REMARK    4  A    between atoms: C_15  and  C_16
REMARK    5  A    between atoms: C_16  and  C_17
REMARK    6  A    between atoms: N_29  and  C_30
REMARK                            x       y       z     vdW  Elec       q    Type
REMARK                         _______ _______ _______ _____ _____    ______ ____
ROOT
ATOM      1  C   UNL     1       0.878  10.626  19.711  0.00  0.00    +0.000 C 
ATOM      2  C   UNL     1      -0.583  10.278  19.914  0.00  0.00    +0.000 C 
ATOM      3  O   UNL     1      -0.869   9.103  20.204  0.00  0.00    +0.000 OA
ATOM      4  N   UNL     1      -1.532  11.291  20.004  0.00  0.00    +0.000 N 
ATOM      5  C   UNL     1      -1.454  12.106  21.174  0.00  0.00    +0.000 A 
ATOM      6  C   UNL     1      -2.686  12.301  21.835  0.00  0.00    +0.000 A 
ATOM      7  C   UNL     1      -2.792  13.192  22.881  0.00  0.00    +0.000 A 
ATOM      8  C   UNL     1      -1.652  13.819  23.345  0.00  0.00    +0.000 A 
ATOM      9  C   UNL     1      -0.409  13.599  22.713  0.00  0.00    +0.000 A 
ATOM     10  C   UNL     1      -0.291  12.836  21.533  0.00  0.00    +0.000 A 
ATOM     11  N   UNL     1       0.901  12.910  20.657  0.00  0.00    +0.000 N 
ATOM     12  C   UNL     1       0.957  12.114  19.453  0.00  0.00    +0.000 C 
ATOM     13  O   UNL     1       1.015  12.554  18.306  0.00  0.00    +0.000 OA
ENDROOT
BRANCH   1  17
ATOM     14  O   UNL     1       2.134   8.174  20.299  0.00  0.00    +0.000 OA
ATOM     15  C   UNL     1       1.979   8.453  19.108  0.00  0.00    +0.000 C 
ATOM     16  N   UNL     1       2.201   7.628  18.025  0.00  0.00    +0.000 N 
ATOM     17  N   UNL     1       1.509   9.719  18.723  0.00  0.00    +0.000 N 
ATOM     18  H   UNL     1       2.180   8.077  17.119  0.00  0.00    +0.000 HD
ATOM     19  H   UNL     1       1.006   9.699  17.862  0.00  0.00    +0.000 HD
BRANCH  16  20
ATOM     20  C   UNL     1       2.533   6.243  18.022  0.00  0.00    +0.000 A 
ATOM     21  C   UNL     1       1.587   5.217  17.947  0.00  0.00    +0.000 A 
ATOM     22  C   UNL     1       1.988   3.866  17.929  0.00  0.00    +0.000 A 
ATOM     23  C   UNL     1       3.336   3.524  17.985  0.00  0.00    +0.000 A 
ATOM     24  C   UNL     1       4.290   4.534  18.058  0.00  0.00    +0.000 A 
ATOM     25  C   UNL     1       3.891   5.878  18.074  0.00  0.00    +0.000 A 
ENDBRANCH  16  20
ENDBRANCH   1  17
BRANCH  11  26
ATOM     26  C   UNL     1       1.647  14.146  20.523  0.00  0.00    +0.000 A 
ATOM     27  C   UNL     1       3.049  14.014  20.554  0.00  0.00    +0.000 A 
ATOM     28  C   UNL     1       3.791  14.620  19.558  0.00  0.00    +0.000 A 
ATOM     29  C   UNL     1       3.195  15.552  18.722  0.00  0.00    +0.000 A 
ATOM     30  C   UNL     1       1.907  15.987  18.992  0.00  0.00    +0.000 A 
ATOM     31  C   UNL     1       1.128  15.299  19.937  0.00  0.00    +0.000 A 
ENDBRANCH  11  26
BRANCH   4  32
ATOM     32  C   UNL     1      -2.109  12.112  18.891  0.00  0.00    +0.000 C 
BRANCH  32  33
ATOM     33  C   UNL     1      -3.302  11.675  18.053  0.00  0.00    +0.000 C 
BRANCH  33  34
ATOM     34  C   UNL     1      -4.687  11.705  18.622  0.00  0.00    +0.000 A 
ATOM     35  C   UNL     1      -5.188  12.746  19.405  0.00  0.00    +0.000 A 
ATOM     36  C   UNL     1      -6.510  12.704  19.854  0.00  0.00    +0.000 A 
ATOM     37  C   UNL     1      -7.340  11.637  19.515  0.00  0.00    +0.000 A 
ATOM     38  C   UNL     1      -6.858  10.614  18.700  0.00  0.00    +0.000 A 
ATOM     39  C   UNL     1      -5.545  10.656  18.250  0.00  0.00    +0.000 A 
ENDBRANCH  33  34
ENDBRANCH  32  33
ENDBRANCH   4  32
TORSDOF 6
ENDMDL
MODEL 3
REMARK VINA RESULT:      -7.2      2.768      4.477
REMARK  Name = 
REMARK  6 active torsions:
REMARK  status: ('A' for Active; 'I' for Inactive)
REMARK    1  A    between atoms: N_3  and  C_4
REMARK    2  A    between atoms: N_10  and  C_11
REMARK    3  A    between atoms: N_14  and  C_15
REMARK    4  A    between atoms: C_15  and  C_16
REMARK    5  A    between atoms: C_16  and  C_17
REMARK    6  A    between atoms: N_29  and  C_30
REMARK                            x       y       z     vdW  Elec       q    Type
REMARK                         _______ _______ _______ _____ _____    ______ ____
ROOT
ATOM      1  C   UNL     1      -1.265  12.172  21.609  0.00  0.00    +0.000 C 
ATOM      2  C   UNL     1      -0.449  13.411  21.920  0.00  0.00    +0.000 C 
ATOM      3  O   UNL     1       0.643  13.552  21.344  0.00  0.00    +0.000 OA
ATOM      4  N   UNL     1      -1.019  14.455  22.641  0.00  0.00    +0.000 N 
ATOM      5  C   UNL     1      -2.054  15.175  21.969  0.00  0.00    +0.000 A 
ATOM      6  C   UNL     1      -1.918  16.580  22.022  0.00  0.00    +0.000 A 
ATOM      7  C   UNL     1      -2.923  17.402  21.559  0.00  0.00    +0.000 A 
ATOM      8  C   UNL     1      -4.023  16.836  20.946  0.00  0.00    +0.000 A 
ATOM      9  C   UNL     1      -4.147  15.433  20.855  0.00  0.00    +0.000 A 
ATOM     10  C   UNL     1      -3.231  14.557  21.473  0.00  0.00    +0.000 A 
ATOM     11  N   UNL     1      -3.541  13.130  21.718  0.00  0.00    +0.000 N 
ATOM     12  C   UNL     1      -2.567  12.285  22.370  0.00  0.00    +0.000 C 
ATOM     13  O   UNL     1      -2.714  11.729  23.456  0.00  0.00    +0.000 OA
ENDROOT
BRANCH   1  17
ATOM     14  O   UNL     1      -0.814  10.187  19.662  0.00  0.00    +0.000 OA
ATOM     15  C   UNL     1      -0.181  10.092  20.715  0.00  0.00    +0.000 C 
ATOM     16  N   UNL     1       0.848   9.217  20.991  0.00  0.00    +0.000 N 
ATOM     17  N   UNL     1      -0.459  10.943  21.798  0.00  0.00    +0.000 N 
ATOM     18  H   UNL     1       1.138   9.169  21.959  0.00  0.00    +0.000 HD
ATOM     19  H   UNL     1       0.338  11.105  22.376  0.00  0.00    +0.000 HD
BRANCH  16  20
ATOM     20  C   UNL     1       1.505   8.316  20.105  0.00  0.00    +0.000 A 
ATOM     21  C   UNL     1       1.824   6.995  20.432  0.00  0.00    +0.000 A 
ATOM     22  C   UNL     1       2.458   6.153  19.498  0.00  0.00    +0.000 A 
ATOM     23  C   UNL     1       2.780   6.617  18.227  0.00  0.00    +0.000 A 
ATOM     24  C   UNL     1       2.467   7.929  17.883  0.00  0.00    +0.000 A 
ATOM     25  C   UNL     1       1.834   8.767  18.812  0.00  0.00    +0.000 A 
ENDBRANCH  16  20
ENDBRANCH   1  17
BRANCH  11  26
ATOM     26  C   UNL     1      -4.899  12.704  21.998  0.00  0.00    +0.000 A 
ATOM     27  C   UNL     1      -5.460  13.210  23.187  0.00  0.00    +0.000 A 
ATOM     28  C   UNL     1      -6.713  13.791  23.130  0.00  0.00    +0.000 A 
ATOM     29  C   UNL     1      -7.499  13.629  21.999  0.00  0.00    +0.000 A 
ATOM     30  C   UNL     1      -7.092  12.756  21.003  0.00  0.00    +0.000 A 
ATOM     31  C   UNL     1      -5.781  12.250  21.019  0.00  0.00    +0.000 A 
ENDBRANCH  11  26
BRANCH   4  32
ATOM     32  C   UNL     1      -1.277  14.520  24.117  0.00  0.00    +0.000 C 
BRANCH  32  33
ATOM     33  C   UNL     1      -2.659  14.720  24.722  0.00  0.00    +0.000 C 
BRANCH  33  34
ATOM     34  C   UNL     1      -3.163  16.095  25.040  0.00  0.00    +0.000 A 
ATOM     35  C   UNL     1      -2.351  17.142  25.480  0.00  0.00    +0.000 A 
ATOM     36  C   UNL     1      -2.906  18.403  25.709  0.00  0.00    +0.000 A 
ATOM     37  C   UNL     1      -4.263  18.631  25.485  0.00  0.00    +0.000 A 
ATOM     38  C   UNL     1      -5.071  17.601  25.006  0.00  0.00    +0.000 A 
ATOM     39  C   UNL     1      -4.519  16.347  24.777  0.00  0.00    +0.000 A 
ENDBRANCH  33  34
ENDBRANCH  32  33
ENDBRANCH   4  32
TORSDOF 6
ENDMDL
MODEL 4
REMARK VINA RESULT:      -7.1      2.182      3.354
REMARK  Name = 
REMARK  6 active torsions:
REMARK  status: ('A' for Active; 'I' for Inactive)
REMARK    1  A    between atoms: N_3  and  C_4
REMARK    2  A    between atoms: N_10  and  C_11
REMARK    3  A    between atoms: N_14  and  C_15
REMARK    4  A    between atoms: C_15  and  C_16
REMARK    5  A    between atoms: C_16  and  C_17
REMARK    6  A    between atoms: N_29  and  C_30
REMARK                            x       y       z     vdW  Elec       q    Type
REMARK                         _______ _______ _______ _____ _____    ______ ____
ROOT
ATOM      1  C   UNL     1       0.390  11.000  21.220  0.00  0.00    +0.000 C 
ATOM      2  C   UNL     1      -0.491  11.120  22.448  0.00  0.00    +0.000 C 
ATOM      3  O   UNL     1      -0.250  10.378  23.415  0.00  0.00    +0.000 OA
ATOM      4  N   UNL     1      -1.378  12.185  22.564  0.00  0.00    +0.000 N 
ATOM      5  C   UNL     1      -0.779  13.470  22.738  0.00  0.00    +0.000 A 
ATOM      6  C   UNL     1      -1.331  14.235  23.788  0.00  0.00    +0.000 A 
ATOM      7  C   UNL     1      -0.964  15.552  23.969  0.00  0.00    +0.000 A 
ATOM      8  C   UNL     1       0.029  16.086  23.172  0.00  0.00    +0.000 A 
ATOM      9  C   UNL     1       0.613  15.314  22.144  0.00  0.00    +0.000 A 
ATOM     10  C   UNL     1       0.142  14.027  21.813  0.00  0.00    +0.000 A 
ATOM     11  N   UNL     1       0.466  13.371  20.525  0.00  0.00    +0.000 N 
ATOM     12  C   UNL     1      -0.059  12.057  20.236  0.00  0.00    +0.000 C 
ATOM     13  O   UNL     1      -0.834  11.780  19.322  0.00  0.00    +0.000 OA
ENDROOT
BRANCH   1  17
ATOM     14  O   UNL     1       1.836  10.087  18.982  0.00  0.00    +0.000 OA
ATOM     15  C   UNL     1       1.322   9.231  19.704  0.00  0.00    +0.000 C 
ATOM     16  N   UNL     1       1.509   7.866  19.638  0.00  0.00    +0.000 N 
ATOM     17  N   UNL     1       0.455   9.597  20.746  0.00  0.00    +0.000 N 
ATOM     18  H   UNL     1       0.880   7.308  20.201  0.00  0.00    +0.000 HD
ATOM     19  H   UNL     1       0.465   8.949  21.504  0.00  0.00    +0.000 HD
BRANCH  16  20
ATOM     20  C   UNL     1       2.420   7.136  18.822  0.00  0.00    +0.000 A 
ATOM     21  C   UNL     1       3.250   7.725  17.864  0.00  0.00    +0.000 A 
ATOM     22  C   UNL     1       4.142   6.943  17.104  0.00  0.00    +0.000 A 
ATOM     23  C   UNL     1       4.217   5.566  17.290  0.00  0.00    +0.000 A 
ATOM     24  C   UNL     1       3.398   4.964  18.242  0.00  0.00    +0.000 A 
ATOM     25  C   UNL     1       2.512   5.743  18.999  0.00  0.00    +0.000 A 
ENDBRANCH  16  20
ENDBRANCH   1  17
BRANCH  11  26
ATOM     26  C   UNL     1       0.651  14.156  19.319  0.00  0.00    +0.000 A 
ATOM     27  C   UNL     1      -0.450  14.946  18.935  0.00  0.00    +0.000 A 
ATOM     28  C   UNL     1      -0.236  16.280  18.645  0.00  0.00    +0.000 A 
ATOM     29  C   UNL     1       1.057  16.750  18.469  0.00  0.00    +0.000 A 
ATOM     30  C   UNL     1       2.110  15.851  18.427  0.00  0.00    +0.000 A 
ATOM     31  C   UNL     1       1.901  14.519  18.821  0.00  0.00    +0.000 A 
ENDBRANCH  11  26
BRANCH   4  32
ATOM     32  C   UNL     1      -2.695  12.365  21.870  0.00  0.00    +0.000 C 
BRANCH  32  33
ATOM     33  C   UNL     1      -3.730  13.402  22.283  0.00  0.00    +0.000 C 
BRANCH  33  34
ATOM     34  C   UNL     1      -5.162  13.013  22.489  0.00  0.00    +0.000 A 
ATOM     35  C   UNL     1      -6.014  12.600  21.463  0.00  0.00    +0.000 A 
ATOM     36  C   UNL     1      -7.323  12.214  21.760  0.00  0.00    +0.000 A 
ATOM     37  C   UNL     1      -7.783  12.222  23.076  0.00  0.00    +0.000 A 
ATOM     38  C   UNL     1      -6.925  12.593  24.109  0.00  0.00    +0.000 A 
ATOM     39  C   UNL     1      -5.622  12.975  23.815  0.00  0.00    +0.000 A 
ENDBRANCH  33  34
ENDBRANCH  32  33
ENDBRANCH   4  32
TORSDOF 6
ENDMDL
MODEL 5
REMARK VINA RESULT:      -7.1      1.963      4.913
REMARK  Name = 
REMARK  6 active torsions:
REMARK  status: ('A' for Active; 'I' for Inactive)
REMARK    1  A    between atoms: N_3  and  C_4
REMARK    2  A    between atoms: N_10  and  C_11
REMARK    3  A    between atoms: N_14  and  C_15
REMARK    4  A    between atoms: C_15  and  C_16
REMARK    5  A    between atoms: C_16  and  C_17
REMARK    6  A    between atoms: N_29  and  C_30
REMARK                            x       y       z     vdW  Elec       q    Type
REMARK                         _______ _______ _______ _____ _____    ______ ____
ROOT
ATOM      1  C   UNL     1       0.839  10.760  19.816  0.00  0.00    +0.000 C 
ATOM      2  C   UNL     1      -0.581  10.383  20.188  0.00  0.00    +0.000 C 
ATOM      3  O   UNL     1      -0.799   9.217  20.559  0.00  0.00    +0.000 OA
ATOM      4  N   UNL     1      -1.547  11.374  20.332  0.00  0.00    +0.000 N 
ATOM      5  C   UNL     1      -1.373  12.246  21.450  0.00  0.00    +0.000 A 
ATOM      6  C   UNL     1      -2.536  12.439  22.228  0.00  0.00    +0.000 A 
ATOM      7  C   UNL     1      -2.560  13.377  23.237  0.00  0.00    +0.000 A 
ATOM      8  C   UNL     1      -1.398  14.055  23.550  0.00  0.00    +0.000 A 
ATOM      9  C   UNL     1      -0.221  13.839  22.801  0.00  0.00    +0.000 A 
ATOM     10  C   UNL     1      -0.203  13.023  21.651  0.00  0.00    +0.000 A 
ATOM     11  N   UNL     1       0.889  13.086  20.652  0.00  0.00    +0.000 N 
ATOM     12  C   UNL     1       0.844  12.236  19.485  0.00  0.00    +0.000 C 
ATOM     13  O   UNL     1       0.768  12.621  18.320  0.00  0.00    +0.000 OA
ENDROOT
BRANCH   1  17
ATOM     14  O   UNL     1       2.224   8.372  20.378  0.00  0.00    +0.000 OA
ATOM     15  C   UNL     1       1.938   8.590  19.199  0.00  0.00    +0.000 C 
ATOM     16  N   UNL     1       2.072   7.720  18.137  0.00  0.00    +0.000 N 
ATOM     17  N   UNL     1       1.392   9.824  18.809  0.00  0.00    +0.000 N 
ATOM     18  H   UNL     1       1.944   8.125  17.219  0.00  0.00    +0.000 HD
ATOM     19  H   UNL     1       0.804   9.750  18.008  0.00  0.00    +0.000 HD
BRANCH  16  20
ATOM     20  C   UNL     1       2.444   6.346  18.160  0.00  0.00    +0.000 A 
ATOM     21  C   UNL     1       1.555   5.295  17.920  0.00  0.00    +0.000 A 
ATOM     22  C   UNL     1       1.996   3.957  17.941  0.00  0.00    +0.000 A 
ATOM     23  C   UNL     1       3.329   3.652  18.201  0.00  0.00    +0.000 A 
ATOM     24  C   UNL     1       4.228   4.687  18.440  0.00  0.00    +0.000 A 
ATOM     25  C   UNL     1       3.789   6.019  18.418  0.00  0.00    +0.000 A 
ENDBRANCH  16  20
ENDBRANCH   1  17
BRANCH  11  26
ATOM     26  C   UNL     1       1.578  14.334  20.384  0.00  0.00    +0.000 A 
ATOM     27  C   UNL     1       2.979  14.241  20.272  0.00  0.00    +0.000 A 
ATOM     28  C   UNL     1       3.593  14.818  19.177  0.00  0.00    +0.000 A 
ATOM     29  C   UNL     1       2.883  15.693  18.368  0.00  0.00    +0.000 A 
ATOM     30  C   UNL     1       1.618  16.106  18.754  0.00  0.00    +0.000 A 
ATOM     31  C   UNL     1       0.964  15.443  19.806  0.00  0.00    +0.000 A 
ENDBRANCH  11  26
BRANCH   4  32
ATOM     32  C   UNL     1      -2.262  12.125  19.250  0.00  0.00    +0.000 C 
BRANCH  32  33
ATOM     33  C   UNL     1      -3.507  11.606  18.545  0.00  0.00    +0.000 C 
BRANCH  33  34
ATOM     34  C   UNL     1      -3.411  10.978  17.188  0.00  0.00    +0.000 A 
ATOM     35  C   UNL     1      -4.231  11.316  16.111  0.00  0.00    +0.000 A 
ATOM     36  C   UNL     1      -4.036  10.706  14.870  0.00  0.00    +0.000 A 
ATOM     37  C   UNL     1      -3.017   9.771  14.693  0.00  0.00    +0.000 A 
ATOM     38  C   UNL     1      -2.169   9.458  15.753  0.00  0.00    +0.000 A 
ATOM     39  C   UNL     1      -2.361  10.067  16.987  0.00  0.00    +0.000 A 
ENDBRANCH  33  34
ENDBRANCH  32  33
ENDBRANCH   4  32
TORSDOF 6
ENDMDL
MODEL 6
REMARK VINA RESULT:      -7.1      2.188      4.700
REMARK  Name = 
REMARK  6 active torsions:
REMARK  status: ('A' for Active; 'I' for Inactive)
REMARK    1  A    between atoms: N_3  and  C_4
REMARK    2  A    between atoms: N_10  and  C_11
REMARK    3  A    between atoms: N_14  and  C_15
REMARK    4  A    between atoms: C_15  and  C_16
REMARK    5  A    between atoms: C_16  and  C_17
REMARK    6  A    between atoms: N_29  and  C_30
REMARK                            x       y       z     vdW  Elec       q    Type
REMARK                         _______ _______ _______ _____ _____    ______ ____
ROOT
ATOM      1  C   UNL     1       0.866  10.231  19.820  0.00  0.00    +0.000 C 
ATOM      2  C   UNL     1      -0.641  10.079  19.743  0.00  0.00    +0.000 C 
ATOM      3  O   UNL     1      -1.151   9.057  20.233  0.00  0.00    +0.000 OA
ATOM      4  N   UNL     1      -1.427  11.158  19.352  0.00  0.00    +0.000 N 
ATOM      5  C   UNL     1      -1.477  12.250  20.271  0.00  0.00    +0.000 A 
ATOM      6  C   UNL     1      -2.779  12.723  20.547  0.00  0.00    +0.000 A 
ATOM      7  C   UNL     1      -2.969  13.871  21.286  0.00  0.00    +0.000 A 
ATOM      8  C   UNL     1      -1.872  14.498  21.843  0.00  0.00    +0.000 A 
ATOM      9  C   UNL     1      -0.570  14.008  21.604  0.00  0.00    +0.000 A 
ATOM     10  C   UNL     1      -0.321  12.946  20.710  0.00  0.00    +0.000 A 
ATOM     11  N   UNL     1       1.026  12.675  20.158  0.00  0.00    +0.000 N 
ATOM     12  C   UNL     1       1.216  11.580  19.234  0.00  0.00    +0.000 C 
ATOM     13  O   UNL     1       1.578  11.686  18.063  0.00  0.00    +0.000 OA
ENDROOT
BRANCH   1  17
ATOM     14  O   UNL     1       1.757   8.009  21.305  0.00  0.00    +0.000 OA
ATOM     15  C   UNL     1       1.821   7.924  20.077  0.00  0.00    +0.000 C 
ATOM     16  N   UNL     1       2.127   6.802  19.336  0.00  0.00    +0.000 N 
ATOM     17  N   UNL     1       1.549   9.038  19.265  0.00  0.00    +0.000 N 
ATOM     18  H   UNL     1       2.295   6.958  18.351  0.00  0.00    +0.000 HD
ATOM     19  H   UNL     1       1.190   8.786  18.370  0.00  0.00    +0.000 HD
BRANCH  16  20
ATOM     20  C   UNL     1       2.312   5.465  19.790  0.00  0.00    +0.000 A 
ATOM     21  C   UNL     1       3.492   4.738  19.610  0.00  0.00    +0.000 A 
ATOM     22  C   UNL     1       3.612   3.424  20.103  0.00  0.00    +0.000 A 
ATOM     23  C   UNL     1       2.558   2.820  20.781  0.00  0.00    +0.000 A 
ATOM     24  C   UNL     1       1.377   3.531  20.972  0.00  0.00    +0.000 A 
ATOM     25  C   UNL     1       1.258   4.840  20.483  0.00  0.00    +0.000 A 
ENDBRANCH  16  20
ENDBRANCH   1  17
BRANCH  11  26
ATOM     26  C   UNL     1       1.958  13.758  19.910  0.00  0.00    +0.000 A 
ATOM     27  C   UNL     1       1.508  14.753  19.021  0.00  0.00    +0.000 A 
ATOM     28  C   UNL     1       1.613  16.077  19.405  0.00  0.00    +0.000 A 
ATOM     29  C   UNL     1       2.387  16.418  20.503  0.00  0.00    +0.000 A 
ATOM     30  C   UNL     1       3.176  15.454  21.110  0.00  0.00    +0.000 A 
ATOM     31  C   UNL     1       2.989  14.101  20.783  0.00  0.00    +0.000 A 
ENDBRANCH  11  26
BRANCH   4  32
ATOM     32  C   UNL     1      -1.630  11.694  17.966  0.00  0.00    +0.000 C 
BRANCH  32  33
ATOM     33  C   UNL     1      -2.713  11.196  17.021  0.00  0.00    +0.000 C 
BRANCH  33  34
ATOM     34  C   UNL     1      -4.151  11.193  17.441  0.00  0.00    +0.000 A 
ATOM     35  C   UNL     1      -4.691  10.309  18.376  0.00  0.00    +0.000 A 
ATOM     36  C   UNL     1      -6.036  10.414  18.737  0.00  0.00    +0.000 A 
ATOM     37  C   UNL     1      -6.844  11.404  18.181  0.00  0.00    +0.000 A 
ATOM     38  C   UNL     1      -6.302  12.316  17.276  0.00  0.00    +0.000 A 
ATOM     39  C   UNL     1      -4.963  12.214  16.919  0.00  0.00    +0.000 A 
ENDBRANCH  33  34
ENDBRANCH  32  33
ENDBRANCH   4  32
TORSDOF 6
ENDMDL
MODEL 7
REMARK VINA RESULT:      -7.1      2.158      4.580
REMARK  Name = 
REMARK  6 active torsions:
REMARK  status: ('A' for Active; 'I' for Inactive)
REMARK    1  A    between atoms: N_3  and  C_4
REMARK    2  A    between atoms: N_10  and  C_11
REMARK    3  A    between atoms: N_14  and  C_15
REMARK    4  A    between atoms: C_15  and  C_16
REMARK    5  A    between atoms: C_16  and  C_17
REMARK    6  A    between atoms: N_29  and  C_30
REMARK                            x       y       z     vdW  Elec       q    Type
REMARK                         _______ _______ _______ _____ _____    ______ ____
ROOT
ATOM      1  C   UNL     1       1.290  10.414  21.951  0.00  0.00    +0.000 C 
ATOM      2  C   UNL     1      -0.104  10.341  22.542  0.00  0.00    +0.000 C 
ATOM      3  O   UNL     1      -0.248   9.760  23.631  0.00  0.00    +0.000 OA
ATOM      4  N   UNL     1      -1.130  11.104  21.994  0.00  0.00    +0.000 N 
ATOM      5  C   UNL     1      -1.012  12.516  22.175  0.00  0.00    +0.000 A 
ATOM      6  C   UNL     1      -2.185  13.145  22.646  0.00  0.00    +0.000 A 
ATOM      7  C   UNL     1      -2.269  14.519  22.712  0.00  0.00    +0.000 A 
ATOM      8  C   UNL     1      -1.153  15.274  22.410  0.00  0.00    +0.000 A 
ATOM      9  C   UNL     1       0.036  14.649  21.976  0.00  0.00    +0.000 A 
ATOM     10  C   UNL     1       0.106  13.263  21.724  0.00  0.00    +0.000 A 
ATOM     11  N   UNL     1       1.192  12.658  20.919  0.00  0.00    +0.000 N 
ATOM     12  C   UNL     1       1.202  11.233  20.682  0.00  0.00    +0.000 C 
ATOM     13  O   UNL     1       1.103  10.689  19.585  0.00  0.00    +0.000 OA
ENDROOT
BRANCH   1  17
ATOM     14  O   UNL     1       0.063   8.122  20.867  0.00  0.00    +0.000 OA
ATOM     15  C   UNL     1       1.254   8.029  21.172  0.00  0.00    +0.000 C 
ATOM     16  N   UNL     1       2.104   6.979  20.892  0.00  0.00    +0.000 N 
ATOM     17  N   UNL     1       1.901   9.067  21.862  0.00  0.00    +0.000 N 
ATOM     18  H   UNL     1       2.999   7.002  21.361  0.00  0.00    +0.000 HD
ATOM     19  H   UNL     1       2.877   9.113  21.663  0.00  0.00    +0.000 HD
BRANCH  16  20
ATOM     20  C   UNL     1       1.856   5.830  20.089  0.00  0.00    +0.000 A 
ATOM     21  C   UNL     1       1.234   4.670  20.561  0.00  0.00    +0.000 A 
ATOM     22  C   UNL     1       1.004   3.575  19.704  0.00  0.00    +0.000 A 
ATOM     23  C   UNL     1       1.389   3.625  18.368  0.00  0.00    +0.000 A 
ATOM     24  C   UNL     1       2.006   4.773  17.882  0.00  0.00    +0.000 A 
ATOM     25  C   UNL     1       2.234   5.863  18.734  0.00  0.00    +0.000 A 
ENDBRANCH  16  20
ENDBRANCH   1  17
BRANCH  11  26
ATOM     26  C   UNL     1       1.801  13.391  19.826  0.00  0.00    +0.000 A 
ATOM     27  C   UNL     1       0.905  13.920  18.876  0.00  0.00    +0.000 A 
ATOM     28  C   UNL     1       1.028  15.250  18.522  0.00  0.00    +0.000 A 
ATOM     29  C   UNL     1       2.165  15.958  18.881  0.00  0.00    +0.000 A 
ATOM     30  C   UNL     1       3.236  15.288  19.449  0.00  0.00    +0.000 A 
ATOM     31  C   UNL     1       3.068  13.967  19.897  0.00  0.00    +0.000 A 
ENDBRANCH  11  26
BRANCH   4  32
ATOM     32  C   UNL     1      -1.891  10.849  20.728  0.00  0.00    +0.000 C 
BRANCH  32  33
ATOM     33  C   UNL     1      -2.191  11.926  19.695  0.00  0.00    +0.000 C 
BRANCH  33  34
ATOM     34  C   UNL     1      -2.711  11.559  18.338  0.00  0.00    +0.000 A 
ATOM     35  C   UNL     1      -1.947  10.934  17.351  0.00  0.00    +0.000 A 
ATOM     36  C   UNL     1      -2.534  10.591  16.131  0.00  0.00    +0.000 A 
ATOM     37  C   UNL     1      -3.882  10.854  15.895  0.00  0.00    +0.000 A 
ATOM     38  C   UNL     1      -4.661  11.442  16.891  0.00  0.00    +0.000 A 
ATOM     39  C   UNL     1      -4.079  11.780  18.105  0.00  0.00    +0.000 A 
ENDBRANCH  33  34
ENDBRANCH  32  33
ENDBRANCH   4  32
TORSDOF 6
ENDMDL
MODEL 8
REMARK VINA RESULT:      -7.1      2.667     10.759
REMARK  Name = 
REMARK  6 active torsions:
REMARK  status: ('A' for Active; 'I' for Inactive)
REMARK    1  A    between atoms: N_3  and  C_4
REMARK    2  A    between atoms: N_10  and  C_11
REMARK    3  A    between atoms: N_14  and  C_15
REMARK    4  A    between atoms: C_15  and  C_16
REMARK    5  A    between atoms: C_16  and  C_17
REMARK    6  A    between atoms: N_29  and  C_30
REMARK                            x       y       z     vdW  Elec       q    Type
REMARK                         _______ _______ _______ _____ _____    ______ ____
ROOT
ATOM      1  C   UNL     1       2.681   7.507  18.328  0.00  0.00    +0.000 C 
ATOM      2  C   UNL     1       3.813   7.983  17.439  0.00  0.00    +0.000 C 
ATOM      3  O   UNL     1       4.040   9.204  17.385  0.00  0.00    +0.000 OA
ATOM      4  N   UNL     1       4.705   7.063  16.898  0.00  0.00    +0.000 N 
ATOM      5  C   UNL     1       5.569   6.419  17.835  0.00  0.00    +0.000 A 
ATOM      6  C   UNL     1       6.931   6.407  17.463  0.00  0.00    +0.000 A 
ATOM      7  C   UNL     1       7.854   5.683  18.187  0.00  0.00    +0.000 A 
ATOM      8  C   UNL     1       7.448   5.049  19.345  0.00  0.00    +0.000 A 
ATOM      9  C   UNL     1       6.095   5.089  19.745  0.00  0.00    +0.000 A 
ATOM     10  C   UNL     1       5.092   5.667  18.939  0.00  0.00    +0.000 A 
ATOM     11  N   UNL     1       3.652   5.385  19.144  0.00  0.00    +0.000 N 
ATOM     12  C   UNL     1       2.671   5.996  18.277  0.00  0.00    +0.000 C 
ATOM     13  O   UNL     1       1.912   5.395  17.519  0.00  0.00    +0.000 OA
ENDROOT
BRANCH   1  17
ATOM     14  O   UNL     1       1.377   9.367  19.994  0.00  0.00    +0.000 OA
ATOM     15  C   UNL     1       0.935   9.231  18.852  0.00  0.00    +0.000 C 
ATOM     16  N   UNL     1      -0.027  10.005  18.236  0.00  0.00    +0.000 N 
ATOM     17  N   UNL     1       1.420   8.218  18.009  0.00  0.00    +0.000 N 
ATOM     18  H   UNL     1      -0.383   9.648  17.360  0.00  0.00    +0.000 HD
ATOM     19  H   UNL     1       1.361   8.457  17.043  0.00  0.00    +0.000 HD
BRANCH  16  20
ATOM     20  C   UNL     1      -0.637  11.201  18.710  0.00  0.00    +0.000 A 
ATOM     21  C   UNL     1      -1.941  11.265  19.210  0.00  0.00    +0.000 A 
ATOM     22  C   UNL     1      -2.475  12.481  19.680  0.00  0.00    +0.000 A 
ATOM     23  C   UNL     1      -1.716  13.646  19.658  0.00  0.00    +0.000 A 
ATOM     24  C   UNL     1      -0.415  13.600  19.166  0.00  0.00    +0.000 A 
ATOM     25  C   UNL     1       0.118  12.390  18.699  0.00  0.00    +0.000 A 
ENDBRANCH  16  20
ENDBRANCH   1  17
BRANCH  11  26
ATOM     26  C   UNL     1       3.211   4.093  19.633  0.00  0.00    +0.000 A 
ATOM     27  C   UNL     1       2.221   4.129  20.635  0.00  0.00    +0.000 A 
ATOM     28  C   UNL     1       1.096   3.342  20.478  0.00  0.00    +0.000 A 
ATOM     29  C   UNL     1       1.075   2.349  19.510  0.00  0.00    +0.000 A 
ATOM     30  C   UNL     1       2.236   2.047  18.817  0.00  0.00    +0.000 A 
ATOM     31  C   UNL     1       3.341   2.911  18.906  0.00  0.00    +0.000 A 
ENDBRANCH  11  26
BRANCH   4  32
ATOM     32  C   UNL     1       4.481   6.134  15.743  0.00  0.00    +0.000 C 
BRANCH  32  33
ATOM     33  C   UNL     1       5.185   4.794  15.592  0.00  0.00    +0.000 C 
BRANCH  33  34
ATOM     34  C   UNL     1       5.833   4.414  14.296  0.00  0.00    +0.000 A 
ATOM     35  C   UNL     1       5.255   3.561  13.353  0.00  0.00    +0.000 A 
ATOM     36  C   UNL     1       5.919   3.301  12.152  0.00  0.00    +0.000 A 
ATOM     37  C   UNL     1       7.149   3.897  11.879  0.00  0.00    +0.000 A 
ATOM     38  C   UNL     1       7.713   4.781  12.798  0.00  0.00    +0.000 A 
ATOM     39  C   UNL     1       7.052   5.042  13.991  0.00  0.00    +0.000 A 
ENDBRANCH  33  34
ENDBRANCH  32  33
ENDBRANCH   4  32
TORSDOF 6
ENDMDL
MODEL 9
REMARK VINA RESULT:      -7.1      2.241      3.949
REMARK  Name = 
REMARK  6 active torsions:
REMARK  status: ('A' for Active; 'I' for Inactive)
REMARK    1  A    between atoms: N_3  and  C_4
REMARK    2  A    between atoms: N_10  and  C_11
REMARK    3  A    between atoms: N_14  and  C_15
REMARK    4  A    between atoms: C_15  and  C_16
REMARK    5  A    between atoms: C_16  and  C_17
REMARK    6  A    between atoms: N_29  and  C_30
REMARK                            x       y       z     vdW  Elec       q    Type
REMARK                         _______ _______ _______ _____ _____    ______ ____
ROOT
ATOM      1  C   UNL     1       0.008  12.257  20.949  0.00  0.00    +0.000 C 
ATOM      2  C   UNL     1      -0.893  12.471  22.150  0.00  0.00    +0.000 C 
ATOM      3  O   UNL     1      -0.741  11.728  23.134  0.00  0.00    +0.000 OA
ATOM      4  N   UNL     1      -1.689  13.609  22.225  0.00  0.00    +0.000 N 
ATOM      5  C   UNL     1      -0.988  14.841  22.397  0.00  0.00    +0.000 A 
ATOM      6  C   UNL     1      -1.500  15.668  23.421  0.00  0.00    +0.000 A 
ATOM      7  C   UNL     1      -1.028  16.952  23.592  0.00  0.00    +0.000 A 
ATOM      8  C   UNL     1       0.028  17.387  22.816  0.00  0.00    +0.000 A 
ATOM      9  C   UNL     1       0.571  16.551  21.816  0.00  0.00    +0.000 A 
ATOM     10  C   UNL     1       0.001  15.303  21.491  0.00  0.00    +0.000 A 
ATOM     11  N   UNL     1       0.303  14.601  20.222  0.00  0.00    +0.000 N 
ATOM     12  C   UNL     1      -0.324  13.331  19.937  0.00  0.00    +0.000 C 
ATOM     13  O   UNL     1      -1.095  13.105  19.007  0.00  0.00    +0.000 OA
ENDROOT
BRANCH   1  17
ATOM     14  O   UNL     1       1.816  11.050  19.158  0.00  0.00    +0.000 OA
ATOM     15  C   UNL     1       1.002  10.311  19.714  0.00  0.00    +0.000 C 
ATOM     16  N   UNL     1       0.977   8.932  19.689  0.00  0.00    +0.000 N 
ATOM     17  N   UNL     1      -0.035  10.846  20.498  0.00  0.00    +0.000 N 
ATOM     18  H   UNL     1       0.143   8.500  20.064  0.00  0.00    +0.000 HD
ATOM     19  H   UNL     1      -0.325  10.230  21.226  0.00  0.00    +0.000 HD
BRANCH  16  20
ATOM     20  C   UNL     1       1.938   8.040  19.133  0.00  0.00    +0.000 A 
ATOM     21  C   UNL     1       2.581   8.253  17.910  0.00  0.00    +0.000 A 
ATOM     22  C   UNL     1       3.536   7.336  17.428  0.00  0.00    +0.000 A 
ATOM     23  C   UNL     1       3.862   6.198  18.160  0.00  0.00    +0.000 A 
ATOM     24  C   UNL     1       3.232   5.973  19.381  0.00  0.00    +0.000 A 
ATOM     25  C   UNL     1       2.283   6.886  19.861  0.00  0.00    +0.000 A 
ENDBRANCH  16  20
ENDBRANCH   1  17
BRANCH  11  26
ATOM     26  C   UNL     1       0.586  15.347  19.011  0.00  0.00    +0.000 A 
ATOM     27  C   UNL     1      -0.442  16.205  18.574  0.00  0.00    +0.000 A 
ATOM     28  C   UNL     1      -0.122  17.515  18.269  0.00  0.00    +0.000 A 
ATOM     29  C   UNL     1       1.207  17.888  18.131  0.00  0.00    +0.000 A 
ATOM     30  C   UNL     1       2.194  16.916  18.143  0.00  0.00    +0.000 A 
ATOM     31  C   UNL     1       1.875  15.610  18.552  0.00  0.00    +0.000 A 
ENDBRANCH  11  26
BRANCH   4  32
ATOM     32  C   UNL     1      -2.967  13.888  21.493  0.00  0.00    +0.000 C 
BRANCH  32  33
ATOM     33  C   UNL     1      -3.966  12.809  21.102  0.00  0.00    +0.000 C 
BRANCH  33  34
ATOM     34  C   UNL     1      -5.287  12.702  21.802  0.00  0.00    +0.000 A 
ATOM     35  C   UNL     1      -6.438  12.167  21.221  0.00  0.00    +0.000 A 
ATOM     36  C   UNL     1      -7.613  12.069  21.970  0.00  0.00    +0.000 A 
ATOM     37  C   UNL     1      -7.643  12.486  23.299  0.00  0.00    +0.000 A 
ATOM     38  C   UNL     1      -6.487  12.984  23.898  0.00  0.00    +0.000 A 
ATOM     39  C   UNL     1      -5.317  13.079  23.155  0.00  0.00    +0.000 A 
ENDBRANCH  33  34
ENDBRANCH  32  33
ENDBRANCH   4  32
TORSDOF 6
ENDMDL
