MODEL 1
REMARK VINA RESULT:      -7.2      0.000      0.000
REMARK  Name = 
REMARK  3 active torsions:
REMARK  status: ('A' for Active; 'I' for Inactive)
REMARK    1  A    between atoms: C_4  and  C_5
REMARK    2  A    between atoms: C_5  and  N_6
REMARK    3  A    between atoms: C_10  and  C_12
REMARK                            x       y       z     vdW  Elec       q    Type
REMARK                         _______ _______ _______ _____ _____    ______ ____
ROOT
ATOM      1  N   UNL     1       4.868   4.574  19.325  0.00  0.00    +0.000 NA
ATOM      2  C   UNL     1       4.726   3.465  18.358  0.00  0.00    +0.000 C 
ATOM      3  C   UNL     1       4.847   3.785  16.840  0.00  0.00    +0.000 C 
ATOM      4  N   UNL     1       5.860   4.799  16.526  0.00  0.00    +0.000 N 
ATOM      5  C   UNL     1       6.583   4.906  15.337  0.00  0.00    +0.000 C 
ATOM      6  O   UNL     1       7.423   5.797  15.187  0.00  0.00    +0.000 OA
ATOM      7  C   UNL     1       5.860   5.940  17.434  0.00  0.00    +0.000 C 
ATOM      8  C   UNL     1       5.962   5.474  18.893  0.00  0.00    +0.000 C 
ENDROOT
BRANCH   5   9
ATOM      9  C   UNL     1       6.340   3.853  14.227  0.00  0.00    +0.000 C 
ATOM     10  C   UNL     1       7.247   4.045  13.015  0.00  0.00    +0.000 C 
ATOM     11  C   UNL     1       6.468   3.436  11.864  0.00  0.00    +0.000 C 
ATOM     12  C   UNL     1       5.012   3.529  12.280  0.00  0.00    +0.000 C 
ATOM     13  N   UNL     1       4.988   4.019  13.653  0.00  0.00    +0.000 NA
ATOM     14  H   UNL     1       4.294   3.520  14.200  0.00  0.00    +0.000 HD
ENDBRANCH   5   9
BRANCH   1  15
ATOM     15  C   UNL     1       3.628   5.342  19.533  0.00  0.00    +0.000 C 
BRANCH  15  19
ATOM     16  N   UNL     1       1.224   2.295  22.359  0.00  0.00    +0.000 N 
ATOM     17  C   UNL     1       1.506   3.145  21.363  0.00  0.00    +0.000 A 
ATOM     18  N   UNL     1       2.560   3.910  21.255  0.00  0.00    +0.000 NA
ATOM     19  C   UNL     1       2.471   4.511  20.012  0.00  0.00    +0.000 A 
ATOM     20  C   UNL     1       1.303   4.114  19.391  0.00  0.00    +0.000 A 
ATOM     21  N   UNL     1       0.687   3.269  20.277  0.00  0.00    +0.000 N 
ATOM     22  H   UNL     1       2.007   2.126  22.984  0.00  0.00    +0.000 HD
ATOM     23  H   UNL     1       0.707   1.447  22.165  0.00  0.00    +0.000 HD
ATOM     24  H   UNL     1      -0.190   2.791  20.150  0.00  0.00    +0.000 HD
ENDBRANCH  15  19
ENDBRANCH   1  15
TORSDOF 3
ENDMDL
MODEL 2
REMARK VINA RESULT:      -6.8      0.902      1.082
REMARK  Name = 
REMARK  3 active torsions:
REMARK  status: ('A' for Active; 'I' for Inactive)
REMARK    1  A    between atoms: C_4  and  C_5
REMARK    2  A    between atoms: C_5  and  N_6
REMARK    3  A    between atoms: C_10  and  C_12
REMARK                            x       y       z     vdW  Elec       q    Type
REMARK                         _______ _______ _______ _____ _____    ______ ____
ROOT
ATOM      1  N   UNL     1       4.650   4.018  19.100  0.00  0.00    +0.000 NA
ATOM      2  C   UNL     1       4.325   3.489  17.758  0.00  0.00    +0.000 C 
ATOM      3  C   UNL     1       4.646   4.371  16.516  0.00  0.00    +0.000 C 
ATOM      4  N   UNL     1       5.897   5.128  16.634  0.00  0.00    +0.000 N 
ATOM      5  C   UNL     1       6.721   5.534  15.582  0.00  0.00    +0.000 C 
ATOM      6  O   UNL     1       7.761   6.161  15.801  0.00  0.00    +0.000 OA
ATOM      7  C   UNL     1       6.097   5.746  17.939  0.00  0.00    +0.000 C 
ATOM      8  C   UNL     1       5.962   4.704  19.060  0.00  0.00    +0.000 C 
ENDROOT
BRANCH   5   9
ATOM      9  C   UNL     1       6.323   5.140  14.137  0.00  0.00    +0.000 C 
ATOM     10  C   UNL     1       6.109   3.638  13.967  0.00  0.00    +0.000 C 
ATOM     11  C   UNL     1       6.393   3.384  12.499  0.00  0.00    +0.000 C 
ATOM     12  C   UNL     1       7.328   4.503  12.078  0.00  0.00    +0.000 C 
ATOM     13  N   UNL     1       7.436   5.420  13.207  0.00  0.00    +0.000 NA
ATOM     14  H   UNL     1       7.415   6.383  12.889  0.00  0.00    +0.000 HD
ENDBRANCH   5   9
BRANCH   1  15
ATOM     15  C   UNL     1       3.620   4.916  19.649  0.00  0.00    +0.000 C 
BRANCH  15  19
ATOM     16  N   UNL     1       1.053   2.076  22.546  0.00  0.00    +0.000 N 
ATOM     17  C   UNL     1       1.372   2.915  21.550  0.00  0.00    +0.000 A 
ATOM     18  N   UNL     1       2.494   3.566  21.400  0.00  0.00    +0.000 NA
ATOM     19  C   UNL     1       2.407   4.201  20.175  0.00  0.00    +0.000 A 
ATOM     20  C   UNL     1       1.173   3.945  19.610  0.00  0.00    +0.000 A 
ATOM     21  N   UNL     1       0.516   3.150  20.512  0.00  0.00    +0.000 N 
ATOM     22  H   UNL     1       1.844   1.810  23.124  0.00  0.00    +0.000 HD
ATOM     23  H   UNL     1       0.438   1.293  22.364  0.00  0.00    +0.000 HD
ATOM     24  H   UNL     1      -0.412   2.770  20.424  0.00  0.00    +0.000 HD
ENDBRANCH  15  19
ENDBRANCH   1  15
TORSDOF 3
ENDMDL
MODEL 3
REMARK VINA RESULT:      -6.7      3.549      7.835
REMARK  Name = 
REMARK  3 active torsions:
REMARK  status: ('A' for Active; 'I' for Inactive)
REMARK    1  A    between atoms: C_4  and  C_5
REMARK    2  A    between atoms: C_5  and  N_6
REMARK    3  A    between atoms: C_10  and  C_12
REMARK                            x       y       z     vdW  Elec       q    Type
REMARK                         _______ _______ _______ _____ _____    ______ ____
ROOT
ATOM      1  N   UNL     1       3.507   4.367  18.339  0.00  0.00    +0.000 NA
ATOM      2  C   UNL     1       2.689   4.326  19.570  0.00  0.00    +0.000 C 
ATOM      3  C   UNL     1       2.519   5.637  20.391  0.00  0.00    +0.000 C 
ATOM      4  N   UNL     1       2.394   6.842  19.565  0.00  0.00    +0.000 N 
ATOM      5  C   UNL     1       1.710   8.011  19.904  0.00  0.00    +0.000 C 
ATOM      6  O   UNL     1       1.662   8.963  19.121  0.00  0.00    +0.000 OA
ATOM      7  C   UNL     1       3.325   6.893  18.443  0.00  0.00    +0.000 C 
ATOM      8  C   UNL     1       3.225   5.616  17.596  0.00  0.00    +0.000 C 
ENDROOT
BRANCH   5   9
ATOM      9  C   UNL     1       0.976   8.068  21.267  0.00  0.00    +0.000 C 
ATOM     10  C   UNL     1      -0.335   8.847  21.204  0.00  0.00    +0.000 C 
ATOM     11  C   UNL     1      -0.538   9.352  22.621  0.00  0.00    +0.000 C 
ATOM     12  C   UNL     1       0.855   9.424  23.218  0.00  0.00    +0.000 C 
ATOM     13  N   UNL     1       1.770   8.843  22.243  0.00  0.00    +0.000 NA
ATOM     14  H   UNL     1       2.459   8.256  22.703  0.00  0.00    +0.000 HD
ENDBRANCH   5   9
BRANCH   1  15
ATOM     15  C   UNL     1       4.953   4.234  18.583  0.00  0.00    +0.000 C 
BRANCH  15  19
ATOM     16  N   UNL     1       6.375   3.547  14.049  0.00  0.00    +0.000 N 
ATOM     17  C   UNL     1       6.321   4.016  15.303  0.00  0.00    +0.000 A 
ATOM     18  N   UNL     1       5.353   3.850  16.165  0.00  0.00    +0.000 NA
ATOM     19  C   UNL     1       5.797   4.405  17.351  0.00  0.00    +0.000 A 
ATOM     20  C   UNL     1       7.052   4.952  17.164  0.00  0.00    +0.000 A 
ATOM     21  N   UNL     1       7.357   4.722  15.847  0.00  0.00    +0.000 N 
ATOM     22  H   UNL     1       5.661   2.857  13.842  0.00  0.00    +0.000 HD
ATOM     23  H   UNL     1       7.269   3.299  13.644  0.00  0.00    +0.000 HD
ATOM     24  H   UNL     1       8.201   4.985  15.365  0.00  0.00    +0.000 HD
ENDBRANCH  15  19
ENDBRANCH   1  15
TORSDOF 3
ENDMDL
MODEL 4
REMARK VINA RESULT:      -6.5      2.131      7.077
REMARK  Name = 
REMARK  3 active torsions:
REMARK  status: ('A' for Active; 'I' for Inactive)
REMARK    1  A    between atoms: C_4  and  C_5
REMARK    2  A    between atoms: C_5  and  N_6
REMARK    3  A    between atoms: C_10  and  C_12
REMARK                            x       y       z     vdW  Elec       q    Type
REMARK                         _______ _______ _______ _____ _____    ______ ____
ROOT
ATOM      1  N   UNL     1       6.592   6.110  15.964  0.00  0.00    +0.000 NA
ATOM      2  C   UNL     1       5.164   5.845  15.688  0.00  0.00    +0.000 C 
ATOM      3  C   UNL     1       4.396   4.873  16.629  0.00  0.00    +0.000 C 
ATOM      4  N   UNL     1       4.778   4.987  18.040  0.00  0.00    +0.000 N 
ATOM      5  C   UNL     1       3.965   4.713  19.142  0.00  0.00    +0.000 C 
ATOM      6  O   UNL     1       4.392   4.855  20.291  0.00  0.00    +0.000 OA
ATOM      7  C   UNL     1       6.214   5.104  18.259  0.00  0.00    +0.000 C 
ATOM      8  C   UNL     1       6.800   6.251  17.423  0.00  0.00    +0.000 C 
ENDROOT
BRANCH   5   9
ATOM      9  C   UNL     1       2.503   4.269  18.890  0.00  0.00    +0.000 C 
ATOM     10  C   UNL     1       1.639   4.324  20.147  0.00  0.00    +0.000 C 
ATOM     11  C   UNL     1       0.553   3.295  19.900  0.00  0.00    +0.000 C 
ATOM     12  C   UNL     1       1.161   2.305  18.923  0.00  0.00    +0.000 C 
ATOM     13  N   UNL     1       2.458   2.838  18.526  0.00  0.00    +0.000 NA
ATOM     14  H   UNL     1       2.609   2.708  17.530  0.00  0.00    +0.000 HD
ENDBRANCH   5   9
BRANCH   1  15
ATOM     15  C   UNL     1       7.501   5.088  15.415  0.00  0.00    +0.000 C 
BRANCH  15  19
ATOM     16  N   UNL     1       5.752   2.422  11.826  0.00  0.00    +0.000 N 
ATOM     17  C   UNL     1       6.355   3.420  12.486  0.00  0.00    +0.000 A 
ATOM     18  N   UNL     1       6.338   3.636  13.774  0.00  0.00    +0.000 NA
ATOM     19  C   UNL     1       7.193   4.699  13.996  0.00  0.00    +0.000 A 
ATOM     20  C   UNL     1       7.696   5.146  12.790  0.00  0.00    +0.000 A 
ATOM     21  N   UNL     1       7.129   4.340  11.837  0.00  0.00    +0.000 N 
ATOM     22  H   UNL     1       5.404   1.685  12.432  0.00  0.00    +0.000 HD
ATOM     23  H   UNL     1       6.173   2.050  10.984  0.00  0.00    +0.000 HD
ATOM     24  H   UNL     1       7.275   4.382  10.842  0.00  0.00    +0.000 HD
ENDBRANCH  15  19
ENDBRANCH   1  15
TORSDOF 3
ENDMDL
MODEL 5
REMARK VINA RESULT:      -6.4      4.588      7.837
REMARK  Name = 
REMARK  3 active torsions:
REMARK  status: ('A' for Active; 'I' for Inactive)
REMARK    1  A    between atoms: C_4  and  C_5
REMARK    2  A    between atoms: C_5  and  N_6
REMARK    3  A    between atoms: C_10  and  C_12
REMARK                            x       y       z     vdW  Elec       q    Type
REMARK                         _______ _______ _______ _____ _____    ______ ____
ROOT
ATOM      1  N   UNL     1       2.711   5.394  19.205  0.00  0.00    +0.000 NA
ATOM      2  C   UNL     1       1.929   5.973  20.319  0.00  0.00    +0.000 C 
ATOM      3  C   UNL     1       1.888   7.521  20.470  0.00  0.00    +0.000 C 
ATOM      4  N   UNL     1       1.834   8.240  19.192  0.00  0.00    +0.000 N 
ATOM      5  C   UNL     1       1.256   9.491  18.970  0.00  0.00    +0.000 C 
ATOM      6  O   UNL     1       1.261   9.997  17.845  0.00  0.00    +0.000 OA
ATOM      7  C   UNL     1       2.733   7.709  18.174  0.00  0.00    +0.000 C 
ATOM      8  C   UNL     1       2.507   6.203  17.982  0.00  0.00    +0.000 C 
ENDROOT
BRANCH   5   9
ATOM      9  C   UNL     1       0.569  10.209  20.159  0.00  0.00    +0.000 C 
ATOM     10  C   UNL     1      -0.879  10.591  19.867  0.00  0.00    +0.000 C 
ATOM     11  C   UNL     1      -1.142  11.781  20.770  0.00  0.00    +0.000 C 
ATOM     12  C   UNL     1       0.221  12.402  21.011  0.00  0.00    +0.000 C 
ATOM     13  N   UNL     1       1.209  11.518  20.405  0.00  0.00    +0.000 NA
ATOM     14  H   UNL     1       2.021  11.421  21.006  0.00  0.00    +0.000 HD
ENDBRANCH   5   9
BRANCH   1  15
ATOM     15  C   UNL     1       4.148   5.262  19.496  0.00  0.00    +0.000 C 
BRANCH  15  19
ATOM     16  N   UNL     1       7.738   4.644  16.368  0.00  0.00    +0.000 N 
ATOM     17  C   UNL     1       6.604   4.440  17.053  0.00  0.00    +0.000 A 
ATOM     18  N   UNL     1       6.208   5.071  18.125  0.00  0.00    +0.000 NA
ATOM     19  C   UNL     1       4.934   4.605  18.396  0.00  0.00    +0.000 A 
ATOM     20  C   UNL     1       4.592   3.637  17.472  0.00  0.00    +0.000 A 
ATOM     21  N   UNL     1       5.678   3.523  16.643  0.00  0.00    +0.000 N 
ATOM     22  H   UNL     1       8.227   5.493  16.634  0.00  0.00    +0.000 HD
ATOM     23  H   UNL     1       7.753   4.497  15.367  0.00  0.00    +0.000 HD
ATOM     24  H   UNL     1       5.776   2.909  15.852  0.00  0.00    +0.000 HD
ENDBRANCH  15  19
ENDBRANCH   1  15
TORSDOF 3
ENDMDL
MODEL 6
REMARK VINA RESULT:      -6.4      4.750      7.311
REMARK  Name = 
REMARK  3 active torsions:
REMARK  status: ('A' for Active; 'I' for Inactive)
REMARK    1  A    between atoms: C_4  and  C_5
REMARK    2  A    between atoms: C_5  and  N_6
REMARK    3  A    between atoms: C_10  and  C_12
REMARK                            x       y       z     vdW  Elec       q    Type
REMARK                         _______ _______ _______ _____ _____    ______ ____
ROOT
ATOM      1  N   UNL     1       3.570   5.899  18.273  0.00  0.00    +0.000 NA
ATOM      2  C   UNL     1       3.429   7.296  17.812  0.00  0.00    +0.000 C 
ATOM      3  C   UNL     1       2.208   8.122  18.310  0.00  0.00    +0.000 C 
ATOM      4  N   UNL     1       1.841   7.855  19.705  0.00  0.00    +0.000 N 
ATOM      5  C   UNL     1       1.225   8.748  20.584  0.00  0.00    +0.000 C 
ATOM      6  O   UNL     1       0.972   8.417  21.745  0.00  0.00    +0.000 OA
ATOM      7  C   UNL     1       1.861   6.443  20.065  0.00  0.00    +0.000 C 
ATOM      8  C   UNL     1       3.214   5.810  19.708  0.00  0.00    +0.000 C 
ENDROOT
BRANCH   5   9
ATOM      9  C   UNL     1       0.907  10.179  20.082  0.00  0.00    +0.000 C 
ATOM     10  C   UNL     1       0.751  11.187  21.217  0.00  0.00    +0.000 C 
ATOM     11  C   UNL     1      -0.158  12.258  20.644  0.00  0.00    +0.000 C 
ATOM     12  C   UNL     1      -0.960  11.558  19.562  0.00  0.00    +0.000 C 
ATOM     13  N   UNL     1      -0.419  10.210  19.432  0.00  0.00    +0.000 NA
ATOM     14  H   UNL     1      -0.355   9.943  18.455  0.00  0.00    +0.000 HD
ENDBRANCH   5   9
BRANCH   1  15
ATOM     15  C   UNL     1       2.778   4.934  17.491  0.00  0.00    +0.000 C 
BRANCH  15  19
ATOM     16  N   UNL     1       4.351   0.552  18.665  0.00  0.00    +0.000 N 
ATOM     17  C   UNL     1       3.561   1.629  18.560  0.00  0.00    +0.000 A 
ATOM     18  N   UNL     1       3.900   2.816  18.135  0.00  0.00    +0.000 NA
ATOM     19  C   UNL     1       2.733   3.556  18.091  0.00  0.00    +0.000 A 
ATOM     20  C   UNL     1       1.681   2.785  18.547  0.00  0.00    +0.000 A 
ATOM     21  N   UNL     1       2.232   1.572  18.870  0.00  0.00    +0.000 N 
ATOM     22  H   UNL     1       5.246   0.656  18.196  0.00  0.00    +0.000 HD
ATOM     23  H   UNL     1       3.961  -0.372  18.531  0.00  0.00    +0.000 HD
ATOM     24  H   UNL     1       1.752   0.765  19.234  0.00  0.00    +0.000 HD
ENDBRANCH  15  19
ENDBRANCH   1  15
TORSDOF 3
ENDMDL
MODEL 7
REMARK VINA RESULT:      -6.3      5.696      7.364
REMARK  Name = 
REMARK  3 active torsions:
REMARK  status: ('A' for Active; 'I' for Inactive)
REMARK    1  A    between atoms: C_4  and  C_5
REMARK    2  A    between atoms: C_5  and  N_6
REMARK    3  A    between atoms: C_10  and  C_12
REMARK                            x       y       z     vdW  Elec       q    Type
REMARK                         _______ _______ _______ _____ _____    ______ ____
ROOT
ATOM      1  N   UNL     1       0.804  10.014  20.200  0.00  0.00    +0.000 NA
ATOM      2  C   UNL     1       1.303   8.954  21.103  0.00  0.00    +0.000 C 
ATOM      3  C   UNL     1       1.634   7.560  20.498  0.00  0.00    +0.000 C 
ATOM      4  N   UNL     1       2.243   7.621  19.164  0.00  0.00    +0.000 N 
ATOM      5  C   UNL     1       3.122   6.687  18.612  0.00  0.00    +0.000 C 
ATOM      6  O   UNL     1       3.583   6.848  17.479  0.00  0.00    +0.000 OA
ATOM      7  C   UNL     1       1.617   8.586  18.269  0.00  0.00    +0.000 C 
ATOM      8  C   UNL     1       1.554   9.974  18.924  0.00  0.00    +0.000 C 
ENDROOT
BRANCH   5   9
ATOM      9  C   UNL     1       3.541   5.468  19.472  0.00  0.00    +0.000 C 
ATOM     10  C   UNL     1       4.850   4.836  19.010  0.00  0.00    +0.000 C 
ATOM     11  C   UNL     1       4.749   3.392  19.464  0.00  0.00    +0.000 C 
ATOM     12  C   UNL     1       3.261   3.107  19.548  0.00  0.00    +0.000 C 
ATOM     13  N   UNL     1       2.569   4.368  19.305  0.00  0.00    +0.000 NA
ATOM     14  H   UNL     1       1.784   4.473  19.939  0.00  0.00    +0.000 HD
ENDBRANCH   5   9
BRANCH   1  15
ATOM     15  C   UNL     1      -0.644   9.939  19.943  0.00  0.00    +0.000 C 
BRANCH  15  19
ATOM     16  N   UNL     1      -2.607  11.301  15.778  0.00  0.00    +0.000 N 
ATOM     17  C   UNL     1      -2.030  11.358  16.986  0.00  0.00    +0.000 A 
ATOM     18  N   UNL     1      -1.871  10.375  17.830  0.00  0.00    +0.000 NA
ATOM     19  C   UNL     1      -1.122  10.884  18.875  0.00  0.00    +0.000 A 
ATOM     20  C   UNL     1      -0.871  12.224  18.653  0.00  0.00    +0.000 A 
ATOM     21  N   UNL     1      -1.481  12.516  17.461  0.00  0.00    +0.000 N 
ATOM     22  H   UNL     1      -2.767  10.354  15.448  0.00  0.00    +0.000 HD
ATOM     23  H   UNL     1      -2.283  11.909  15.037  0.00  0.00    +0.000 HD
ATOM     24  H   UNL     1      -1.499  13.406  16.990  0.00  0.00    +0.000 HD
ENDBRANCH  15  19
ENDBRANCH   1  15
TORSDOF 3
ENDMDL
MODEL 8
REMARK VINA RESULT:      -6.3      0.820      1.179
REMARK  Name = 
REMARK  3 active torsions:
REMARK  status: ('A' for Active; 'I' for Inactive)
REMARK    1  A    between atoms: C_4  and  C_5
REMARK    2  A    between atoms: C_5  and  N_6
REMARK    3  A    between atoms: C_10  and  C_12
REMARK                            x       y       z     vdW  Elec       q    Type
REMARK                         _______ _______ _______ _____ _____    ______ ____
ROOT
ATOM      1  N   UNL     1       5.003   4.556  19.421  0.00  0.00    +0.000 NA
ATOM      2  C   UNL     1       4.924   3.464  18.426  0.00  0.00    +0.000 C 
ATOM      3  C   UNL     1       5.063   3.823  16.919  0.00  0.00    +0.000 C 
ATOM      4  N   UNL     1       6.042   4.881  16.649  0.00  0.00    +0.000 N 
ATOM      5  C   UNL     1       6.784   5.042  15.477  0.00  0.00    +0.000 C 
ATOM      6  O   UNL     1       7.592   5.968  15.365  0.00  0.00    +0.000 OA
ATOM      7  C   UNL     1       5.979   6.001  17.581  0.00  0.00    +0.000 C 
ATOM      8  C   UNL     1       6.070   5.506  19.031  0.00  0.00    +0.000 C 
ENDROOT
BRANCH   5   9
ATOM      9  C   UNL     1       6.604   4.006  14.340  0.00  0.00    +0.000 C 
ATOM     10  C   UNL     1       7.429   4.335  13.099  0.00  0.00    +0.000 C 
ATOM     11  C   UNL     1       6.667   3.684  11.960  0.00  0.00    +0.000 C 
ATOM     12  C   UNL     1       5.230   3.604  12.440  0.00  0.00    +0.000 C 
ATOM     13  N   UNL     1       5.217   4.043  13.830  0.00  0.00    +0.000 NA
ATOM     14  H   UNL     1       4.606   3.454  14.386  0.00  0.00    +0.000 HD
ENDBRANCH   5   9
BRANCH   1  15
ATOM     15  C   UNL     1       3.731   5.271  19.619  0.00  0.00    +0.000 C 
BRANCH  15  19
ATOM     16  N   UNL     1       0.404   1.939  18.679  0.00  0.00    +0.000 N 
ATOM     17  C   UNL     1       1.130   2.857  19.333  0.00  0.00    +0.000 A 
ATOM     18  N   UNL     1       2.254   3.395  18.943  0.00  0.00    +0.000 NA
ATOM     19  C   UNL     1       2.559   4.366  19.879  0.00  0.00    +0.000 A 
ATOM     20  C   UNL     1       1.599   4.366  20.873  0.00  0.00    +0.000 A 
ATOM     21  N   UNL     1       0.715   3.379  20.525  0.00  0.00    +0.000 N 
ATOM     22  H   UNL     1       0.694   1.802  17.716  0.00  0.00    +0.000 HD
ATOM     23  H   UNL     1      -0.603   1.934  18.775  0.00  0.00    +0.000 HD
ATOM     24  H   UNL     1      -0.114   3.102  21.025  0.00  0.00    +0.000 HD
ENDBRANCH  15  19
ENDBRANCH   1  15
TORSDOF 3
ENDMDL
MODEL 9
REMARK VINA RESULT:      -6.2      3.601      7.751
REMARK  Name = 
REMARK  3 active torsions:
REMARK  status: ('A' for Active; 'I' for Inactive)
REMARK    1  A    between atoms: C_4  and  C_5
REMARK    2  A    between atoms: C_5  and  N_6
REMARK    3  A    between atoms: C_10  and  C_12
REMARK                            x       y       z     vdW  Elec       q    Type
REMARK                         _______ _______ _______ _____ _____    ______ ____
ROOT
ATOM      1  N   UNL     1       3.618   4.302  18.451  0.00  0.00    +0.000 NA
ATOM      2  C   UNL     1       2.720   4.303  19.625  0.00  0.00    +0.000 C 
ATOM      3  C   UNL     1       2.505   5.639  20.393  0.00  0.00    +0.000 C 
ATOM      4  N   UNL     1       2.444   6.820  19.524  0.00  0.00    +0.000 N 
ATOM      5  C   UNL     1       1.748   8.002  19.781  0.00  0.00    +0.000 C 
ATOM      6  O   UNL     1       1.759   8.930  18.968  0.00  0.00    +0.000 OA
ATOM      7  C   UNL     1       3.448   6.831  18.466  0.00  0.00    +0.000 C 
ATOM      8  C   UNL     1       3.395   5.529  17.653  0.00  0.00    +0.000 C 
ENDROOT
BRANCH   5   9
ATOM      9  C   UNL     1       0.925   8.105  21.090  0.00  0.00    +0.000 C 
ATOM     10  C   UNL     1      -0.257   9.063  20.975  0.00  0.00    +0.000 C 
ATOM     11  C   UNL     1      -0.498   9.531  22.398  0.00  0.00    +0.000 C 
ATOM     12  C   UNL     1       0.840   9.380  23.096  0.00  0.00    +0.000 C 
ATOM     13  N   UNL     1       1.740   8.718  22.159  0.00  0.00    +0.000 NA
ATOM     14  H   UNL     1       2.304   8.021  22.636  0.00  0.00    +0.000 HD
ENDBRANCH   5   9
BRANCH   1  15
ATOM     15  C   UNL     1       5.044   4.169  18.795  0.00  0.00    +0.000 C 
BRANCH  15  19
ATOM     16  N   UNL     1       7.893   7.539  16.904  0.00  0.00    +0.000 N 
ATOM     17  C   UNL     1       7.227   6.387  17.067  0.00  0.00    +0.000 A 
ATOM     18  N   UNL     1       6.606   5.982  18.142  0.00  0.00    +0.000 NA
ATOM     19  C   UNL     1       5.972   4.803  17.797  0.00  0.00    +0.000 A 
ATOM     20  C   UNL     1       6.269   4.486  16.486  0.00  0.00    +0.000 A 
ATOM     21  N   UNL     1       7.093   5.489  16.046  0.00  0.00    +0.000 N 
ATOM     22  H   UNL     1       7.730   8.212  17.647  0.00  0.00    +0.000 HD
ATOM     23  H   UNL     1       7.917   7.980  15.994  0.00  0.00    +0.000 HD
ATOM     24  H   UNL     1       7.501   5.582  15.130  0.00  0.00    +0.000 HD
ENDBRANCH  15  19
ENDBRANCH   1  15
TORSDOF 3
ENDMDL
