MODEL 1
REMARK VINA RESULT:      -8.7      0.000      0.000
REMARK  Name = 
REMARK  7 active torsions:
REMARK  status: ('A' for Active; 'I' for Inactive)
REMARK    1  A    between atoms: C_1  and  C_2
REMARK    2  A    between atoms: N_4  and  C_5
REMARK    3  A    between atoms: C_7  and  O_8
REMARK    4  A    between atoms: C_9  and  C_10
REMARK    5  A    between atoms: C_10  and  N_11
REMARK    6  A    between atoms: N_11  and  S_12
REMARK    7  A    between atoms: S_12  and  C_15
REMARK                            x       y       z     vdW  Elec       q    Type
REMARK                         _______ _______ _______ _____ _____    ______ ____
ROOT
ATOM      1  C   UNL     1       4.480   3.334  17.476  0.00  0.00    +0.000 C 
ATOM      2  C   UNL     1       4.398   2.864  18.921  0.00  0.00    +0.000 C 
ATOM      3  C   UNL     1       3.014   2.271  18.991  0.00  0.00    +0.000 C 
ATOM      4  C   UNL     1       2.196   3.141  18.036  0.00  0.00    +0.000 C 
ATOM      5  O   UNL     1       3.136   3.638  17.048  0.00  0.00    +0.000 OA
ENDROOT
BRANCH   1   9
ATOM      6  C   UNL     1       8.086   6.260  19.232  0.00  0.00    +0.000 C 
ATOM      7  C   UNL     1       7.129   5.844  18.166  0.00  0.00    +0.000 A 
ATOM      8  C   UNL     1       6.191   4.903  18.333  0.00  0.00    +0.000 A 
ATOM      9  N   UNL     1       5.365   4.487  17.311  0.00  0.00    +0.000 N 
ATOM     10  C   UNL     1       5.455   5.035  16.036  0.00  0.00    +0.000 A 
ATOM     11  O   UNL     1       4.818   4.625  15.068  0.00  0.00    +0.000 OA
ATOM     12  N   UNL     1       6.339   6.073  15.897  0.00  0.00    +0.000 N 
ATOM     13  C   UNL     1       7.247   6.480  16.834  0.00  0.00    +0.000 A 
ATOM     14  O   UNL     1       8.123   7.303  16.586  0.00  0.00    +0.000 OA
ATOM     15  H   UNL     1       6.437   6.464  14.970  0.00  0.00    +0.000 HD
ENDBRANCH   1   9
BRANCH   3  16
ATOM     16  O   UNL     1       3.056   0.914  18.546  0.00  0.00    +0.000 OA
ATOM     17  H   UNL     1       2.188   0.661  18.184  0.00  0.00    +0.000 HD
ENDBRANCH   3  16
BRANCH   4  18
ATOM     18  C   UNL     1       1.526   4.360  18.692  0.00  0.00    +0.000 C 
BRANCH  18  19
ATOM     19  N   UNL     1       1.820   5.626  18.008  0.00  0.00    +0.000 NA
ATOM     20  H   UNL     1       1.051   6.164  17.603  0.00  0.00    +0.000 HD
BRANCH  19  21
ATOM     21  S   UNL     1       2.890   6.681  18.789  0.00  0.00    +0.000 S 
ATOM     22  O   UNL     1       3.412   5.943  19.915  0.00  0.00    +0.000 OA
ATOM     23  O   UNL     1       3.773   7.267  17.772  0.00  0.00    +0.000 OA
BRANCH  21  24
ATOM     24  C   UNL     1       1.825   7.935  19.430  0.00  0.00    +0.000 A 
ATOM     25  C   UNL     1       1.604   9.055  18.622  0.00  0.00    +0.000 A 
ATOM     26  C   UNL     1       0.669   9.999  19.011  0.00  0.00    +0.000 A 
ATOM     27  C   UNL     1       0.055   9.889  20.255  0.00  0.00    +0.000 A 
ATOM     28  C   UNL     1      -0.827  10.879  20.649  0.00  0.00    +0.000 A 
ATOM     29  C   UNL     1      -0.771  11.261  21.978  0.00  0.00    +0.000 A 
ATOM     30  C   UNL     1      -0.409  10.310  22.918  0.00  0.00    +0.000 A 
ATOM     31  C   UNL     1       0.046   9.051  22.505  0.00  0.00    +0.000 A 
ATOM     32  C   UNL     1       0.416   8.871  21.159  0.00  0.00    +0.000 A 
ATOM     33  C   UNL     1       1.219   7.815  20.689  0.00  0.00    +0.000 A 
ENDBRANCH  21  24
ENDBRANCH  19  21
ENDBRANCH  18  19
ENDBRANCH   4  18
TORSDOF 6
ENDMDL
MODEL 2
REMARK VINA RESULT:      -8.5      0.483      1.434
REMARK  Name = 
REMARK  7 active torsions:
REMARK  status: ('A' for Active; 'I' for Inactive)
REMARK    1  A    between atoms: C_1  and  C_2
REMARK    2  A    between atoms: N_4  and  C_5
REMARK    3  A    between atoms: C_7  and  O_8
REMARK    4  A    between atoms: C_9  and  C_10
REMARK    5  A    between atoms: C_10  and  N_11
REMARK    6  A    between atoms: N_11  and  S_12
REMARK    7  A    between atoms: S_12  and  C_15
REMARK                            x       y       z     vdW  Elec       q    Type
REMARK                         _______ _______ _______ _____ _____    ______ ____
ROOT
ATOM      1  C   UNL     1       4.390   3.280  17.473  0.00  0.00    +0.000 C 
ATOM      2  C   UNL     1       4.351   2.792  18.914  0.00  0.00    +0.000 C 
ATOM      3  C   UNL     1       2.958   2.227  19.026  0.00  0.00    +0.000 C 
ATOM      4  C   UNL     1       2.125   3.127  18.114  0.00  0.00    +0.000 C 
ATOM      5  O   UNL     1       3.039   3.619  17.099  0.00  0.00    +0.000 OA
ENDROOT
BRANCH   1   9
ATOM      6  C   UNL     1       8.026   6.189  19.196  0.00  0.00    +0.000 C 
ATOM      7  C   UNL     1       7.071   5.764  18.131  0.00  0.00    +0.000 A 
ATOM      8  C   UNL     1       6.118   4.841  18.311  0.00  0.00    +0.000 A 
ATOM      9  N   UNL     1       5.294   4.416  17.292  0.00  0.00    +0.000 N 
ATOM     10  C   UNL     1       5.402   4.936  16.006  0.00  0.00    +0.000 A 
ATOM     11  O   UNL     1       4.766   4.515  15.041  0.00  0.00    +0.000 OA
ATOM     12  N   UNL     1       6.302   5.958  15.852  0.00  0.00    +0.000 N 
ATOM     13  C   UNL     1       7.209   6.371  16.788  0.00  0.00    +0.000 A 
ATOM     14  O   UNL     1       8.099   7.175  16.529  0.00  0.00    +0.000 OA
ATOM     15  H   UNL     1       6.413   6.327  14.919  0.00  0.00    +0.000 HD
ENDBRANCH   1   9
BRANCH   3  16
ATOM     16  O   UNL     1       2.954   0.876  18.562  0.00  0.00    +0.000 OA
ATOM     17  H   UNL     1       2.767   0.858  17.607  0.00  0.00    +0.000 HD
ENDBRANCH   3  16
BRANCH   4  18
ATOM     18  C   UNL     1       1.506   4.351  18.810  0.00  0.00    +0.000 C 
BRANCH  18  19
ATOM     19  N   UNL     1       1.741   5.611  18.093  0.00  0.00    +0.000 NA
ATOM     20  H   UNL     1       0.939   6.149  17.755  0.00  0.00    +0.000 HD
BRANCH  19  21
ATOM     21  S   UNL     1       2.878   6.669  18.769  0.00  0.00    +0.000 S 
ATOM     22  O   UNL     1       3.485   5.943  19.859  0.00  0.00    +0.000 OA
ATOM     23  O   UNL     1       3.680   7.231  17.673  0.00  0.00    +0.000 OA
BRANCH  21  24
ATOM     24  C   UNL     1       1.878   7.941  19.473  0.00  0.00    +0.000 A 
ATOM     25  C   UNL     1       1.496   7.783  20.809  0.00  0.00    +0.000 A 
ATOM     26  C   UNL     1       0.834   8.814  21.453  0.00  0.00    +0.000 A 
ATOM     27  C   UNL     1       0.446   9.940  20.733  0.00  0.00    +0.000 A 
ATOM     28  C   UNL     1      -0.272  10.928  21.382  0.00  0.00    +0.000 A 
ATOM     29  C   UNL     1      -1.300  11.516  20.666  0.00  0.00    +0.000 A 
ATOM     30  C   UNL     1      -1.165  11.617  19.290  0.00  0.00    +0.000 A 
ATOM     31  C   UNL     1      -0.094  10.989  18.641  0.00  0.00    +0.000 A 
ATOM     32  C   UNL     1       0.653  10.023  19.342  0.00  0.00    +0.000 A 
ATOM     33  C   UNL     1       1.487   9.067  18.734  0.00  0.00    +0.000 A 
ENDBRANCH  21  24
ENDBRANCH  19  21
ENDBRANCH  18  19
ENDBRANCH   4  18
TORSDOF 6
ENDMDL
MODEL 3
REMARK VINA RESULT:      -8.0      1.043      1.357
REMARK  Name = 
REMARK  7 active torsions:
REMARK  status: ('A' for Active; 'I' for Inactive)
REMARK    1  A    between atoms: C_1  and  C_2
REMARK    2  A    between atoms: N_4  and  C_5
REMARK    3  A    between atoms: C_7  and  O_8
REMARK    4  A    between atoms: C_9  and  C_10
REMARK    5  A    between atoms: C_10  and  N_11
REMARK    6  A    between atoms: N_11  and  S_12
REMARK    7  A    between atoms: S_12  and  C_15
REMARK                            x       y       z     vdW  Elec       q    Type
REMARK                         _______ _______ _______ _____ _____    ______ ____
ROOT
ATOM      1  C   UNL     1       4.913   3.332  17.384  0.00  0.00    +0.000 C 
ATOM      2  C   UNL     1       4.690   2.806  18.795  0.00  0.00    +0.000 C 
ATOM      3  C   UNL     1       3.430   1.993  18.641  0.00  0.00    +0.000 C 
ATOM      4  C   UNL     1       2.635   2.750  17.576  0.00  0.00    +0.000 C 
ATOM      5  O   UNL     1       3.619   3.427  16.753  0.00  0.00    +0.000 OA
ENDROOT
BRANCH   1   9
ATOM      6  C   UNL     1       8.216   6.447  19.395  0.00  0.00    +0.000 C 
ATOM      7  C   UNL     1       7.234   6.070  18.336  0.00  0.00    +0.000 A 
ATOM      8  C   UNL     1       6.457   4.981  18.394  0.00  0.00    +0.000 A 
ATOM      9  N   UNL     1       5.609   4.619  17.371  0.00  0.00    +0.000 N 
ATOM     10  C   UNL     1       5.505   5.378  16.210  0.00  0.00    +0.000 A 
ATOM     11  O   UNL     1       4.846   5.042  15.228  0.00  0.00    +0.000 OA
ATOM     12  N   UNL     1       6.217   6.549  16.201  0.00  0.00    +0.000 N 
ATOM     13  C   UNL     1       7.141   6.930  17.134  0.00  0.00    +0.000 A 
ATOM     14  O   UNL     1       7.865   7.907  16.980  0.00  0.00    +0.000 OA
ATOM     15  H   UNL     1       6.175   7.099  15.354  0.00  0.00    +0.000 HD
ENDBRANCH   1   9
BRANCH   3  16
ATOM     16  O   UNL     1       3.765   0.677  18.197  0.00  0.00    +0.000 OA
ATOM     17  H   UNL     1       3.133   0.391  17.514  0.00  0.00    +0.000 HD
ENDBRANCH   3  16
BRANCH   4  18
ATOM     18  C   UNL     1       1.679   3.820  18.128  0.00  0.00    +0.000 C 
BRANCH  18  19
ATOM     19  N   UNL     1       2.260   5.168  18.146  0.00  0.00    +0.000 NA
ATOM     20  H   UNL     1       1.894   5.877  17.506  0.00  0.00    +0.000 HD
BRANCH  19  21
ATOM     21  S   UNL     1       2.511   5.867  19.668  0.00  0.00    +0.000 S 
ATOM     22  O   UNL     1       1.557   5.236  20.549  0.00  0.00    +0.000 OA
ATOM     23  O   UNL     1       3.954   5.842  19.946  0.00  0.00    +0.000 OA
BRANCH  21  24
ATOM     24  C   UNL     1       1.990   7.538  19.437  0.00  0.00    +0.000 A 
ATOM     25  C   UNL     1       2.215   8.106  18.180  0.00  0.00    +0.000 A 
ATOM     26  C   UNL     1       1.700   9.360  17.898  0.00  0.00    +0.000 A 
ATOM     27  C   UNL     1       1.076  10.090  18.906  0.00  0.00    +0.000 A 
ATOM     28  C   UNL     1       0.628  11.366  18.618  0.00  0.00    +0.000 A 
ATOM     29  C   UNL     1       0.809  12.320  19.605  0.00  0.00    +0.000 A 
ATOM     30  C   UNL     1       0.777  11.909  20.928  0.00  0.00    +0.000 A 
ATOM     31  C   UNL     1       0.729  10.543  21.238  0.00  0.00    +0.000 A 
ATOM     32  C   UNL     1       1.018   9.607  20.228  0.00  0.00    +0.000 A 
ATOM     33  C   UNL     1       1.370   8.266  20.464  0.00  0.00    +0.000 A 
ENDBRANCH  21  24
ENDBRANCH  19  21
ENDBRANCH  18  19
ENDBRANCH   4  18
TORSDOF 6
ENDMDL
MODEL 4
REMARK VINA RESULT:      -8.0      5.816     10.115
REMARK  Name = 
REMARK  7 active torsions:
REMARK  status: ('A' for Active; 'I' for Inactive)
REMARK    1  A    between atoms: C_1  and  C_2
REMARK    2  A    between atoms: N_4  and  C_5
REMARK    3  A    between atoms: C_7  and  O_8
REMARK    4  A    between atoms: C_9  and  C_10
REMARK    5  A    between atoms: C_10  and  N_11
REMARK    6  A    between atoms: N_11  and  S_12
REMARK    7  A    between atoms: S_12  and  C_15
REMARK                            x       y       z     vdW  Elec       q    Type
REMARK                         _______ _______ _______ _____ _____    ______ ____
ROOT
ATOM      1  C   UNL     1      -4.837  10.554  17.662  0.00  0.00    +0.000 C 
ATOM      2  C   UNL     1      -4.523  11.603  16.605  0.00  0.00    +0.000 C 
ATOM      3  C   UNL     1      -3.482  10.911  15.762  0.00  0.00    +0.000 C 
ATOM      4  C   UNL     1      -2.713  10.051  16.766  0.00  0.00    +0.000 C 
ATOM      5  O   UNL     1      -3.652   9.748  17.830  0.00  0.00    +0.000 OA
ENDROOT
BRANCH   1   9
ATOM      6  C   UNL     1      -4.497  14.191  21.026  0.00  0.00    +0.000 C 
ATOM      7  C   UNL     1      -5.105  12.933  20.501  0.00  0.00    +0.000 A 
ATOM      8  C   UNL     1      -4.640  12.269  19.436  0.00  0.00    +0.000 A 
ATOM      9  N   UNL     1      -5.262  11.148  18.930  0.00  0.00    +0.000 N 
ATOM     10  C   UNL     1      -6.416  10.633  19.511  0.00  0.00    +0.000 A 
ATOM     11  O   UNL     1      -7.066   9.704  19.035  0.00  0.00    +0.000 OA
ATOM     12  N   UNL     1      -6.826  11.249  20.664  0.00  0.00    +0.000 N 
ATOM     13  C   UNL     1      -6.316  12.410  21.174  0.00  0.00    +0.000 A 
ATOM     14  O   UNL     1      -6.838  12.998  22.116  0.00  0.00    +0.000 OA
ATOM     15  H   UNL     1      -7.678  10.905  21.083  0.00  0.00    +0.000 HD
ENDBRANCH   1   9
BRANCH   3  16
ATOM     16  O   UNL     1      -4.128  10.102  14.777  0.00  0.00    +0.000 OA
ATOM     17  H   UNL     1      -4.172   9.181  15.088  0.00  0.00    +0.000 HD
ENDBRANCH   3  16
BRANCH   4  18
ATOM     18  C   UNL     1      -1.497  10.743  17.405  0.00  0.00    +0.000 C 
BRANCH  18  19
ATOM     19  N   UNL     1      -1.337  10.440  18.833  0.00  0.00    +0.000 NA
ATOM     20  H   UNL     1      -1.622   9.522  19.183  0.00  0.00    +0.000 HD
BRANCH  19  21
ATOM     21  S   UNL     1       0.138  10.874  19.542  0.00  0.00    +0.000 S 
ATOM     22  O   UNL     1       0.779  11.758  18.596  0.00  0.00    +0.000 OA
ATOM     23  O   UNL     1      -0.128  11.286  20.927  0.00  0.00    +0.000 OA
BRANCH  21  24
ATOM     24  C   UNL     1       1.045   9.360  19.547  0.00  0.00    +0.000 A 
ATOM     25  C   UNL     1       1.072   8.639  20.744  0.00  0.00    +0.000 A 
ATOM     26  C   UNL     1       1.646   7.379  20.766  0.00  0.00    +0.000 A 
ATOM     27  C   UNL     1       2.299   6.900  19.634  0.00  0.00    +0.000 A 
ATOM     28  C   UNL     1       2.921   5.667  19.701  0.00  0.00    +0.000 A 
ATOM     29  C   UNL     1       4.142   5.557  19.058  0.00  0.00    +0.000 A 
ATOM     30  C   UNL     1       4.359   6.327  17.926  0.00  0.00    +0.000 A 
ATOM     31  C   UNL     1       3.427   7.305  17.554  0.00  0.00    +0.000 A 
ATOM     32  C   UNL     1       2.448   7.700  18.484  0.00  0.00    +0.000 A 
ATOM     33  C   UNL     1       1.706   8.892  18.401  0.00  0.00    +0.000 A 
ENDBRANCH  21  24
ENDBRANCH  19  21
ENDBRANCH  18  19
ENDBRANCH   4  18
TORSDOF 6
ENDMDL
MODEL 5
REMARK VINA RESULT:      -7.9      5.644      9.917
REMARK  Name = 
REMARK  7 active torsions:
REMARK  status: ('A' for Active; 'I' for Inactive)
REMARK    1  A    between atoms: C_1  and  C_2
REMARK    2  A    between atoms: N_4  and  C_5
REMARK    3  A    between atoms: C_7  and  O_8
REMARK    4  A    between atoms: C_9  and  C_10
REMARK    5  A    between atoms: C_10  and  N_11
REMARK    6  A    between atoms: N_11  and  S_12
REMARK    7  A    between atoms: S_12  and  C_15
REMARK                            x       y       z     vdW  Elec       q    Type
REMARK                         _______ _______ _______ _____ _____    ______ ____
ROOT
ATOM      1  C   UNL     1      -4.456  10.544  17.614  0.00  0.00    +0.000 C 
ATOM      2  C   UNL     1      -4.008  11.512  16.528  0.00  0.00    +0.000 C 
ATOM      3  C   UNL     1      -2.879  10.760  15.871  0.00  0.00    +0.000 C 
ATOM      4  C   UNL     1      -2.243   9.978  17.021  0.00  0.00    +0.000 C 
ATOM      5  O   UNL     1      -3.306   9.754  17.984  0.00  0.00    +0.000 OA
ENDROOT
BRANCH   1   9
ATOM      6  C   UNL     1      -4.301  14.257  20.908  0.00  0.00    +0.000 C 
ATOM      7  C   UNL     1      -4.946  13.051  20.310  0.00  0.00    +0.000 A 
ATOM      8  C   UNL     1      -4.379  12.298  19.359  0.00  0.00    +0.000 A 
ATOM      9  N   UNL     1      -5.026  11.231  18.774  0.00  0.00    +0.000 N 
ATOM     10  C   UNL     1      -6.313  10.865  19.151  0.00  0.00    +0.000 A 
ATOM     11  O   UNL     1      -6.971   9.992  18.588  0.00  0.00    +0.000 OA
ATOM     12  N   UNL     1      -6.846  11.567  20.200  0.00  0.00    +0.000 N 
ATOM     13  C   UNL     1      -6.306  12.688  20.769  0.00  0.00    +0.000 A 
ATOM     14  O   UNL     1      -6.915  13.366  21.590  0.00  0.00    +0.000 OA
ATOM     15  H   UNL     1      -7.792  11.334  20.468  0.00  0.00    +0.000 HD
ENDBRANCH   1   9
BRANCH   3  16
ATOM     16  O   UNL     1      -3.407   9.879  14.877  0.00  0.00    +0.000 OA
ATOM     17  H   UNL     1      -3.060  10.127  14.002  0.00  0.00    +0.000 HD
ENDBRANCH   3  16
BRANCH   4  18
ATOM     18  C   UNL     1      -1.108  10.716  17.750  0.00  0.00    +0.000 C 
BRANCH  18  19
ATOM     19  N   UNL     1      -0.905  10.258  19.130  0.00  0.00    +0.000 NA
ATOM     20  H   UNL     1      -1.269   9.344  19.411  0.00  0.00    +0.000 HD
BRANCH  19  21
ATOM     21  S   UNL     1       0.645  10.464  19.780  0.00  0.00    +0.000 S 
ATOM     22  O   UNL     1       1.263  11.502  18.989  0.00  0.00    +0.000 OA
ATOM     23  O   UNL     1       0.514  10.578  21.239  0.00  0.00    +0.000 OA
BRANCH  21  24
ATOM     24  C   UNL     1       1.455   8.947  19.383  0.00  0.00    +0.000 A 
ATOM     25  C   UNL     1       2.010   8.839  18.104  0.00  0.00    +0.000 A 
ATOM     26  C   UNL     1       2.779   7.731  17.789  0.00  0.00    +0.000 A 
ATOM     27  C   UNL     1       2.884   6.683  18.700  0.00  0.00    +0.000 A 
ATOM     28  C   UNL     1       3.603   5.559  18.337  0.00  0.00    +0.000 A 
ATOM     29  C   UNL     1       3.078   4.339  18.727  0.00  0.00    +0.000 A 
ATOM     30  C   UNL     1       2.350   4.286  19.905  0.00  0.00    +0.000 A 
ATOM     31  C   UNL     1       2.022   5.468  20.582  0.00  0.00    +0.000 A 
ATOM     32  C   UNL     1       2.168   6.697  19.913  0.00  0.00    +0.000 A 
ATOM     33  C   UNL     1       1.547   7.896  20.307  0.00  0.00    +0.000 A 
ENDBRANCH  21  24
ENDBRANCH  19  21
ENDBRANCH  18  19
ENDBRANCH   4  18
TORSDOF 6
ENDMDL
MODEL 6
REMARK VINA RESULT:      -7.9      2.828      3.768
REMARK  Name = 
REMARK  7 active torsions:
REMARK  status: ('A' for Active; 'I' for Inactive)
REMARK    1  A    between atoms: C_1  and  C_2
REMARK    2  A    between atoms: N_4  and  C_5
REMARK    3  A    between atoms: C_7  and  O_8
REMARK    4  A    between atoms: C_9  and  C_10
REMARK    5  A    between atoms: C_10  and  N_11
REMARK    6  A    between atoms: N_11  and  S_12
REMARK    7  A    between atoms: S_12  and  C_15
REMARK                            x       y       z     vdW  Elec       q    Type
REMARK                         _______ _______ _______ _____ _____    ______ ____
ROOT
ATOM      1  C   UNL     1       2.989   4.777  18.586  0.00  0.00    +0.000 C 
ATOM      2  C   UNL     1       3.189   4.860  20.093  0.00  0.00    +0.000 C 
ATOM      3  C   UNL     1       1.930   5.552  20.548  0.00  0.00    +0.000 C 
ATOM      4  C   UNL     1       1.599   6.503  19.397  0.00  0.00    +0.000 C 
ATOM      5  O   UNL     1       2.151   5.887  18.204  0.00  0.00    +0.000 OA
ENDROOT
BRANCH   1   9
ATOM      6  C   UNL     1       7.281   7.005  17.462  0.00  0.00    +0.000 C 
ATOM      7  C   UNL     1       6.326   5.863  17.371  0.00  0.00    +0.000 A 
ATOM      8  C   UNL     1       5.092   5.881  17.890  0.00  0.00    +0.000 A 
ATOM      9  N   UNL     1       4.255   4.787  17.852  0.00  0.00    +0.000 N 
ATOM     10  C   UNL     1       4.646   3.592  17.257  0.00  0.00    +0.000 A 
ATOM     11  O   UNL     1       3.981   2.559  17.292  0.00  0.00    +0.000 OA
ATOM     12  N   UNL     1       5.865   3.612  16.631  0.00  0.00    +0.000 N 
ATOM     13  C   UNL     1       6.782   4.624  16.700  0.00  0.00    +0.000 A 
ATOM     14  O   UNL     1       7.920   4.510  16.256  0.00  0.00    +0.000 OA
ATOM     15  H   UNL     1       6.177   2.745  16.218  0.00  0.00    +0.000 HD
ENDBRANCH   1   9
BRANCH   3  16
ATOM     16  O   UNL     1       0.896   4.585  20.734  0.00  0.00    +0.000 OA
ATOM     17  H   UNL     1       1.224   3.856  21.290  0.00  0.00    +0.000 HD
ENDBRANCH   3  16
BRANCH   4  18
ATOM     18  C   UNL     1       2.218   7.905  19.522  0.00  0.00    +0.000 C 
BRANCH  18  19
ATOM     19  N   UNL     1       1.232   8.955  19.808  0.00  0.00    +0.000 NA
ATOM     20  H   UNL     1       1.147   9.312  20.763  0.00  0.00    +0.000 HD
BRANCH  19  21
ATOM     21  S   UNL     1       1.163  10.250  18.720  0.00  0.00    +0.000 S 
ATOM     22  O   UNL     1       1.622  11.403  19.457  0.00  0.00    +0.000 OA
ATOM     23  O   UNL     1       1.808   9.826  17.469  0.00  0.00    +0.000 OA
BRANCH  21  24
ATOM     24  C   UNL     1      -0.568  10.455  18.444  0.00  0.00    +0.000 A 
ATOM     25  C   UNL     1      -1.105   9.857  17.300  0.00  0.00    +0.000 A 
ATOM     26  C   UNL     1      -2.476   9.864  17.109  0.00  0.00    +0.000 A 
ATOM     27  C   UNL     1      -3.290  10.572  17.988  0.00  0.00    +0.000 A 
ATOM     28  C   UNL     1      -4.650  10.619  17.740  0.00  0.00    +0.000 A 
ATOM     29  C   UNL     1      -5.279  11.829  17.977  0.00  0.00    +0.000 A 
ATOM     30  C   UNL     1      -4.779  12.641  18.983  0.00  0.00    +0.000 A 
ATOM     31  C   UNL     1      -3.575  12.311  19.619  0.00  0.00    +0.000 A 
ATOM     32  C   UNL     1      -2.741  11.341  19.033  0.00  0.00    +0.000 A 
ATOM     33  C   UNL     1      -1.376  11.178  19.334  0.00  0.00    +0.000 A 
ENDBRANCH  21  24
ENDBRANCH  19  21
ENDBRANCH  18  19
ENDBRANCH   4  18
TORSDOF 6
ENDMDL
MODEL 7
REMARK VINA RESULT:      -7.8      2.750      3.465
REMARK  Name = 
REMARK  7 active torsions:
REMARK  status: ('A' for Active; 'I' for Inactive)
REMARK    1  A    between atoms: C_1  and  C_2
REMARK    2  A    between atoms: N_4  and  C_5
REMARK    3  A    between atoms: C_7  and  O_8
REMARK    4  A    between atoms: C_9  and  C_10
REMARK    5  A    between atoms: C_10  and  N_11
REMARK    6  A    between atoms: N_11  and  S_12
REMARK    7  A    between atoms: S_12  and  C_15
REMARK                            x       y       z     vdW  Elec       q    Type
REMARK                         _______ _______ _______ _____ _____    ______ ____
ROOT
ATOM      1  C   UNL     1       2.990   4.205  18.962  0.00  0.00    +0.000 C 
ATOM      2  C   UNL     1       3.040   3.742  20.411  0.00  0.00    +0.000 C 
ATOM      3  C   UNL     1       1.747   4.281  20.967  0.00  0.00    +0.000 C 
ATOM      4  C   UNL     1       1.540   5.590  20.204  0.00  0.00    +0.000 C 
ATOM      5  O   UNL     1       2.203   5.414  18.925  0.00  0.00    +0.000 OA
ENDROOT
BRANCH   1   9
ATOM      6  C   UNL     1       7.663   5.803  19.474  0.00  0.00    +0.000 C 
ATOM      7  C   UNL     1       6.570   5.154  18.692  0.00  0.00    +0.000 A 
ATOM      8  C   UNL     1       5.299   5.085  19.106  0.00  0.00    +0.000 A 
ATOM      9  N   UNL     1       4.323   4.419  18.396  0.00  0.00    +0.000 N 
ATOM     10  C   UNL     1       4.605   3.783  17.193  0.00  0.00    +0.000 A 
ATOM     11  O   UNL     1       3.798   3.088  16.579  0.00  0.00    +0.000 OA
ATOM     12  N   UNL     1       5.880   3.950  16.718  0.00  0.00    +0.000 N 
ATOM     13  C   UNL     1       6.919   4.518  17.402  0.00  0.00    +0.000 A 
ATOM     14  O   UNL     1       8.073   4.484  16.988  0.00  0.00    +0.000 OA
ATOM     15  H   UNL     1       6.110   3.470  15.859  0.00  0.00    +0.000 HD
ENDBRANCH   1   9
BRANCH   3  16
ATOM     16  O   UNL     1       0.692   3.356  20.702  0.00  0.00    +0.000 OA
ATOM     17  H   UNL     1       0.369   2.978  21.539  0.00  0.00    +0.000 HD
ENDBRANCH   3  16
BRANCH   4  18
ATOM     18  C   UNL     1       2.154   6.830  20.876  0.00  0.00    +0.000 C 
BRANCH  18  19
ATOM     19  N   UNL     1       1.588   8.096  20.394  0.00  0.00    +0.000 NA
ATOM     20  H   UNL     1       1.100   8.114  19.496  0.00  0.00    +0.000 HD
BRANCH  19  21
ATOM     21  S   UNL     1       0.720   9.018  21.520  0.00  0.00    +0.000 S 
ATOM     22  O   UNL     1      -0.564   8.370  21.645  0.00  0.00    +0.000 OA
ATOM     23  O   UNL     1       1.588   9.246  22.683  0.00  0.00    +0.000 OA
BRANCH  21  24
ATOM     24  C   UNL     1       0.460  10.546  20.676  0.00  0.00    +0.000 A 
ATOM     25  C   UNL     1      -0.313  10.505  19.511  0.00  0.00    +0.000 A 
ATOM     26  C   UNL     1      -0.668  11.690  18.889  0.00  0.00    +0.000 A 
ATOM     27  C   UNL     1      -0.148  12.895  19.355  0.00  0.00    +0.000 A 
ATOM     28  C   UNL     1      -0.465  14.058  18.678  0.00  0.00    +0.000 A 
ATOM     29  C   UNL     1       0.554  14.984  18.535  0.00  0.00    +0.000 A 
ATOM     30  C   UNL     1       1.517  15.059  19.529  0.00  0.00    +0.000 A 
ATOM     31  C   UNL     1       1.540  14.108  20.557  0.00  0.00    +0.000 A 
ATOM     32  C   UNL     1       0.788  12.928  20.408  0.00  0.00    +0.000 A 
ATOM     33  C   UNL     1       0.996  11.752  21.151  0.00  0.00    +0.000 A 
ENDBRANCH  21  24
ENDBRANCH  19  21
ENDBRANCH  18  19
ENDBRANCH   4  18
TORSDOF 6
ENDMDL
MODEL 8
REMARK VINA RESULT:      -7.8      3.201      4.111
REMARK  Name = 
REMARK  7 active torsions:
REMARK  status: ('A' for Active; 'I' for Inactive)
REMARK    1  A    between atoms: C_1  and  C_2
REMARK    2  A    between atoms: N_4  and  C_5
REMARK    3  A    between atoms: C_7  and  O_8
REMARK    4  A    between atoms: C_9  and  C_10
REMARK    5  A    between atoms: C_10  and  N_11
REMARK    6  A    between atoms: N_11  and  S_12
REMARK    7  A    between atoms: S_12  and  C_15
REMARK                            x       y       z     vdW  Elec       q    Type
REMARK                         _______ _______ _______ _____ _____    ______ ____
ROOT
ATOM      1  C   UNL     1       3.005   4.706  18.577  0.00  0.00    +0.000 C 
ATOM      2  C   UNL     1       3.217   4.708  20.084  0.00  0.00    +0.000 C 
ATOM      3  C   UNL     1       1.965   5.383  20.586  0.00  0.00    +0.000 C 
ATOM      4  C   UNL     1       1.632   6.395  19.488  0.00  0.00    +0.000 C 
ATOM      5  O   UNL     1       2.171   5.840  18.260  0.00  0.00    +0.000 OA
ENDROOT
BRANCH   1   9
ATOM      6  C   UNL     1       7.277   6.993  17.497  0.00  0.00    +0.000 C 
ATOM      7  C   UNL     1       6.327   5.849  17.374  0.00  0.00    +0.000 A 
ATOM      8  C   UNL     1       5.097   5.843  17.903  0.00  0.00    +0.000 A 
ATOM      9  N   UNL     1       4.265   4.747  17.834  0.00  0.00    +0.000 N 
ATOM     10  C   UNL     1       4.657   3.575  17.196  0.00  0.00    +0.000 A 
ATOM     11  O   UNL     1       3.997   2.538  17.201  0.00  0.00    +0.000 OA
ATOM     12  N   UNL     1       5.871   3.623  16.562  0.00  0.00    +0.000 N 
ATOM     13  C   UNL     1       6.784   4.636  16.658  0.00  0.00    +0.000 A 
ATOM     14  O   UNL     1       7.919   4.542  16.203  0.00  0.00    +0.000 OA
ATOM     15  H   UNL     1       6.184   2.771  16.118  0.00  0.00    +0.000 HD
ENDBRANCH   1   9
BRANCH   3  16
ATOM     16  O   UNL     1       0.926   4.413  20.727  0.00  0.00    +0.000 OA
ATOM     17  H   UNL     1       1.316   3.525  20.815  0.00  0.00    +0.000 HD
ENDBRANCH   3  16
BRANCH   4  18
ATOM     18  C   UNL     1       2.261   7.784  19.683  0.00  0.00    +0.000 C 
BRANCH  18  19
ATOM     19  N   UNL     1       1.274   8.871  19.731  0.00  0.00    +0.000 NA
ATOM     20  H   UNL     1       1.233   9.471  20.558  0.00  0.00    +0.000 HD
BRANCH  19  21
ATOM     21  S   UNL     1       1.125   9.825  18.340  0.00  0.00    +0.000 S 
ATOM     22  O   UNL     1       2.171   9.381  17.450  0.00  0.00    +0.000 OA
ATOM     23  O   UNL     1      -0.288   9.820  17.936  0.00  0.00    +0.000 OA
BRANCH  21  24
ATOM     24  C   UNL     1       1.565  11.438  18.908  0.00  0.00    +0.000 A 
ATOM     25  C   UNL     1       1.061  11.833  20.151  0.00  0.00    +0.000 A 
ATOM     26  C   UNL     1       1.488  13.026  20.708  0.00  0.00    +0.000 A 
ATOM     27  C   UNL     1       2.311  13.875  19.973  0.00  0.00    +0.000 A 
ATOM     28  C   UNL     1       2.671  15.091  20.525  0.00  0.00    +0.000 A 
ATOM     29  C   UNL     1       2.702  16.174  19.664  0.00  0.00    +0.000 A 
ATOM     30  C   UNL     1       3.031  15.946  18.337  0.00  0.00    +0.000 A 
ATOM     31  C   UNL     1       3.160  14.635  17.860  0.00  0.00    +0.000 A 
ATOM     32  C   UNL     1       2.665  13.576  18.643  0.00  0.00    +0.000 A 
ATOM     33  C   UNL     1       2.388  12.286  18.153  0.00  0.00    +0.000 A 
ENDBRANCH  21  24
ENDBRANCH  19  21
ENDBRANCH  18  19
ENDBRANCH   4  18
TORSDOF 6
ENDMDL
MODEL 9
REMARK VINA RESULT:      -7.7      3.701      8.737
REMARK  Name = 
REMARK  7 active torsions:
REMARK  status: ('A' for Active; 'I' for Inactive)
REMARK    1  A    between atoms: C_1  and  C_2
REMARK    2  A    between atoms: N_4  and  C_5
REMARK    3  A    between atoms: C_7  and  O_8
REMARK    4  A    between atoms: C_9  and  C_10
REMARK    5  A    between atoms: C_10  and  N_11
REMARK    6  A    between atoms: N_11  and  S_12
REMARK    7  A    between atoms: S_12  and  C_15
REMARK                            x       y       z     vdW  Elec       q    Type
REMARK                         _______ _______ _______ _____ _____    ______ ____
ROOT
ATOM      1  C   UNL     1      -0.188  10.695  21.317  0.00  0.00    +0.000 C 
ATOM      2  C   UNL     1      -0.947   9.872  22.348  0.00  0.00    +0.000 C 
ATOM      3  C   UNL     1       0.148   9.043  22.969  0.00  0.00    +0.000 C 
ATOM      4  C   UNL     1       1.117   8.793  21.813  0.00  0.00    +0.000 C 
ATOM      5  O   UNL     1       0.962   9.922  20.914  0.00  0.00    +0.000 OA
ENDROOT
BRANCH   1   9
ATOM      6  C   UNL     1      -2.000   9.609  16.824  0.00  0.00    +0.000 C 
ATOM      7  C   UNL     1      -1.904  10.481  18.031  0.00  0.00    +0.000 A 
ATOM      8  C   UNL     1      -1.038  10.276  19.031  0.00  0.00    +0.000 A 
ATOM      9  N   UNL     1      -1.018  11.055  20.167  0.00  0.00    +0.000 N 
ATOM     10  C   UNL     1      -1.900  12.117  20.336  0.00  0.00    +0.000 A 
ATOM     11  O   UNL     1      -1.994  12.772  21.372  0.00  0.00    +0.000 OA
ATOM     12  N   UNL     1      -2.709  12.392  19.265  0.00  0.00    +0.000 N 
ATOM     13  C   UNL     1      -2.847  11.616  18.148  0.00  0.00    +0.000 A 
ATOM     14  O   UNL     1      -3.711  11.829  17.303  0.00  0.00    +0.000 OA
ATOM     15  H   UNL     1      -3.376  13.142  19.381  0.00  0.00    +0.000 HD
ENDBRANCH   1   9
BRANCH   3  16
ATOM     16  O   UNL     1       0.773   9.787  24.016  0.00  0.00    +0.000 OA
ATOM     17  H   UNL     1       0.097  10.111  24.637  0.00  0.00    +0.000 HD
ENDBRANCH   3  16
BRANCH   4  18
ATOM     18  C   UNL     1       0.836   7.516  21.003  0.00  0.00    +0.000 C 
BRANCH  18  19
ATOM     19  N   UNL     1       2.047   6.898  20.449  0.00  0.00    +0.000 NA
ATOM     20  H   UNL     1       2.963   7.213  20.778  0.00  0.00    +0.000 HD
BRANCH  19  21
ATOM     21  S   UNL     1       2.049   5.209  20.325  0.00  0.00    +0.000 S 
ATOM     22  O   UNL     1       2.696   4.731  21.524  0.00  0.00    +0.000 OA
ATOM     23  O   UNL     1       0.693   4.780  19.955  0.00  0.00    +0.000 OA
BRANCH  21  24
ATOM     24  C   UNL     1       3.147   4.904  18.977  0.00  0.00    +0.000 A 
ATOM     25  C   UNL     1       3.110   3.630  18.403  0.00  0.00    +0.000 A 
ATOM     26  C   UNL     1       3.844   3.380  17.256  0.00  0.00    +0.000 A 
ATOM     27  C   UNL     1       4.703   4.356  16.761  0.00  0.00    +0.000 A 
ATOM     28  C   UNL     1       5.474   4.060  15.652  0.00  0.00    +0.000 A 
ATOM     29  C   UNL     1       6.774   4.535  15.660  0.00  0.00    +0.000 A 
ATOM     30  C   UNL     1       7.034   5.722  16.327  0.00  0.00    +0.000 A 
ATOM     31  C   UNL     1       6.036   6.324  17.105  0.00  0.00    +0.000 A 
ATOM     32  C   UNL     1       4.895   5.574  17.444  0.00  0.00    +0.000 A 
ATOM     33  C   UNL     1       4.014   5.895  18.493  0.00  0.00    +0.000 A 
ENDBRANCH  21  24
ENDBRANCH  19  21
ENDBRANCH  18  19
ENDBRANCH   4  18
TORSDOF 6
ENDMDL
