MODEL 1
REMARK VINA RESULT:      -6.4      0.000      0.000
REMARK  Name = 
REMARK  8 active torsions:
REMARK  status: ('A' for Active; 'I' for Inactive)
REMARK    1  A    between atoms: C_1  and  O_2
REMARK    2  A    between atoms: O_2  and  C_3
REMARK    3  A    between atoms: C_3  and  C_5
REMARK    4  A    between atoms: C_11  and  C_12
REMARK    5  A    between atoms: C_15  and  O_16
REMARK    6  A    between atoms: O_16  and  C_17
REMARK    7  A    between atoms: C_24  and  C_25
REMARK    8  A    between atoms: C_24  and  C_26
REMARK                            x       y       z     vdW  Elec       q    Type
REMARK                         _______ _______ _______ _____ _____    ______ ____
ROOT
ATOM      1  C   UNL     1       0.866  13.597  21.526  0.00  0.00    +0.000 A 
ATOM      2  N   UNL     1       2.110  13.117  21.291  0.00  0.00    +0.000 NA
ATOM      3  O   UNL     1       1.965  11.790  20.953  0.00  0.00    +0.000 OA
ATOM      4  C   UNL     1       0.658  11.493  20.967  0.00  0.00    +0.000 A 
ATOM      5  C   UNL     1      -0.109  12.599  21.232  0.00  0.00    +0.000 A 
ATOM      6  C   UNL     1      -1.597  12.540  20.941  0.00  0.00    +0.000 C 
ATOM      7  C   UNL     1      -1.723  11.860  19.509  0.00  0.00    +0.000 C 
ATOM      8  C   UNL     1      -1.135  12.969  18.546  0.00  0.00    +0.000 C 
ATOM      9  C   UNL     1      -3.067  11.596  18.789  0.00  0.00    +0.000 A 
ATOM     10  C   UNL     1      -4.260  12.272  19.102  0.00  0.00    +0.000 A 
ATOM     11  C   UNL     1      -5.344  12.237  18.209  0.00  0.00    +0.000 A 
ATOM     12  C   UNL     1      -5.258  11.504  17.022  0.00  0.00    +0.000 A 
ATOM     13  C   UNL     1      -4.114  10.781  16.725  0.00  0.00    +0.000 A 
ATOM     14  C   UNL     1      -3.019  10.812  17.597  0.00  0.00    +0.000 A 
ATOM     15  C   UNL     1      -1.813   9.994  17.181  0.00  0.00    +0.000 C 
ATOM     16  C   UNL     1      -0.582  10.086  18.081  0.00  0.00    +0.000 C 
ATOM     17  C   UNL     1      -0.990  10.407  19.521  0.00  0.00    +0.000 C 
ATOM     18  C   UNL     1       0.154  10.155  20.594  0.00  0.00    +0.000 C 
ATOM     19  C   UNL     1       1.259   9.194  20.148  0.00  0.00    +0.000 C 
ATOM     20  C   UNL     1      -0.445   9.525  21.892  0.00  0.00    +0.000 C 
ENDROOT
BRANCH   1  21
ATOM     21  C   UNL     1       0.731  14.956  22.035  0.00  0.00    +0.000 C 
ATOM     22  O   UNL     1       0.245  15.247  23.114  0.00  0.00    +0.000 OA
BRANCH  21  24
ATOM     23  C   UNL     1      -0.022  16.176  20.212  0.00  0.00    +0.000 C 
ATOM     24  O   UNL     1       1.073  15.874  21.081  0.00  0.00    +0.000 OA
ENDBRANCH  21  24
ENDBRANCH   1  21
BRANCH  11  25
ATOM     25  O   UNL     1      -6.534  12.901  18.335  0.00  0.00    +0.000 OA
ATOM     26  C   UNL     1      -7.396  12.503  19.383  0.00  0.00    +0.000 C 
ENDBRANCH  11  25
TORSDOF 3
ENDMDL
MODEL 2
REMARK VINA RESULT:      -6.2      2.741      5.575
REMARK  Name = 
REMARK  8 active torsions:
REMARK  status: ('A' for Active; 'I' for Inactive)
REMARK    1  A    between atoms: C_1  and  O_2
REMARK    2  A    between atoms: O_2  and  C_3
REMARK    3  A    between atoms: C_3  and  C_5
REMARK    4  A    between atoms: C_11  and  C_12
REMARK    5  A    between atoms: C_15  and  O_16
REMARK    6  A    between atoms: O_16  and  C_17
REMARK    7  A    between atoms: C_24  and  C_25
REMARK    8  A    between atoms: C_24  and  C_26
REMARK                            x       y       z     vdW  Elec       q    Type
REMARK                         _______ _______ _______ _____ _____    ______ ____
ROOT
ATOM      1  C   UNL     1      -0.160  15.303  19.547  0.00  0.00    +0.000 A 
ATOM      2  N   UNL     1      -0.668  15.958  20.618  0.00  0.00    +0.000 NA
ATOM      3  O   UNL     1      -1.506  15.074  21.261  0.00  0.00    +0.000 OA
ATOM      4  C   UNL     1      -1.480  13.910  20.596  0.00  0.00    +0.000 A 
ATOM      5  C   UNL     1      -0.588  13.943  19.554  0.00  0.00    +0.000 A 
ATOM      6  C   UNL     1      -0.161  12.632  18.919  0.00  0.00    +0.000 C 
ATOM      7  C   UNL     1       0.131  11.647  20.133  0.00  0.00    +0.000 C 
ATOM      8  C   UNL     1       1.439  12.266  20.773  0.00  0.00    +0.000 C 
ATOM      9  C   UNL     1       0.606  10.184  19.967  0.00  0.00    +0.000 A 
ATOM     10  C   UNL     1       1.215   9.694  18.798  0.00  0.00    +0.000 A 
ATOM     11  C   UNL     1       1.918   8.477  18.827  0.00  0.00    +0.000 A 
ATOM     12  C   UNL     1       1.986   7.730  20.006  0.00  0.00    +0.000 A 
ATOM     13  C   UNL     1       1.339   8.164  21.152  0.00  0.00    +0.000 A 
ATOM     14  C   UNL     1       0.644   9.379  21.146  0.00  0.00    +0.000 A 
ATOM     15  C   UNL     1      -0.024   9.771  22.448  0.00  0.00    +0.000 C 
ATOM     16  C   UNL     1      -0.715  11.133  22.479  0.00  0.00    +0.000 C 
ATOM     17  C   UNL     1      -1.188  11.530  21.079  0.00  0.00    +0.000 C 
ATOM     18  C   UNL     1      -2.233  12.726  21.057  0.00  0.00    +0.000 C 
ATOM     19  C   UNL     1      -2.978  12.958  22.375  0.00  0.00    +0.000 C 
ATOM     20  C   UNL     1      -3.345  12.459  19.994  0.00  0.00    +0.000 C 
ENDROOT
BRANCH   1  21
ATOM     21  C   UNL     1       0.666  16.049  18.605  0.00  0.00    +0.000 C 
ATOM     22  O   UNL     1       1.850  15.842  18.408  0.00  0.00    +0.000 OA
BRANCH  21  24
ATOM     23  C   UNL     1       0.765  18.309  18.096  0.00  0.00    +0.000 C 
ATOM     24  O   UNL     1      -0.019  17.113  18.087  0.00  0.00    +0.000 OA
ENDBRANCH  21  24
ENDBRANCH   1  21
BRANCH  11  25
ATOM     25  O   UNL     1       2.623   7.912  17.800  0.00  0.00    +0.000 OA
ATOM     26  C   UNL     1       3.247   6.667  18.044  0.00  0.00    +0.000 C 
ENDBRANCH  11  25
TORSDOF 3
ENDMDL
MODEL 3
REMARK VINA RESULT:      -6.2      2.741      5.475
REMARK  Name = 
REMARK  8 active torsions:
REMARK  status: ('A' for Active; 'I' for Inactive)
REMARK    1  A    between atoms: C_1  and  O_2
REMARK    2  A    between atoms: O_2  and  C_3
REMARK    3  A    between atoms: C_3  and  C_5
REMARK    4  A    between atoms: C_11  and  C_12
REMARK    5  A    between atoms: C_15  and  O_16
REMARK    6  A    between atoms: O_16  and  C_17
REMARK    7  A    between atoms: C_24  and  C_25
REMARK    8  A    between atoms: C_24  and  C_26
REMARK                            x       y       z     vdW  Elec       q    Type
REMARK                         _______ _______ _______ _____ _____    ______ ____
ROOT
ATOM      1  C   UNL     1      -0.699  15.583  19.857  0.00  0.00    +0.000 A 
ATOM      2  N   UNL     1      -1.165  16.171  20.983  0.00  0.00    +0.000 NA
ATOM      3  O   UNL     1      -1.921  15.226  21.639  0.00  0.00    +0.000 OA
ATOM      4  C   UNL     1      -1.886  14.091  20.927  0.00  0.00    +0.000 A 
ATOM      5  C   UNL     1      -1.065  14.205  19.834  0.00  0.00    +0.000 A 
ATOM      6  C   UNL     1      -0.622  12.941  19.119  0.00  0.00    +0.000 C 
ATOM      7  C   UNL     1      -0.210  11.925  20.271  0.00  0.00    +0.000 C 
ATOM      8  C   UNL     1       1.108  12.579  20.854  0.00  0.00    +0.000 C 
ATOM      9  C   UNL     1       0.318  10.493  20.016  0.00  0.00    +0.000 A 
ATOM     10  C   UNL     1       0.872  10.077  18.792  0.00  0.00    +0.000 A 
ATOM     11  C   UNL     1       1.628   8.894  18.727  0.00  0.00    +0.000 A 
ATOM     12  C   UNL     1       1.804   8.106  19.868  0.00  0.00    +0.000 A 
ATOM     13  C   UNL     1       1.213   8.465  21.068  0.00  0.00    +0.000 A 
ATOM     14  C   UNL     1       0.467   9.646  21.156  0.00  0.00    +0.000 A 
ATOM     15  C   UNL     1      -0.133   9.956  22.512  0.00  0.00    +0.000 C 
ATOM     16  C   UNL     1      -0.880  11.282  22.643  0.00  0.00    +0.000 C 
ATOM     17  C   UNL     1      -1.459  11.710  21.292  0.00  0.00    +0.000 C 
ATOM     18  C   UNL     1      -2.555  12.856  21.385  0.00  0.00    +0.000 C 
ATOM     19  C   UNL     1      -3.223  13.002  22.755  0.00  0.00    +0.000 C 
ATOM     20  C   UNL     1      -3.720  12.579  20.382  0.00  0.00    +0.000 C 
ENDROOT
BRANCH   1  21
ATOM     21  C   UNL     1       0.031  16.402  18.897  0.00  0.00    +0.000 C 
ATOM     22  O   UNL     1      -0.437  16.837  17.860  0.00  0.00    +0.000 OA
BRANCH  21  24
ATOM     23  C   UNL     1       2.142  15.505  18.550  0.00  0.00    +0.000 C 
ATOM     24  O   UNL     1       1.355  16.487  19.230  0.00  0.00    +0.000 OA
ENDBRANCH  21  24
ENDBRANCH   1  21
BRANCH  11  25
ATOM     25  O   UNL     1       2.290   8.402  17.636  0.00  0.00    +0.000 OA
ATOM     26  C   UNL     1       3.220   7.359  17.851  0.00  0.00    +0.000 C 
ENDBRANCH  11  25
TORSDOF 3
ENDMDL
MODEL 4
REMARK VINA RESULT:      -6.1      9.072     11.242
REMARK  Name = 
REMARK  8 active torsions:
REMARK  status: ('A' for Active; 'I' for Inactive)
REMARK    1  A    between atoms: C_1  and  O_2
REMARK    2  A    between atoms: O_2  and  C_3
REMARK    3  A    between atoms: C_3  and  C_5
REMARK    4  A    between atoms: C_11  and  C_12
REMARK    5  A    between atoms: C_15  and  O_16
REMARK    6  A    between atoms: O_16  and  C_17
REMARK    7  A    between atoms: C_24  and  C_25
REMARK    8  A    between atoms: C_24  and  C_26
REMARK                            x       y       z     vdW  Elec       q    Type
REMARK                         _______ _______ _______ _____ _____    ______ ____
ROOT
ATOM      1  C   UNL     1       5.241  11.820  26.524  0.00  0.00    +0.000 A 
ATOM      2  N   UNL     1       4.627  12.870  27.118  0.00  0.00    +0.000 NA
ATOM      3  O   UNL     1       5.476  13.947  26.994  0.00  0.00    +0.000 OA
ATOM      4  C   UNL     1       6.564  13.549  26.319  0.00  0.00    +0.000 A 
ATOM      5  C   UNL     1       6.455  12.244  25.910  0.00  0.00    +0.000 A 
ATOM      6  C   UNL     1       7.409  11.732  24.846  0.00  0.00    +0.000 C 
ATOM      7  C   UNL     1       7.457  12.871  23.736  0.00  0.00    +0.000 C 
ATOM      8  C   UNL     1       6.011  12.792  23.097  0.00  0.00    +0.000 C 
ATOM      9  C   UNL     1       8.302  12.786  22.442  0.00  0.00    +0.000 A 
ATOM     10  C   UNL     1       8.780  11.577  21.906  0.00  0.00    +0.000 A 
ATOM     11  C   UNL     1       9.241  11.529  20.579  0.00  0.00    +0.000 A 
ATOM     12  C   UNL     1       9.260  12.686  19.796  0.00  0.00    +0.000 A 
ATOM     13  C   UNL     1       8.853  13.899  20.326  0.00  0.00    +0.000 A 
ATOM     14  C   UNL     1       8.380  13.966  21.643  0.00  0.00    +0.000 A 
ATOM     15  C   UNL     1       7.952  15.336  22.128  0.00  0.00    +0.000 C 
ATOM     16  C   UNL     1       7.356  15.407  23.533  0.00  0.00    +0.000 C 
ATOM     17  C   UNL     1       7.908  14.281  24.411  0.00  0.00    +0.000 C 
ATOM     18  C   UNL     1       7.653  14.482  25.966  0.00  0.00    +0.000 C 
ATOM     19  C   UNL     1       7.377  15.926  26.395  0.00  0.00    +0.000 C 
ATOM     20  C   UNL     1       8.907  14.038  26.785  0.00  0.00    +0.000 C 
ENDROOT
BRANCH   1  21
ATOM     21  C   UNL     1       4.619  10.505  26.624  0.00  0.00    +0.000 C 
ATOM     22  O   UNL     1       4.076   9.924  25.700  0.00  0.00    +0.000 OA
BRANCH  21  24
ATOM     23  C   UNL     1       5.857   9.606  28.367  0.00  0.00    +0.000 C 
ATOM     24  O   UNL     1       4.582  10.076  27.921  0.00  0.00    +0.000 OA
ENDBRANCH  21  24
ENDBRANCH   1  21
BRANCH  11  25
ATOM     25  O   UNL     1       9.661  10.420  19.896  0.00  0.00    +0.000 OA
ATOM     26  C   UNL     1       8.950  10.065  18.727  0.00  0.00    +0.000 C 
ENDBRANCH  11  25
TORSDOF 3
ENDMDL
MODEL 5
REMARK VINA RESULT:      -6.0      1.980      2.231
REMARK  Name = 
REMARK  8 active torsions:
REMARK  status: ('A' for Active; 'I' for Inactive)
REMARK    1  A    between atoms: C_1  and  O_2
REMARK    2  A    between atoms: O_2  and  C_3
REMARK    3  A    between atoms: C_3  and  C_5
REMARK    4  A    between atoms: C_11  and  C_12
REMARK    5  A    between atoms: C_15  and  O_16
REMARK    6  A    between atoms: O_16  and  C_17
REMARK    7  A    between atoms: C_24  and  C_25
REMARK    8  A    between atoms: C_24  and  C_26
REMARK                            x       y       z     vdW  Elec       q    Type
REMARK                         _______ _______ _______ _____ _____    ______ ____
ROOT
ATOM      1  C   UNL     1       2.194  13.276  19.078  0.00  0.00    +0.000 A 
ATOM      2  N   UNL     1       3.016  12.678  18.185  0.00  0.00    +0.000 NA
ATOM      3  O   UNL     1       2.575  11.381  18.047  0.00  0.00    +0.000 OA
ATOM      4  C   UNL     1       1.497  11.218  18.828  0.00  0.00    +0.000 A 
ATOM      5  C   UNL     1       1.138  12.390  19.444  0.00  0.00    +0.000 A 
ATOM      6  C   UNL     1      -0.240  12.491  20.072  0.00  0.00    +0.000 C 
ATOM      7  C   UNL     1      -1.239  11.860  19.007  0.00  0.00    +0.000 C 
ATOM      8  C   UNL     1      -1.216  12.926  17.838  0.00  0.00    +0.000 C 
ATOM      9  C   UNL     1      -2.769  11.752  19.211  0.00  0.00    +0.000 A 
ATOM     10  C   UNL     1      -3.486  12.538  20.131  0.00  0.00    +0.000 A 
ATOM     11  C   UNL     1      -4.885  12.634  20.033  0.00  0.00    +0.000 A 
ATOM     12  C   UNL     1      -5.575  11.925  19.046  0.00  0.00    +0.000 A 
ATOM     13  C   UNL     1      -4.892  11.096  18.171  0.00  0.00    +0.000 A 
ATOM     14  C   UNL     1      -3.498  10.995  18.244  0.00  0.00    +0.000 A 
ATOM     15  C   UNL     1      -2.843  10.069  17.240  0.00  0.00    +0.000 C 
ATOM     16  C   UNL     1      -1.316  10.013  17.255  0.00  0.00    +0.000 C 
ATOM     17  C   UNL     1      -0.779  10.341  18.650  0.00  0.00    +0.000 C 
ATOM     18  C   UNL     1       0.744   9.948  18.871  0.00  0.00    +0.000 C 
ATOM     19  C   UNL     1       1.286   8.890  17.906  0.00  0.00    +0.000 C 
ATOM     20  C   UNL     1       0.953   9.352  20.299  0.00  0.00    +0.000 C 
ENDROOT
BRANCH   1  21
ATOM     21  C   UNL     1       2.511  14.630  19.516  0.00  0.00    +0.000 C 
ATOM     22  O   UNL     1       1.909  15.236  20.385  0.00  0.00    +0.000 OA
BRANCH  21  24
ATOM     23  C   UNL     1       2.946  16.270  17.934  0.00  0.00    +0.000 C 
ATOM     24  O   UNL     1       3.468  15.194  18.718  0.00  0.00    +0.000 OA
ENDBRANCH  21  24
ENDBRANCH   1  21
BRANCH  11  25
ATOM     25  O   UNL     1      -5.709  13.413  20.799  0.00  0.00    +0.000 OA
ATOM     26  C   UNL     1      -6.621  12.754  21.655  0.00  0.00    +0.000 C 
ENDBRANCH  11  25
TORSDOF 3
ENDMDL
MODEL 6
REMARK VINA RESULT:      -6.0      1.971      2.379
REMARK  Name = 
REMARK  8 active torsions:
REMARK  status: ('A' for Active; 'I' for Inactive)
REMARK    1  A    between atoms: C_1  and  O_2
REMARK    2  A    between atoms: O_2  and  C_3
REMARK    3  A    between atoms: C_3  and  C_5
REMARK    4  A    between atoms: C_11  and  C_12
REMARK    5  A    between atoms: C_15  and  O_16
REMARK    6  A    between atoms: O_16  and  C_17
REMARK    7  A    between atoms: C_24  and  C_25
REMARK    8  A    between atoms: C_24  and  C_26
REMARK                            x       y       z     vdW  Elec       q    Type
REMARK                         _______ _______ _______ _____ _____    ______ ____
ROOT
ATOM      1  C   UNL     1       2.247  13.191  19.023  0.00  0.00    +0.000 A 
ATOM      2  N   UNL     1       3.044  12.579  18.116  0.00  0.00    +0.000 NA
ATOM      3  O   UNL     1       2.574  11.291  17.982  0.00  0.00    +0.000 OA
ATOM      4  C   UNL     1       1.505  11.148  18.779  0.00  0.00    +0.000 A 
ATOM      5  C   UNL     1       1.179  12.326  19.403  0.00  0.00    +0.000 A 
ATOM      6  C   UNL     1      -0.187  12.453  20.052  0.00  0.00    +0.000 C 
ATOM      7  C   UNL     1      -1.215  11.845  19.000  0.00  0.00    +0.000 C 
ATOM      8  C   UNL     1      -1.187  12.914  17.834  0.00  0.00    +0.000 C 
ATOM      9  C   UNL     1      -2.743  11.768  19.227  0.00  0.00    +0.000 A 
ATOM     10  C   UNL     1      -3.430  12.566  20.159  0.00  0.00    +0.000 A 
ATOM     11  C   UNL     1      -4.828  12.692  20.083  0.00  0.00    +0.000 A 
ATOM     12  C   UNL     1      -5.547  11.999  19.105  0.00  0.00    +0.000 A 
ATOM     13  C   UNL     1      -4.895  11.158  18.218  0.00  0.00    +0.000 A 
ATOM     14  C   UNL     1      -3.502  11.029  18.270  0.00  0.00    +0.000 A 
ATOM     15  C   UNL     1      -2.882  10.092  17.254  0.00  0.00    +0.000 C 
ATOM     16  C   UNL     1      -1.356  10.005  17.246  0.00  0.00    +0.000 C 
ATOM     17  C   UNL     1      -0.791  10.318  18.633  0.00  0.00    +0.000 C 
ATOM     18  C   UNL     1       0.727   9.894  18.830  0.00  0.00    +0.000 C 
ATOM     19  C   UNL     1       1.232   8.828  17.855  0.00  0.00    +0.000 C 
ATOM     20  C   UNL     1       0.944   9.290  20.254  0.00  0.00    +0.000 C 
ENDROOT
BRANCH   1  21
ATOM     21  C   UNL     1       2.598  14.537  19.460  0.00  0.00    +0.000 C 
ATOM     22  O   UNL     1       2.466  15.542  18.783  0.00  0.00    +0.000 OA
BRANCH  21  24
ATOM     23  C   UNL     1       2.400  14.959  21.732  0.00  0.00    +0.000 C 
ATOM     24  O   UNL     1       3.242  14.510  20.666  0.00  0.00    +0.000 OA
ENDBRANCH  21  24
ENDBRANCH   1  21
BRANCH  11  25
ATOM     25  O   UNL     1      -5.624  13.485  20.863  0.00  0.00    +0.000 OA
ATOM     26  C   UNL     1      -5.219  13.704  22.200  0.00  0.00    +0.000 C 
ENDBRANCH  11  25
TORSDOF 3
ENDMDL
MODEL 7
REMARK VINA RESULT:      -6.0      2.591      5.048
REMARK  Name = 
REMARK  8 active torsions:
REMARK  status: ('A' for Active; 'I' for Inactive)
REMARK    1  A    between atoms: C_1  and  O_2
REMARK    2  A    between atoms: O_2  and  C_3
REMARK    3  A    between atoms: C_3  and  C_5
REMARK    4  A    between atoms: C_11  and  C_12
REMARK    5  A    between atoms: C_15  and  O_16
REMARK    6  A    between atoms: O_16  and  C_17
REMARK    7  A    between atoms: C_24  and  C_25
REMARK    8  A    between atoms: C_24  and  C_26
REMARK                            x       y       z     vdW  Elec       q    Type
REMARK                         _______ _______ _______ _____ _____    ______ ____
ROOT
ATOM      1  C   UNL     1       1.445   8.638  20.570  0.00  0.00    +0.000 A 
ATOM      2  N   UNL     1       1.433   8.966  21.883  0.00  0.00    +0.000 NA
ATOM      3  O   UNL     1       1.017  10.276  21.960  0.00  0.00    +0.000 OA
ATOM      4  C   UNL     1       0.765  10.711  20.717  0.00  0.00    +0.000 A 
ATOM      5  C   UNL     1       0.925   9.713  19.790  0.00  0.00    +0.000 A 
ATOM      6  C   UNL     1       0.350   9.910  18.400  0.00  0.00    +0.000 C 
ATOM      7  C   UNL     1      -1.107  10.507  18.624  0.00  0.00    +0.000 C 
ATOM      8  C   UNL     1      -1.890   9.281  19.247  0.00  0.00    +0.000 C 
ATOM      9  C   UNL     1      -2.083  10.864  17.478  0.00  0.00    +0.000 A 
ATOM     10  C   UNL     1      -1.977  10.342  16.177  0.00  0.00    +0.000 A 
ATOM     11  C   UNL     1      -3.063  10.434  15.290  0.00  0.00    +0.000 A 
ATOM     12  C   UNL     1      -4.242  11.075  15.682  0.00  0.00    +0.000 A 
ATOM     13  C   UNL     1      -4.344  11.652  16.937  0.00  0.00    +0.000 A 
ATOM     14  C   UNL     1      -3.277  11.560  17.839  0.00  0.00    +0.000 A 
ATOM     15  C   UNL     1      -3.487  12.216  19.189  0.00  0.00    +0.000 C 
ATOM     16  C   UNL     1      -2.363  12.052  20.211  0.00  0.00    +0.000 C 
ATOM     17  C   UNL     1      -1.017  11.870  19.507  0.00  0.00    +0.000 C 
ATOM     18  C   UNL     1       0.245  12.068  20.451  0.00  0.00    +0.000 C 
ATOM     19  C   UNL     1      -0.021  12.875  21.726  0.00  0.00    +0.000 C 
ATOM     20  C   UNL     1       1.374  12.841  19.698  0.00  0.00    +0.000 C 
ENDROOT
BRANCH   1  21
ATOM     21  C   UNL     1       1.976   7.337  20.184  0.00  0.00    +0.000 C 
ATOM     22  O   UNL     1       2.692   7.139  19.217  0.00  0.00    +0.000 OA
BRANCH  21  24
ATOM     23  C   UNL     1       2.033   5.069  20.667  0.00  0.00    +0.000 C 
ATOM     24  O   UNL     1       1.441   6.339  20.951  0.00  0.00    +0.000 OA
ENDBRANCH  21  24
ENDBRANCH   1  21
BRANCH  11  25
ATOM     25  O   UNL     1      -3.140   9.910  14.028  0.00  0.00    +0.000 OA
ATOM     26  C   UNL     1      -4.405   9.908  13.397  0.00  0.00    +0.000 C 
ENDBRANCH  11  25
TORSDOF 3
ENDMDL
MODEL 8
REMARK VINA RESULT:      -5.9      3.853      7.155
REMARK  Name = 
REMARK  8 active torsions:
REMARK  status: ('A' for Active; 'I' for Inactive)
REMARK    1  A    between atoms: C_1  and  O_2
REMARK    2  A    between atoms: O_2  and  C_3
REMARK    3  A    between atoms: C_3  and  C_5
REMARK    4  A    between atoms: C_11  and  C_12
REMARK    5  A    between atoms: C_15  and  O_16
REMARK    6  A    between atoms: O_16  and  C_17
REMARK    7  A    between atoms: C_24  and  C_25
REMARK    8  A    between atoms: C_24  and  C_26
REMARK                            x       y       z     vdW  Elec       q    Type
REMARK                         _______ _______ _______ _____ _____    ______ ____
ROOT
ATOM      1  C   UNL     1      -5.975  13.969  23.740  0.00  0.00    +0.000 A 
ATOM      2  N   UNL     1      -6.260  15.278  23.547  0.00  0.00    +0.000 NA
ATOM      3  O   UNL     1      -5.089  15.973  23.758  0.00  0.00    +0.000 OA
ATOM      4  C   UNL     1      -4.123  15.091  24.050  0.00  0.00    +0.000 A 
ATOM      5  C   UNL     1      -4.578  13.799  23.972  0.00  0.00    +0.000 A 
ATOM      6  C   UNL     1      -3.564  12.671  23.917  0.00  0.00    +0.000 C 
ATOM      7  C   UNL     1      -2.457  13.146  22.878  0.00  0.00    +0.000 C 
ATOM      8  C   UNL     1      -3.234  13.098  21.500  0.00  0.00    +0.000 C 
ATOM      9  C   UNL     1      -1.216  12.307  22.489  0.00  0.00    +0.000 A 
ATOM     10  C   UNL     1      -1.132  10.915  22.674  0.00  0.00    +0.000 A 
ATOM     11  C   UNL     1      -0.141  10.176  22.006  0.00  0.00    +0.000 A 
ATOM     12  C   UNL     1       0.787  10.820  21.183  0.00  0.00    +0.000 A 
ATOM     13  C   UNL     1       0.760  12.198  21.039  0.00  0.00    +0.000 A 
ATOM     14  C   UNL     1      -0.227  12.951  21.687  0.00  0.00    +0.000 A 
ATOM     15  C   UNL     1      -0.177  14.448  21.461  0.00  0.00    +0.000 C 
ATOM     16  C   UNL     1      -1.297  15.273  22.094  0.00  0.00    +0.000 C 
ATOM     17  C   UNL     1      -1.838  14.576  23.345  0.00  0.00    +0.000 C 
ATOM     18  C   UNL     1      -2.724  15.506  24.278  0.00  0.00    +0.000 C 
ATOM     19  C   UNL     1      -2.501  17.010  24.092  0.00  0.00    +0.000 C 
ATOM     20  C   UNL     1      -2.413  15.224  25.783  0.00  0.00    +0.000 C 
ENDROOT
BRANCH   1  21
ATOM     21  C   UNL     1      -7.070  13.008  23.710  0.00  0.00    +0.000 C 
ATOM     22  O   UNL     1      -7.916  12.893  24.580  0.00  0.00    +0.000 OA
BRANCH  21  24
ATOM     23  C   UNL     1      -7.916  11.101  22.695  0.00  0.00    +0.000 C 
ATOM     24  O   UNL     1      -6.937  12.144  22.658  0.00  0.00    +0.000 OA
ENDBRANCH  21  24
ENDBRANCH   1  21
BRANCH  11  25
ATOM     25  O   UNL     1       0.020   8.817  22.022  0.00  0.00    +0.000 OA
ATOM     26  C   UNL     1       1.177   8.289  21.404  0.00  0.00    +0.000 C 
ENDBRANCH  11  25
TORSDOF 3
ENDMDL
MODEL 9
REMARK VINA RESULT:      -5.9      2.582      5.187
REMARK  Name = 
REMARK  8 active torsions:
REMARK  status: ('A' for Active; 'I' for Inactive)
REMARK    1  A    between atoms: C_1  and  O_2
REMARK    2  A    between atoms: O_2  and  C_3
REMARK    3  A    between atoms: C_3  and  C_5
REMARK    4  A    between atoms: C_11  and  C_12
REMARK    5  A    between atoms: C_15  and  O_16
REMARK    6  A    between atoms: O_16  and  C_17
REMARK    7  A    between atoms: C_24  and  C_25
REMARK    8  A    between atoms: C_24  and  C_26
REMARK                            x       y       z     vdW  Elec       q    Type
REMARK                         _______ _______ _______ _____ _____    ______ ____
ROOT
ATOM      1  C   UNL     1       0.349  11.542  20.549  0.00  0.00    +0.000 A 
ATOM      2  N   UNL     1       1.458  11.998  21.177  0.00  0.00    +0.000 NA
ATOM      3  O   UNL     1       1.185  13.287  21.576  0.00  0.00    +0.000 OA
ATOM      4  C   UNL     1      -0.070  13.584  21.211  0.00  0.00    +0.000 A 
ATOM      5  C   UNL     1      -0.697  12.507  20.636  0.00  0.00    +0.000 A 
ATOM      6  C   UNL     1      -2.207  12.537  20.488  0.00  0.00    +0.000 C 
ATOM      7  C   UNL     1      -2.759  13.080  21.877  0.00  0.00    +0.000 C 
ATOM      8  C   UNL     1      -2.444  11.884  22.865  0.00  0.00    +0.000 C 
ATOM      9  C   UNL     1      -4.261  13.273  22.197  0.00  0.00    +0.000 A 
ATOM     10  C   UNL     1      -5.294  12.630  21.492  0.00  0.00    +0.000 A 
ATOM     11  C   UNL     1      -6.590  12.580  22.032  0.00  0.00    +0.000 A 
ATOM     12  C   UNL     1      -6.870  13.197  23.254  0.00  0.00    +0.000 A 
ATOM     13  C   UNL     1      -5.881  13.890  23.934  0.00  0.00    +0.000 A 
ATOM     14  C   UNL     1      -4.581  13.942  23.418  0.00  0.00    +0.000 A 
ATOM     15  C   UNL     1      -3.569  14.717  24.237  0.00  0.00    +0.000 C 
ATOM     16  C   UNL     1      -2.129  14.711  23.728  0.00  0.00    +0.000 C 
ATOM     17  C   UNL     1      -2.094  14.527  22.209  0.00  0.00    +0.000 C 
ATOM     18  C   UNL     1      -0.698  14.880  21.541  0.00  0.00    +0.000 C 
ATOM     19  C   UNL     1       0.205  15.795  22.373  0.00  0.00    +0.000 C 
ATOM     20  C   UNL     1      -0.914  15.629  20.188  0.00  0.00    +0.000 C 
ENDROOT
BRANCH   1  21
ATOM     21  C   UNL     1       0.404  10.237  19.902  0.00  0.00    +0.000 C 
ATOM     22  O   UNL     1       0.015  10.007  18.770  0.00  0.00    +0.000 OA
BRANCH  21  24
ATOM     23  C   UNL     1      -0.278   8.826  21.612  0.00  0.00    +0.000 C 
ATOM     24  O   UNL     1       0.799   9.268  20.782  0.00  0.00    +0.000 OA
ENDBRANCH  21  24
ENDBRANCH   1  21
BRANCH  11  25
ATOM     25  O   UNL     1      -7.674  11.930  21.507  0.00  0.00    +0.000 OA
ATOM     26  C   UNL     1      -7.444  11.045  20.428  0.00  0.00    +0.000 C 
ENDBRANCH  11  25
TORSDOF 3
ENDMDL
