MODEL 1
REMARK VINA RESULT:      -6.8      0.000      0.000
REMARK  Name = 
REMARK  6 active torsions:
REMARK  status: ('A' for Active; 'I' for Inactive)
REMARK    1  A    between atoms: C_1  and  O_2
REMARK    2  A    between atoms: O_2  and  C_3
REMARK    3  A    between atoms: C_6  and  C_7
REMARK    4  A    between atoms: C_13  and  C_14
REMARK    5  A    between atoms: C_20  and  O_21
REMARK    6  A    between atoms: O_21  and  C_22
REMARK                            x       y       z     vdW  Elec       q    Type
REMARK                         _______ _______ _______ _____ _____    ______ ____
ROOT
ATOM      1  C   UNL     1       3.716   5.930  18.622  0.00  0.00    +0.000 A 
ATOM      2  N   UNL     1       3.151   7.185  18.532  0.00  0.00    +0.000 NA
ATOM      3  C   UNL     1       2.257   7.473  19.407  0.00  0.00    +0.000 A 
ATOM      4  N   UNL     1       1.841   6.651  20.411  0.00  0.00    +0.000 N 
ATOM      5  C   UNL     1       2.319   5.372  20.513  0.00  0.00    +0.000 A 
ATOM      6  O   UNL     1       1.888   4.566  21.335  0.00  0.00    +0.000 OA
ATOM      7  C   UNL     1       3.378   5.002  19.544  0.00  0.00    +0.000 A 
ATOM      8  C   UNL     1       0.744   7.158  21.208  0.00  0.00    +0.000 C 
ATOM      9  C   UNL     1       0.734   8.673  21.094  0.00  0.00    +0.000 C 
ATOM     10  S   UNL     1       1.428   9.001  19.452  0.00  0.00    +0.000 S 
ENDROOT
BRANCH   1  14
ATOM     11  C   UNL     1       6.626   5.216  15.549  0.00  0.00    +0.000 A 
ATOM     12  C   UNL     1       5.509   4.373  15.694  0.00  0.00    +0.000 A 
ATOM     13  C   UNL     1       4.549   4.605  16.678  0.00  0.00    +0.000 A 
ATOM     14  C   UNL     1       4.728   5.643  17.586  0.00  0.00    +0.000 A 
ATOM     15  C   UNL     1       5.902   6.402  17.526  0.00  0.00    +0.000 A 
ATOM     16  C   UNL     1       6.858   6.207  16.515  0.00  0.00    +0.000 A 
BRANCH  11  18
ATOM     17  C   UNL     1       6.880   4.378  13.359  0.00  0.00    +0.000 C 
ATOM     18  O   UNL     1       7.463   5.071  14.472  0.00  0.00    +0.000 OA
ENDBRANCH  11  18
BRANCH  16  19
ATOM     19  O   UNL     1       7.891   7.093  16.641  0.00  0.00    +0.000 OA
ATOM     20  C   UNL     1       7.842   8.106  17.628  0.00  0.00    +0.000 C 
ENDBRANCH  16  19
ENDBRANCH   1  14
BRANCH   7  21
ATOM     21  C   UNL     1       3.963   3.707  19.628  0.00  0.00    +0.000 C 
ATOM     22  N   UNL     1       4.436   2.644  19.723  0.00  0.00    +0.000 NA
ENDBRANCH   7  21
TORSDOF 4
ENDMDL
MODEL 2
REMARK VINA RESULT:      -6.6      2.139      3.072
REMARK  Name = 
REMARK  6 active torsions:
REMARK  status: ('A' for Active; 'I' for Inactive)
REMARK    1  A    between atoms: C_1  and  O_2
REMARK    2  A    between atoms: O_2  and  C_3
REMARK    3  A    between atoms: C_6  and  C_7
REMARK    4  A    between atoms: C_13  and  C_14
REMARK    5  A    between atoms: C_20  and  O_21
REMARK    6  A    between atoms: O_21  and  C_22
REMARK                            x       y       z     vdW  Elec       q    Type
REMARK                         _______ _______ _______ _____ _____    ______ ____
ROOT
ATOM      1  C   UNL     1       4.174   4.760  18.359  0.00  0.00    +0.000 A 
ATOM      2  N   UNL     1       4.230   3.559  19.035  0.00  0.00    +0.000 NA
ATOM      3  C   UNL     1       3.414   3.416  20.016  0.00  0.00    +0.000 A 
ATOM      4  N   UNL     1       2.500   4.341  20.423  0.00  0.00    +0.000 N 
ATOM      5  C   UNL     1       2.439   5.575  19.832  0.00  0.00    +0.000 A 
ATOM      6  O   UNL     1       1.707   6.472  20.242  0.00  0.00    +0.000 OA
ATOM      7  C   UNL     1       3.342   5.777  18.673  0.00  0.00    +0.000 A 
ATOM      8  C   UNL     1       1.764   3.994  21.619  0.00  0.00    +0.000 C 
ATOM      9  C   UNL     1       1.783   2.482  21.769  0.00  0.00    +0.000 C 
ATOM     10  S   UNL     1       3.341   1.978  20.990  0.00  0.00    +0.000 S 
ENDROOT
BRANCH   1  14
ATOM     11  C   UNL     1       6.925   5.229  15.099  0.00  0.00    +0.000 A 
ATOM     12  C   UNL     1       5.991   4.178  15.107  0.00  0.00    +0.000 A 
ATOM     13  C   UNL     1       5.081   4.025  16.153  0.00  0.00    +0.000 A 
ATOM     14  C   UNL     1       5.141   4.879  17.250  0.00  0.00    +0.000 A 
ATOM     15  C   UNL     1       6.153   5.843  17.304  0.00  0.00    +0.000 A 
ATOM     16  C   UNL     1       7.050   6.036  16.241  0.00  0.00    +0.000 A 
BRANCH  11  18
ATOM     17  C   UNL     1       7.322   4.678  12.840  0.00  0.00    +0.000 C 
ATOM     18  O   UNL     1       7.692   5.459  13.986  0.00  0.00    +0.000 OA
ENDBRANCH  11  18
BRANCH  16  19
ATOM     19  O   UNL     1       7.915   7.059  16.509  0.00  0.00    +0.000 OA
ATOM     20  C   UNL     1       7.768   7.822  17.692  0.00  0.00    +0.000 C 
ENDBRANCH  16  19
ENDBRANCH   1  14
BRANCH   7  21
ATOM     21  C   UNL     1       3.293   7.016  17.973  0.00  0.00    +0.000 C 
ATOM     22  N   UNL     1       3.226   8.027  17.393  0.00  0.00    +0.000 NA
ENDBRANCH   7  21
TORSDOF 4
ENDMDL
MODEL 3
REMARK VINA RESULT:      -6.6      1.398      1.613
REMARK  Name = 
REMARK  6 active torsions:
REMARK  status: ('A' for Active; 'I' for Inactive)
REMARK    1  A    between atoms: C_1  and  O_2
REMARK    2  A    between atoms: O_2  and  C_3
REMARK    3  A    between atoms: C_6  and  C_7
REMARK    4  A    between atoms: C_13  and  C_14
REMARK    5  A    between atoms: C_20  and  O_21
REMARK    6  A    between atoms: O_21  and  C_22
REMARK                            x       y       z     vdW  Elec       q    Type
REMARK                         _______ _______ _______ _____ _____    ______ ____
ROOT
ATOM      1  C   UNL     1       3.168   6.912  18.461  0.00  0.00    +0.000 A 
ATOM      2  N   UNL     1       2.903   8.155  17.925  0.00  0.00    +0.000 NA
ATOM      3  C   UNL     1       2.077   8.893  18.574  0.00  0.00    +0.000 A 
ATOM      4  N   UNL     1       1.462   8.552  19.741  0.00  0.00    +0.000 N 
ATOM      5  C   UNL     1       1.636   7.308  20.288  0.00  0.00    +0.000 A 
ATOM      6  O   UNL     1       1.015   6.925  21.276  0.00  0.00    +0.000 OA
ATOM      7  C   UNL     1       2.608   6.430  19.592  0.00  0.00    +0.000 A 
ATOM      8  C   UNL     1       0.490   9.507  20.227  0.00  0.00    +0.000 C 
ATOM      9  C   UNL     1       0.825  10.868  19.640  0.00  0.00    +0.000 C 
ATOM     10  S   UNL     1       1.614  10.486  18.053  0.00  0.00    +0.000 S 
ENDROOT
BRANCH   1  14
ATOM     11  C   UNL     1       5.910   4.641  16.065  0.00  0.00    +0.000 A 
ATOM     12  C   UNL     1       4.646   4.122  16.401  0.00  0.00    +0.000 A 
ATOM     13  C   UNL     1       3.741   4.857  17.165  0.00  0.00    +0.000 A 
ATOM     14  C   UNL     1       4.114   6.099  17.672  0.00  0.00    +0.000 A 
ATOM     15  C   UNL     1       5.416   6.559  17.447  0.00  0.00    +0.000 A 
ATOM     16  C   UNL     1       6.325   5.849  16.646  0.00  0.00    +0.000 A 
BRANCH  11  18
ATOM     17  C   UNL     1       6.222   3.966  13.826  0.00  0.00    +0.000 C 
ATOM     18  O   UNL     1       6.713   3.974  15.174  0.00  0.00    +0.000 OA
ENDBRANCH  11  18
BRANCH  16  19
ATOM     19  O   UNL     1       7.512   6.518  16.540  0.00  0.00    +0.000 OA
ATOM     20  C   UNL     1       7.835   7.541  17.463  0.00  0.00    +0.000 C 
ENDBRANCH  16  19
ENDBRANCH   1  14
BRANCH   7  21
ATOM     21  C   UNL     1       2.882   5.144  20.136  0.00  0.00    +0.000 C 
ATOM     22  N   UNL     1       3.122   4.101  20.603  0.00  0.00    +0.000 NA
ENDBRANCH   7  21
TORSDOF 4
ENDMDL
MODEL 4
REMARK VINA RESULT:      -6.5      3.084      6.801
REMARK  Name = 
REMARK  6 active torsions:
REMARK  status: ('A' for Active; 'I' for Inactive)
REMARK    1  A    between atoms: C_1  and  O_2
REMARK    2  A    between atoms: O_2  and  C_3
REMARK    3  A    between atoms: C_6  and  C_7
REMARK    4  A    between atoms: C_13  and  C_14
REMARK    5  A    between atoms: C_20  and  O_21
REMARK    6  A    between atoms: O_21  and  C_22
REMARK                            x       y       z     vdW  Elec       q    Type
REMARK                         _______ _______ _______ _____ _____    ______ ____
ROOT
ATOM      1  C   UNL     1       4.936   4.105  16.603  0.00  0.00    +0.000 A 
ATOM      2  N   UNL     1       4.753   3.687  15.301  0.00  0.00    +0.000 NA
ATOM      3  C   UNL     1       5.629   4.077  14.447  0.00  0.00    +0.000 A 
ATOM      4  N   UNL     1       6.717   4.848  14.728  0.00  0.00    +0.000 N 
ATOM      5  C   UNL     1       6.917   5.345  15.988  0.00  0.00    +0.000 A 
ATOM      6  O   UNL     1       7.822   6.132  16.255  0.00  0.00    +0.000 OA
ATOM      7  C   UNL     1       5.949   4.897  17.018  0.00  0.00    +0.000 A 
ATOM      8  C   UNL     1       7.502   5.247  13.580  0.00  0.00    +0.000 C 
ATOM      9  C   UNL     1       7.253   4.248  12.463  0.00  0.00    +0.000 C 
ATOM     10  S   UNL     1       5.565   3.659  12.761  0.00  0.00    +0.000 S 
ENDROOT
BRANCH   1  14
ATOM     11  C   UNL     1       1.986   2.813  19.439  0.00  0.00    +0.000 A 
ATOM     12  C   UNL     1       2.750   1.878  18.718  0.00  0.00    +0.000 A 
ATOM     13  C   UNL     1       3.723   2.286  17.806  0.00  0.00    +0.000 A 
ATOM     14  C   UNL     1       3.896   3.641  17.542  0.00  0.00    +0.000 A 
ATOM     15  C   UNL     1       3.049   4.566  18.161  0.00  0.00    +0.000 A 
ATOM     16  C   UNL     1       2.092   4.173  19.112  0.00  0.00    +0.000 A 
BRANCH  11  18
ATOM     17  C   UNL     1       1.695   2.577  21.768  0.00  0.00    +0.000 C 
ATOM     18  O   UNL     1       1.159   2.393  20.450  0.00  0.00    +0.000 OA
ENDBRANCH  11  18
BRANCH  16  19
ATOM     19  O   UNL     1       1.419   5.256  19.605  0.00  0.00    +0.000 OA
ATOM     20  C   UNL     1       2.134   6.351  20.146  0.00  0.00    +0.000 C 
ENDBRANCH  16  19
ENDBRANCH   1  14
BRANCH   7  21
ATOM     21  C   UNL     1       6.128   5.328  18.362  0.00  0.00    +0.000 C 
ATOM     22  N   UNL     1       6.290   5.659  19.470  0.00  0.00    +0.000 NA
ENDBRANCH   7  21
TORSDOF 4
ENDMDL
MODEL 5
REMARK VINA RESULT:      -6.2      3.079      4.365
REMARK  Name = 
REMARK  6 active torsions:
REMARK  status: ('A' for Active; 'I' for Inactive)
REMARK    1  A    between atoms: C_1  and  O_2
REMARK    2  A    between atoms: O_2  and  C_3
REMARK    3  A    between atoms: C_6  and  C_7
REMARK    4  A    between atoms: C_13  and  C_14
REMARK    5  A    between atoms: C_20  and  O_21
REMARK    6  A    between atoms: O_21  and  C_22
REMARK                            x       y       z     vdW  Elec       q    Type
REMARK                         _______ _______ _______ _____ _____    ______ ____
ROOT
ATOM      1  C   UNL     1       2.215   7.155  19.631  0.00  0.00    +0.000 A 
ATOM      2  N   UNL     1       1.443   7.548  20.704  0.00  0.00    +0.000 NA
ATOM      3  C   UNL     1       0.960   8.736  20.657  0.00  0.00    +0.000 A 
ATOM      4  N   UNL     1       1.139   9.621  19.635  0.00  0.00    +0.000 N 
ATOM      5  C   UNL     1       1.946   9.311  18.573  0.00  0.00    +0.000 A 
ATOM      6  O   UNL     1       2.219  10.120  17.690  0.00  0.00    +0.000 OA
ATOM      7  C   UNL     1       2.501   7.936  18.567  0.00  0.00    +0.000 A 
ATOM      8  C   UNL     1       0.585  10.939  19.859  0.00  0.00    +0.000 C 
ATOM      9  C   UNL     1      -0.525  10.821  20.890  0.00  0.00    +0.000 C 
ATOM     10  S   UNL     1      -0.030   9.411  21.916  0.00  0.00    +0.000 S 
ENDROOT
BRANCH   1  14
ATOM     11  C   UNL     1       3.802   3.172  19.807  0.00  0.00    +0.000 A 
ATOM     12  C   UNL     1       2.478   3.438  20.203  0.00  0.00    +0.000 A 
ATOM     13  C   UNL     1       1.947   4.725  20.134  0.00  0.00    +0.000 A 
ATOM     14  C   UNL     1       2.756   5.786  19.739  0.00  0.00    +0.000 A 
ATOM     15  C   UNL     1       4.108   5.544  19.471  0.00  0.00    +0.000 A 
ATOM     16  C   UNL     1       4.647   4.247  19.496  0.00  0.00    +0.000 A 
BRANCH  11  18
ATOM     17  C   UNL     1       3.816   1.179  18.545  0.00  0.00    +0.000 C 
ATOM     18  O   UNL     1       4.247   1.877  19.722  0.00  0.00    +0.000 OA
ENDBRANCH  11  18
BRANCH  16  19
ATOM     19  O   UNL     1       5.971   4.261  19.159  0.00  0.00    +0.000 OA
ATOM     20  C   UNL     1       6.710   5.467  19.229  0.00  0.00    +0.000 C 
ENDBRANCH  16  19
ENDBRANCH   1  14
BRANCH   7  21
ATOM     21  C   UNL     1       3.303   7.526  17.465  0.00  0.00    +0.000 C 
ATOM     22  N   UNL     1       3.971   7.169  16.576  0.00  0.00    +0.000 NA
ENDBRANCH   7  21
TORSDOF 4
ENDMDL
MODEL 6
REMARK VINA RESULT:      -6.2      3.248      6.910
REMARK  Name = 
REMARK  6 active torsions:
REMARK  status: ('A' for Active; 'I' for Inactive)
REMARK    1  A    between atoms: C_1  and  O_2
REMARK    2  A    between atoms: O_2  and  C_3
REMARK    3  A    between atoms: C_6  and  C_7
REMARK    4  A    between atoms: C_13  and  C_14
REMARK    5  A    between atoms: C_20  and  O_21
REMARK    6  A    between atoms: O_21  and  C_22
REMARK                            x       y       z     vdW  Elec       q    Type
REMARK                         _______ _______ _______ _____ _____    ______ ____
ROOT
ATOM      1  C   UNL     1       5.369   4.649  16.034  0.00  0.00    +0.000 A 
ATOM      2  N   UNL     1       4.787   3.991  14.971  0.00  0.00    +0.000 NA
ATOM      3  C   UNL     1       5.468   3.947  13.884  0.00  0.00    +0.000 A 
ATOM      4  N   UNL     1       6.710   4.479  13.708  0.00  0.00    +0.000 N 
ATOM      5  C   UNL     1       7.313   5.197  14.707  0.00  0.00    +0.000 A 
ATOM      6  O   UNL     1       8.380   5.784  14.550  0.00  0.00    +0.000 OA
ATOM      7  C   UNL     1       6.578   5.250  15.994  0.00  0.00    +0.000 A 
ATOM      8  C   UNL     1       7.231   4.395  12.361  0.00  0.00    +0.000 C 
ATOM      9  C   UNL     1       6.530   3.250  11.650  0.00  0.00    +0.000 C 
ATOM     10  S   UNL     1       4.899   3.169  12.437  0.00  0.00    +0.000 S 
ENDROOT
BRANCH   1  14
ATOM     11  C   UNL     1       3.051   4.839  19.641  0.00  0.00    +0.000 A 
ATOM     12  C   UNL     1       3.681   3.643  19.252  0.00  0.00    +0.000 A 
ATOM     13  C   UNL     1       4.450   3.573  18.091  0.00  0.00    +0.000 A 
ATOM     14  C   UNL     1       4.541   4.683  17.256  0.00  0.00    +0.000 A 
ATOM     15  C   UNL     1       3.810   5.833  17.574  0.00  0.00    +0.000 A 
ATOM     16  C   UNL     1       3.065   5.932  18.761  0.00  0.00    +0.000 A 
BRANCH  11  18
ATOM     17  C   UNL     1       2.033   3.670  21.419  0.00  0.00    +0.000 C 
ATOM     18  O   UNL     1       2.445   4.930  20.868  0.00  0.00    +0.000 OA
ENDBRANCH  11  18
BRANCH  16  19
ATOM     19  O   UNL     1       2.477   7.161  18.869  0.00  0.00    +0.000 OA
ATOM     20  C   UNL     1       2.636   8.117  17.838  0.00  0.00    +0.000 C 
ENDBRANCH  16  19
ENDBRANCH   1  14
BRANCH   7  21
ATOM     21  C   UNL     1       7.171   5.931  17.094  0.00  0.00    +0.000 C 
ATOM     22  N   UNL     1       7.644   6.473  18.014  0.00  0.00    +0.000 NA
ENDBRANCH   7  21
TORSDOF 4
ENDMDL
MODEL 7
REMARK VINA RESULT:      -6.2      3.058      6.410
REMARK  Name = 
REMARK  6 active torsions:
REMARK  status: ('A' for Active; 'I' for Inactive)
REMARK    1  A    between atoms: C_1  and  O_2
REMARK    2  A    between atoms: O_2  and  C_3
REMARK    3  A    between atoms: C_6  and  C_7
REMARK    4  A    between atoms: C_13  and  C_14
REMARK    5  A    between atoms: C_20  and  O_21
REMARK    6  A    between atoms: O_21  and  C_22
REMARK                            x       y       z     vdW  Elec       q    Type
REMARK                         _______ _______ _______ _____ _____    ______ ____
ROOT
ATOM      1  C   UNL     1       3.284   6.016  18.206  0.00  0.00    +0.000 A 
ATOM      2  N   UNL     1       4.408   6.532  17.598  0.00  0.00    +0.000 NA
ATOM      3  C   UNL     1       5.133   5.703  16.938  0.00  0.00    +0.000 A 
ATOM      4  N   UNL     1       4.871   4.375  16.783  0.00  0.00    +0.000 N 
ATOM      5  C   UNL     1       3.804   3.792  17.415  0.00  0.00    +0.000 A 
ATOM      6  O   UNL     1       3.599   2.582  17.390  0.00  0.00    +0.000 OA
ATOM      7  C   UNL     1       2.918   4.716  18.164  0.00  0.00    +0.000 A 
ATOM      8  C   UNL     1       5.891   3.623  16.085  0.00  0.00    +0.000 C 
ATOM      9  C   UNL     1       6.685   4.587  15.220  0.00  0.00    +0.000 C 
ATOM     10  S   UNL     1       6.590   6.164  16.109  0.00  0.00    +0.000 S 
ENDROOT
BRANCH   1  14
ATOM     11  C   UNL     1       1.093   8.980  20.404  0.00  0.00    +0.000 A 
ATOM     12  C   UNL     1       1.403   7.737  20.984  0.00  0.00    +0.000 A 
ATOM     13  C   UNL     1       2.128   6.772  20.285  0.00  0.00    +0.000 A 
ATOM     14  C   UNL     1       2.492   7.006  18.963  0.00  0.00    +0.000 A 
ATOM     15  C   UNL     1       2.072   8.188  18.343  0.00  0.00    +0.000 A 
ATOM     16  C   UNL     1       1.377   9.186  19.045  0.00  0.00    +0.000 A 
BRANCH  11  18
ATOM     17  C   UNL     1       0.180   9.571  22.497  0.00  0.00    +0.000 C 
ATOM     18  O   UNL     1       0.530   9.973  21.165  0.00  0.00    +0.000 OA
ENDBRANCH  11  18
BRANCH  16  19
ATOM     19  O   UNL     1       1.116  10.259  18.241  0.00  0.00    +0.000 OA
ATOM     20  C   UNL     1       1.876  11.447  18.371  0.00  0.00    +0.000 C 
ENDBRANCH  16  19
ENDBRANCH   1  14
BRANCH   7  21
ATOM     21  C   UNL     1       1.758   4.189  18.799  0.00  0.00    +0.000 C 
ATOM     22  N   UNL     1       0.822   3.750  19.342  0.00  0.00    +0.000 NA
ENDBRANCH   7  21
TORSDOF 4
ENDMDL
MODEL 8
REMARK VINA RESULT:      -6.1      2.161      3.415
REMARK  Name = 
REMARK  6 active torsions:
REMARK  status: ('A' for Active; 'I' for Inactive)
REMARK    1  A    between atoms: C_1  and  O_2
REMARK    2  A    between atoms: O_2  and  C_3
REMARK    3  A    between atoms: C_6  and  C_7
REMARK    4  A    between atoms: C_13  and  C_14
REMARK    5  A    between atoms: C_20  and  O_21
REMARK    6  A    between atoms: O_21  and  C_22
REMARK                            x       y       z     vdW  Elec       q    Type
REMARK                         _______ _______ _______ _____ _____    ______ ____
ROOT
ATOM      1  C   UNL     1       2.455   7.386  18.841  0.00  0.00    +0.000 A 
ATOM      2  N   UNL     1       2.290   8.617  18.240  0.00  0.00    +0.000 NA
ATOM      3  C   UNL     1       1.627   9.493  18.904  0.00  0.00    +0.000 A 
ATOM      4  N   UNL     1       1.094   9.306  20.144  0.00  0.00    +0.000 N 
ATOM      5  C   UNL     1       1.170   8.088  20.764  0.00  0.00    +0.000 A 
ATOM      6  O   UNL     1       0.608   7.850  21.830  0.00  0.00    +0.000 OA
ATOM      7  C   UNL     1       1.954   7.051  20.050  0.00  0.00    +0.000 A 
ATOM      8  C   UNL     1       0.298  10.407  20.643  0.00  0.00    +0.000 C 
ATOM      9  C   UNL     1       0.735  11.674  19.929  0.00  0.00    +0.000 C 
ATOM     10  S   UNL     1       1.312  11.096  18.310  0.00  0.00    +0.000 S 
ENDROOT
BRANCH   1  14
ATOM     11  C   UNL     1       4.685   4.479  16.607  0.00  0.00    +0.000 A 
ATOM     12  C   UNL     1       5.125   5.812  16.695  0.00  0.00    +0.000 A 
ATOM     13  C   UNL     1       4.418   6.761  17.431  0.00  0.00    +0.000 A 
ATOM     14  C   UNL     1       3.213   6.411  18.032  0.00  0.00    +0.000 A 
ATOM     15  C   UNL     1       2.708   5.120  17.837  0.00  0.00    +0.000 A 
ATOM     16  C   UNL     1       3.428   4.142  17.133  0.00  0.00    +0.000 A 
BRANCH  11  18
ATOM     17  C   UNL     1       6.221   3.994  14.884  0.00  0.00    +0.000 C 
ATOM     18  O   UNL     1       5.482   3.528  16.022  0.00  0.00    +0.000 OA
ENDBRANCH  11  18
BRANCH  16  19
ATOM     19  O   UNL     1       2.752   2.955  17.113  0.00  0.00    +0.000 OA
ATOM     20  C   UNL     1       2.824   2.078  18.222  0.00  0.00    +0.000 C 
ENDBRANCH  16  19
ENDBRANCH   1  14
BRANCH   7  21
ATOM     21  C   UNL     1       2.123   5.777  20.662  0.00  0.00    +0.000 C 
ATOM     22  N   UNL     1       2.244   4.721  21.145  0.00  0.00    +0.000 NA
ENDBRANCH   7  21
TORSDOF 4
ENDMDL
MODEL 9
REMARK VINA RESULT:      -6.1      3.028      6.399
REMARK  Name = 
REMARK  6 active torsions:
REMARK  status: ('A' for Active; 'I' for Inactive)
REMARK    1  A    between atoms: C_1  and  O_2
REMARK    2  A    between atoms: O_2  and  C_3
REMARK    3  A    between atoms: C_6  and  C_7
REMARK    4  A    between atoms: C_13  and  C_14
REMARK    5  A    between atoms: C_20  and  O_21
REMARK    6  A    between atoms: O_21  and  C_22
REMARK                            x       y       z     vdW  Elec       q    Type
REMARK                         _______ _______ _______ _____ _____    ______ ____
ROOT
ATOM      1  C   UNL     1       2.793   5.994  18.424  0.00  0.00    +0.000 A 
ATOM      2  N   UNL     1       1.894   5.017  18.794  0.00  0.00    +0.000 NA
ATOM      3  C   UNL     1       2.262   3.801  18.606  0.00  0.00    +0.000 A 
ATOM      4  N   UNL     1       3.460   3.410  18.091  0.00  0.00    +0.000 N 
ATOM      5  C   UNL     1       4.368   4.334  17.647  0.00  0.00    +0.000 A 
ATOM      6  O   UNL     1       5.410   4.020  17.076  0.00  0.00    +0.000 OA
ATOM      7  C   UNL     1       4.002   5.753  17.871  0.00  0.00    +0.000 A 
ATOM      8  C   UNL     1       3.602   1.986  17.876  0.00  0.00    +0.000 C 
ATOM      9  C   UNL     1       2.634   1.266  18.798  0.00  0.00    +0.000 C 
ATOM     10  S   UNL     1       1.264   2.434  19.004  0.00  0.00    +0.000 S 
ENDROOT
BRANCH   1  14
ATOM     11  C   UNL     1       1.285   9.956  19.094  0.00  0.00    +0.000 A 
ATOM     12  C   UNL     1       1.799   9.584  17.839  0.00  0.00    +0.000 A 
ATOM     13  C   UNL     1       2.277   8.295  17.605  0.00  0.00    +0.000 A 
ATOM     14  C   UNL     1       2.319   7.374  18.647  0.00  0.00    +0.000 A 
ATOM     15  C   UNL     1       1.929   7.782  19.928  0.00  0.00    +0.000 A 
ATOM     16  C   UNL     1       1.408   9.063  20.170  0.00  0.00    +0.000 A 
BRANCH  11  18
ATOM     17  C   UNL     1      -0.699  11.200  18.814  0.00  0.00    +0.000 C 
ATOM     18  O   UNL     1       0.667  11.170  19.252  0.00  0.00    +0.000 OA
ENDBRANCH  11  18
BRANCH  16  19
ATOM     19  O   UNL     1       1.060   9.210  21.484  0.00  0.00    +0.000 OA
ATOM     20  C   UNL     1      -0.254   8.899  21.910  0.00  0.00    +0.000 C 
ENDBRANCH  16  19
ENDBRANCH   1  14
BRANCH   7  21
ATOM     21  C   UNL     1       4.924   6.768  17.486  0.00  0.00    +0.000 C 
ATOM     22  N   UNL     1       5.700   7.585  17.183  0.00  0.00    +0.000 NA
ENDBRANCH   7  21
TORSDOF 4
ENDMDL
