MODEL 1
REMARK VINA RESULT:      -4.9      0.000      0.000
REMARK  Name = 
REMARK  10 active torsions:
REMARK  status: ('A' for Active; 'I' for Inactive)
REMARK    1  A    between atoms: C_1  and  O_2
REMARK    2  A    between atoms: O_2  and  P_3
REMARK    3  A    between atoms: P_3  and  C_5
REMARK    4  A    between atoms: P_3  and  O_13
REMARK    5  A    between atoms: C_5  and  C_6
REMARK    6  A    between atoms: C_6  and  C_7
REMARK    7  A    between atoms: C_7  and  C_8
REMARK    8  A    between atoms: C_8  and  C_9
REMARK    9  A    between atoms: C_9  and  N_10
REMARK   10  A    between atoms: O_13  and  C_14
REMARK                            x       y       z     vdW  Elec       q    Type
REMARK                         _______ _______ _______ _____ _____    ______ ____
ROOT
ATOM      1  C   UNL     1       5.647   4.366  18.459  0.00  0.00    +0.000 C 
ENDROOT
BRANCH   1   2
ATOM      2  P   UNL     1       6.787   4.671  17.117  0.00  0.00    +0.000 P 
ATOM      3  O   UNL     1       8.193   4.244  17.426  0.00  0.00    +0.000 OA
BRANCH   2   5
ATOM      4  C   UNL     1       7.523   7.137  17.503  0.00  0.00    +0.000 C 
ATOM      5  O   UNL     1       6.648   6.254  16.817  0.00  0.00    +0.000 OA
ENDBRANCH   2   5
BRANCH   2   6
ATOM      6  O   UNL     1       6.204   3.983  15.782  0.00  0.00    +0.000 OA
ATOM      7  C   UNL     1       5.725   4.671  14.647  0.00  0.00    +0.000 C 
ENDBRANCH   2   6
ENDBRANCH   1   2
BRANCH   1   8
ATOM      8  C   UNL     1       4.532   5.393  18.605  0.00  0.00    +0.000 C 
BRANCH   8   9
ATOM      9  C   UNL     1       3.428   5.217  17.559  0.00  0.00    +0.000 C 
BRANCH   9  10
ATOM     10  C   UNL     1       2.111   4.668  18.117  0.00  0.00    +0.000 C 
BRANCH  10  11
ATOM     11  C   UNL     1       1.974   3.159  17.911  0.00  0.00    +0.000 C 
BRANCH  11  12
ATOM     12  N   UNL     1       0.964   2.651  18.851  0.00  0.00    +0.000 NA
ATOM     13  C   UNL     1       1.285   2.737  19.972  0.00  0.00    +0.000 C 
ATOM     14  S   UNL     1       1.729   2.873  21.494  0.00  0.00    +0.000 S 
ENDBRANCH  11  12
ENDBRANCH  10  11
ENDBRANCH   9  10
ENDBRANCH   8   9
ENDBRANCH   1   8
TORSDOF 8
ENDMDL
MODEL 2
REMARK VINA RESULT:      -4.9      0.910      1.040
REMARK  Name = 
REMARK  10 active torsions:
REMARK  status: ('A' for Active; 'I' for Inactive)
REMARK    1  A    between atoms: C_1  and  O_2
REMARK    2  A    between atoms: O_2  and  P_3
REMARK    3  A    between atoms: P_3  and  C_5
REMARK    4  A    between atoms: P_3  and  O_13
REMARK    5  A    between atoms: C_5  and  C_6
REMARK    6  A    between atoms: C_6  and  C_7
REMARK    7  A    between atoms: C_7  and  C_8
REMARK    8  A    between atoms: C_8  and  C_9
REMARK    9  A    between atoms: C_9  and  N_10
REMARK   10  A    between atoms: O_13  and  C_14
REMARK                            x       y       z     vdW  Elec       q    Type
REMARK                         _______ _______ _______ _____ _____    ______ ____
ROOT
ATOM      1  C   UNL     1       5.190   6.076  17.672  0.00  0.00    +0.000 C 
ENDROOT
BRANCH   1   2
ATOM      2  P   UNL     1       6.760   5.349  17.223  0.00  0.00    +0.000 P 
ATOM      3  O   UNL     1       7.408   4.596  18.348  0.00  0.00    +0.000 OA
BRANCH   2   5
ATOM      4  C   UNL     1       7.649   7.783  17.463  0.00  0.00    +0.000 C 
ATOM      5  O   UNL     1       7.645   6.592  16.688  0.00  0.00    +0.000 OA
ENDBRANCH   2   5
BRANCH   2   6
ATOM      6  O   UNL     1       6.549   4.445  15.906  0.00  0.00    +0.000 OA
ATOM      7  C   UNL     1       6.931   4.804  14.596  0.00  0.00    +0.000 C 
ENDBRANCH   2   6
ENDBRANCH   1   2
BRANCH   1   8
ATOM      8  C   UNL     1       4.287   5.189  18.520  0.00  0.00    +0.000 C 
BRANCH   8   9
ATOM      9  C   UNL     1       2.994   4.802  17.798  0.00  0.00    +0.000 C 
BRANCH   9  10
ATOM     10  C   UNL     1       3.032   3.425  17.129  0.00  0.00    +0.000 C 
BRANCH  10  11
ATOM     11  C   UNL     1       2.836   2.285  18.129  0.00  0.00    +0.000 C 
BRANCH  11  12
ATOM     12  N   UNL     1       1.506   2.424  18.739  0.00  0.00    +0.000 NA
ATOM     13  C   UNL     1       1.538   2.543  19.902  0.00  0.00    +0.000 C 
ATOM     14  S   UNL     1       1.596   2.719  21.483  0.00  0.00    +0.000 S 
ENDBRANCH  11  12
ENDBRANCH  10  11
ENDBRANCH   9  10
ENDBRANCH   8   9
ENDBRANCH   1   8
TORSDOF 8
ENDMDL
MODEL 3
REMARK VINA RESULT:      -4.8      4.351      5.844
REMARK  Name = 
REMARK  10 active torsions:
REMARK  status: ('A' for Active; 'I' for Inactive)
REMARK    1  A    between atoms: C_1  and  O_2
REMARK    2  A    between atoms: O_2  and  P_3
REMARK    3  A    between atoms: P_3  and  C_5
REMARK    4  A    between atoms: P_3  and  O_13
REMARK    5  A    between atoms: C_5  and  C_6
REMARK    6  A    between atoms: C_6  and  C_7
REMARK    7  A    between atoms: C_7  and  C_8
REMARK    8  A    between atoms: C_8  and  C_9
REMARK    9  A    between atoms: C_9  and  N_10
REMARK   10  A    between atoms: O_13  and  C_14
REMARK                            x       y       z     vdW  Elec       q    Type
REMARK                         _______ _______ _______ _____ _____    ______ ____
ROOT
ATOM      1  C   UNL     1       3.684   4.646  17.668  0.00  0.00    +0.000 C 
ENDROOT
BRANCH   1   2
ATOM      2  P   UNL     1       2.097   4.048  18.232  0.00  0.00    +0.000 P 
ATOM      3  O   UNL     1       1.010   4.197  17.208  0.00  0.00    +0.000 OA
BRANCH   2   5
ATOM      4  C   UNL     1       1.384   4.138  20.734  0.00  0.00    +0.000 C 
ATOM      5  O   UNL     1       1.813   4.871  19.594  0.00  0.00    +0.000 OA
ENDBRANCH   2   5
BRANCH   2   6
ATOM      6  O   UNL     1       2.272   2.529  18.740  0.00  0.00    +0.000 OA
ATOM      7  C   UNL     1       3.407   1.719  18.524  0.00  0.00    +0.000 C 
ENDBRANCH   2   6
ENDBRANCH   1   2
BRANCH   1   8
ATOM      8  C   UNL     1       4.439   5.513  18.668  0.00  0.00    +0.000 C 
BRANCH   8   9
ATOM      9  C   UNL     1       5.832   4.965  18.989  0.00  0.00    +0.000 C 
BRANCH   9  10
ATOM     10  C   UNL     1       6.985   5.860  18.525  0.00  0.00    +0.000 C 
BRANCH  10  11
ATOM     11  C   UNL     1       6.695   6.539  17.186  0.00  0.00    +0.000 C 
BRANCH  11  12
ATOM     12  N   UNL     1       7.491   5.875  16.144  0.00  0.00    +0.000 NA
ATOM     13  C   UNL     1       6.869   5.140  15.480  0.00  0.00    +0.000 C 
ATOM     14  S   UNL     1       6.008   4.155  14.574  0.00  0.00    +0.000 S 
ENDBRANCH  11  12
ENDBRANCH  10  11
ENDBRANCH   9  10
ENDBRANCH   8   9
ENDBRANCH   1   8
TORSDOF 8
ENDMDL
MODEL 4
REMARK VINA RESULT:      -4.8      1.288      1.451
REMARK  Name = 
REMARK  10 active torsions:
REMARK  status: ('A' for Active; 'I' for Inactive)
REMARK    1  A    between atoms: C_1  and  O_2
REMARK    2  A    between atoms: O_2  and  P_3
REMARK    3  A    between atoms: P_3  and  C_5
REMARK    4  A    between atoms: P_3  and  O_13
REMARK    5  A    between atoms: C_5  and  C_6
REMARK    6  A    between atoms: C_6  and  C_7
REMARK    7  A    between atoms: C_7  and  C_8
REMARK    8  A    between atoms: C_8  and  C_9
REMARK    9  A    between atoms: C_9  and  N_10
REMARK   10  A    between atoms: O_13  and  C_14
REMARK                            x       y       z     vdW  Elec       q    Type
REMARK                         _______ _______ _______ _____ _____    ______ ____
ROOT
ATOM      1  C   UNL     1       5.161   5.585  17.896  0.00  0.00    +0.000 C 
ENDROOT
BRANCH   1   2
ATOM      2  P   UNL     1       6.537   5.830  16.781  0.00  0.00    +0.000 P 
ATOM      3  O   UNL     1       7.721   4.967  17.104  0.00  0.00    +0.000 OA
BRANCH   2   5
ATOM      4  C   UNL     1       7.844   7.841  17.791  0.00  0.00    +0.000 C 
ATOM      5  O   UNL     1       6.853   7.413  16.867  0.00  0.00    +0.000 OA
ENDBRANCH   2   5
BRANCH   2   6
ATOM      6  O   UNL     1       6.014   5.633  15.270  0.00  0.00    +0.000 OA
ATOM      7  C   UNL     1       6.316   4.535  14.435  0.00  0.00    +0.000 C 
ENDBRANCH   2   6
ENDBRANCH   1   2
BRANCH   1   8
ATOM      8  C   UNL     1       3.905   5.010  17.255  0.00  0.00    +0.000 C 
BRANCH   8   9
ATOM      9  C   UNL     1       3.923   3.481  17.189  0.00  0.00    +0.000 C 
BRANCH   9  10
ATOM     10  C   UNL     1       2.576   2.819  17.494  0.00  0.00    +0.000 C 
BRANCH  10  11
ATOM     11  C   UNL     1       2.594   2.039  18.809  0.00  0.00    +0.000 C 
BRANCH  11  12
ATOM     12  N   UNL     1       1.476   2.506  19.643  0.00  0.00    +0.000 NA
ATOM     13  C   UNL     1       1.627   3.586  20.064  0.00  0.00    +0.000 C 
ATOM     14  S   UNL     1       1.841   5.063  20.618  0.00  0.00    +0.000 S 
ENDBRANCH  11  12
ENDBRANCH  10  11
ENDBRANCH   9  10
ENDBRANCH   8   9
ENDBRANCH   1   8
TORSDOF 8
ENDMDL
MODEL 5
REMARK VINA RESULT:      -4.8      4.509      5.999
REMARK  Name = 
REMARK  10 active torsions:
REMARK  status: ('A' for Active; 'I' for Inactive)
REMARK    1  A    between atoms: C_1  and  O_2
REMARK    2  A    between atoms: O_2  and  P_3
REMARK    3  A    between atoms: P_3  and  C_5
REMARK    4  A    between atoms: P_3  and  O_13
REMARK    5  A    between atoms: C_5  and  C_6
REMARK    6  A    between atoms: C_6  and  C_7
REMARK    7  A    between atoms: C_7  and  C_8
REMARK    8  A    between atoms: C_8  and  C_9
REMARK    9  A    between atoms: C_9  and  N_10
REMARK   10  A    between atoms: O_13  and  C_14
REMARK                            x       y       z     vdW  Elec       q    Type
REMARK                         _______ _______ _______ _____ _____    ______ ____
ROOT
ATOM      1  C   UNL     1       2.886   5.089  19.187  0.00  0.00    +0.000 C 
ENDROOT
BRANCH   1   2
ATOM      2  P   UNL     1       1.886   3.613  19.048  0.00  0.00    +0.000 P 
ATOM      3  O   UNL     1       1.074   3.565  17.787  0.00  0.00    +0.000 OA
BRANCH   2   5
ATOM      4  C   UNL     1       1.393   2.755  21.456  0.00  0.00    +0.000 C 
ATOM      5  O   UNL     1       0.986   3.604  20.392  0.00  0.00    +0.000 OA
ENDBRANCH   2   5
BRANCH   2   6
ATOM      6  O   UNL     1       2.841   2.328  19.227  0.00  0.00    +0.000 OA
ATOM      7  C   UNL     1       3.544   1.679  18.188  0.00  0.00    +0.000 C 
ENDBRANCH   2   6
ENDBRANCH   1   2
BRANCH   1   8
ATOM      8  C   UNL     1       2.968   5.934  17.923  0.00  0.00    +0.000 C 
BRANCH   8   9
ATOM      9  C   UNL     1       4.386   6.436  17.641  0.00  0.00    +0.000 C 
BRANCH   9  10
ATOM     10  C   UNL     1       5.412   5.325  17.395  0.00  0.00    +0.000 C 
BRANCH  10  11
ATOM     11  C   UNL     1       6.788   5.875  17.016  0.00  0.00    +0.000 C 
BRANCH  11  12
ATOM     12  N   UNL     1       7.515   4.837  16.271  0.00  0.00    +0.000 NA
ATOM     13  C   UNL     1       6.968   4.492  15.297  0.00  0.00    +0.000 C 
ATOM     14  S   UNL     1       6.218   4.042  13.967  0.00  0.00    +0.000 S 
ENDBRANCH  11  12
ENDBRANCH  10  11
ENDBRANCH   9  10
ENDBRANCH   8   9
ENDBRANCH   1   8
TORSDOF 8
ENDMDL
MODEL 6
REMARK VINA RESULT:      -4.8      1.577      2.579
REMARK  Name = 
REMARK  10 active torsions:
REMARK  status: ('A' for Active; 'I' for Inactive)
REMARK    1  A    between atoms: C_1  and  O_2
REMARK    2  A    between atoms: O_2  and  P_3
REMARK    3  A    between atoms: P_3  and  C_5
REMARK    4  A    between atoms: P_3  and  O_13
REMARK    5  A    between atoms: C_5  and  C_6
REMARK    6  A    between atoms: C_6  and  C_7
REMARK    7  A    between atoms: C_7  and  C_8
REMARK    8  A    between atoms: C_8  and  C_9
REMARK    9  A    between atoms: C_9  and  N_10
REMARK   10  A    between atoms: O_13  and  C_14
REMARK                            x       y       z     vdW  Elec       q    Type
REMARK                         _______ _______ _______ _____ _____    ______ ____
ROOT
ATOM      1  C   UNL     1       5.220   6.330  17.533  0.00  0.00    +0.000 C 
ENDROOT
BRANCH   1   2
ATOM      2  P   UNL     1       6.658   5.407  17.005  0.00  0.00    +0.000 P 
ATOM      3  O   UNL     1       7.551   6.182  16.081  0.00  0.00    +0.000 OA
BRANCH   2   5
ATOM      4  C   UNL     1       6.105   3.946  14.923  0.00  0.00    +0.000 C 
ATOM      5  O   UNL     1       6.055   4.063  16.338  0.00  0.00    +0.000 OA
ENDBRANCH   2   5
BRANCH   2   6
ATOM      6  O   UNL     1       7.428   4.866  18.312  0.00  0.00    +0.000 OA
ATOM      7  C   UNL     1       7.823   5.654  19.415  0.00  0.00    +0.000 C 
ENDBRANCH   2   6
ENDBRANCH   1   2
BRANCH   1   8
ATOM      8  C   UNL     1       4.232   5.550  18.391  0.00  0.00    +0.000 C 
BRANCH   8   9
ATOM      9  C   UNL     1       2.776   5.816  18.003  0.00  0.00    +0.000 C 
BRANCH   9  10
ATOM     10  C   UNL     1       1.932   4.552  17.810  0.00  0.00    +0.000 C 
BRANCH  10  11
ATOM     11  C   UNL     1       2.730   3.408  17.184  0.00  0.00    +0.000 C 
BRANCH  11  12
ATOM     12  N   UNL     1       2.563   2.211  18.020  0.00  0.00    +0.000 NA
ATOM     13  C   UNL     1       3.315   2.158  18.914  0.00  0.00    +0.000 C 
ATOM     14  S   UNL     1       4.337   2.106  20.134  0.00  0.00    +0.000 S 
ENDBRANCH  11  12
ENDBRANCH  10  11
ENDBRANCH   9  10
ENDBRANCH   8   9
ENDBRANCH   1   8
TORSDOF 8
ENDMDL
MODEL 7
REMARK VINA RESULT:      -4.8      1.359      1.568
REMARK  Name = 
REMARK  10 active torsions:
REMARK  status: ('A' for Active; 'I' for Inactive)
REMARK    1  A    between atoms: C_1  and  O_2
REMARK    2  A    between atoms: O_2  and  P_3
REMARK    3  A    between atoms: P_3  and  C_5
REMARK    4  A    between atoms: P_3  and  O_13
REMARK    5  A    between atoms: C_5  and  C_6
REMARK    6  A    between atoms: C_6  and  C_7
REMARK    7  A    between atoms: C_7  and  C_8
REMARK    8  A    between atoms: C_8  and  C_9
REMARK    9  A    between atoms: C_9  and  N_10
REMARK   10  A    between atoms: O_13  and  C_14
REMARK                            x       y       z     vdW  Elec       q    Type
REMARK                         _______ _______ _______ _____ _____    ______ ____
ROOT
ATOM      1  C   UNL     1       5.619   4.353  17.859  0.00  0.00    +0.000 C 
ENDROOT
BRANCH   1   2
ATOM      2  P   UNL     1       7.124   5.088  17.234  0.00  0.00    +0.000 P 
ATOM      3  O   UNL     1       8.295   4.150  17.259  0.00  0.00    +0.000 OA
BRANCH   2   5
ATOM      4  C   UNL     1       7.428   7.661  17.479  0.00  0.00    +0.000 C 
ATOM      5  O   UNL     1       7.340   6.408  18.142  0.00  0.00    +0.000 OA
ENDBRANCH   2   5
BRANCH   2   6
ATOM      6  O   UNL     1       6.833   5.684  15.766  0.00  0.00    +0.000 OA
ATOM      7  C   UNL     1       7.016   4.993  14.549  0.00  0.00    +0.000 C 
ENDBRANCH   2   6
ENDBRANCH   1   2
BRANCH   1   8
ATOM      8  C   UNL     1       4.359   4.698  17.076  0.00  0.00    +0.000 C 
BRANCH   8   9
ATOM      9  C   UNL     1       3.551   5.824  17.725  0.00  0.00    +0.000 C 
BRANCH   9  10
ATOM     10  C   UNL     1       3.637   5.863  19.254  0.00  0.00    +0.000 C 
BRANCH  10  11
ATOM     11  C   UNL     1       2.259   5.880  19.916  0.00  0.00    +0.000 C 
BRANCH  11  12
ATOM     12  N   UNL     1       1.555   4.640  19.558  0.00  0.00    +0.000 NA
ATOM     13  C   UNL     1       1.622   3.813  20.381  0.00  0.00    +0.000 C 
ATOM     14  S   UNL     1       1.710   2.700  21.517  0.00  0.00    +0.000 S 
ENDBRANCH  11  12
ENDBRANCH  10  11
ENDBRANCH   9  10
ENDBRANCH   8   9
ENDBRANCH   1   8
TORSDOF 8
ENDMDL
MODEL 8
REMARK VINA RESULT:      -4.7      1.457      1.636
REMARK  Name = 
REMARK  10 active torsions:
REMARK  status: ('A' for Active; 'I' for Inactive)
REMARK    1  A    between atoms: C_1  and  O_2
REMARK    2  A    between atoms: O_2  and  P_3
REMARK    3  A    between atoms: P_3  and  C_5
REMARK    4  A    between atoms: P_3  and  O_13
REMARK    5  A    between atoms: C_5  and  C_6
REMARK    6  A    between atoms: C_6  and  C_7
REMARK    7  A    between atoms: C_7  and  C_8
REMARK    8  A    between atoms: C_8  and  C_9
REMARK    9  A    between atoms: C_9  and  N_10
REMARK   10  A    between atoms: O_13  and  C_14
REMARK                            x       y       z     vdW  Elec       q    Type
REMARK                         _______ _______ _______ _____ _____    ______ ____
ROOT
ATOM      1  C   UNL     1       6.433   5.541  18.823  0.00  0.00    +0.000 C 
ENDROOT
BRANCH   1   2
ATOM      2  P   UNL     1       7.113   5.165  17.213  0.00  0.00    +0.000 P 
ATOM      3  O   UNL     1       8.219   4.152  17.259  0.00  0.00    +0.000 OA
BRANCH   2   5
ATOM      4  C   UNL     1       7.476   7.729  17.477  0.00  0.00    +0.000 C 
ATOM      5  O   UNL     1       7.577   6.597  16.623  0.00  0.00    +0.000 OA
ENDBRANCH   2   5
BRANCH   2   6
ATOM      6  O   UNL     1       5.908   4.729  16.236  0.00  0.00    +0.000 OA
ATOM      7  C   UNL     1       6.015   3.826  15.156  0.00  0.00    +0.000 C 
ENDBRANCH   2   6
ENDBRANCH   1   2
BRANCH   1   8
ATOM      8  C   UNL     1       5.027   5.009  19.070  0.00  0.00    +0.000 C 
BRANCH   8   9
ATOM      9  C   UNL     1       3.952   6.086  18.906  0.00  0.00    +0.000 C 
BRANCH   9  10
ATOM     10  C   UNL     1       2.515   5.555  18.939  0.00  0.00    +0.000 C 
BRANCH  10  11
ATOM     11  C   UNL     1       1.926   5.554  20.350  0.00  0.00    +0.000 C 
BRANCH  11  12
ATOM     12  N   UNL     1       1.887   4.168  20.838  0.00  0.00    +0.000 NA
ATOM     13  C   UNL     1       1.466   3.410  20.054  0.00  0.00    +0.000 C 
ATOM     14  S   UNL     1       0.904   2.387  18.971  0.00  0.00    +0.000 S 
ENDBRANCH  11  12
ENDBRANCH  10  11
ENDBRANCH   9  10
ENDBRANCH   8   9
ENDBRANCH   1   8
TORSDOF 8
ENDMDL
MODEL 9
REMARK VINA RESULT:      -4.7      3.918      5.434
REMARK  Name = 
REMARK  10 active torsions:
REMARK  status: ('A' for Active; 'I' for Inactive)
REMARK    1  A    between atoms: C_1  and  O_2
REMARK    2  A    between atoms: O_2  and  P_3
REMARK    3  A    between atoms: P_3  and  C_5
REMARK    4  A    between atoms: P_3  and  O_13
REMARK    5  A    between atoms: C_5  and  C_6
REMARK    6  A    between atoms: C_6  and  C_7
REMARK    7  A    between atoms: C_7  and  C_8
REMARK    8  A    between atoms: C_8  and  C_9
REMARK    9  A    between atoms: C_9  and  N_10
REMARK   10  A    between atoms: O_13  and  C_14
REMARK                            x       y       z     vdW  Elec       q    Type
REMARK                         _______ _______ _______ _____ _____    ______ ____
ROOT
ATOM      1  C   UNL     1       3.550   5.628  19.277  0.00  0.00    +0.000 C 
ENDROOT
BRANCH   1   2
ATOM      2  P   UNL     1       4.065   3.916  19.239  0.00  0.00    +0.000 P 
ATOM      3  O   UNL     1       5.546   3.740  19.403  0.00  0.00    +0.000 OA
BRANCH   2   5
ATOM      4  C   UNL     1       2.883   2.077  17.826  0.00  0.00    +0.000 C 
ATOM      5  O   UNL     1       3.504   3.354  17.830  0.00  0.00    +0.000 OA
ENDBRANCH   2   5
BRANCH   2   6
ATOM      6  O   UNL     1       3.213   3.100  20.335  0.00  0.00    +0.000 OA
ATOM      7  C   UNL     1       2.218   3.647  21.173  0.00  0.00    +0.000 C 
ENDBRANCH   2   6
ENDBRANCH   1   2
BRANCH   1   8
ATOM      8  C   UNL     1       3.302   6.258  17.912  0.00  0.00    +0.000 C 
BRANCH   8   9
ATOM      9  C   UNL     1       4.558   6.909  17.327  0.00  0.00    +0.000 C 
BRANCH   9  10
ATOM     10  C   UNL     1       5.113   6.207  16.084  0.00  0.00    +0.000 C 
BRANCH  10  11
ATOM     11  C   UNL     1       6.434   5.489  16.361  0.00  0.00    +0.000 C 
BRANCH  11  12
ATOM     12  N   UNL     1       6.296   4.084  15.952  0.00  0.00    +0.000 NA
ATOM     13  C   UNL     1       6.213   3.941  14.794  0.00  0.00    +0.000 C 
ATOM     14  S   UNL     1       6.116   3.761  13.215  0.00  0.00    +0.000 S 
ENDBRANCH  11  12
ENDBRANCH  10  11
ENDBRANCH   9  10
ENDBRANCH   8   9
ENDBRANCH   1   8
TORSDOF 8
ENDMDL
