MODEL 1
REMARK VINA RESULT:      -8.0      0.000      0.000
REMARK  Name = 
REMARK  8 active torsions:
REMARK  status: ('A' for Active; 'I' for Inactive)
REMARK    1  A    between atoms: C_1  and  C_2
REMARK    2  A    between atoms: C_4  and  C_5
REMARK    3  A    between atoms: C_6  and  C_7
REMARK    4  A    between atoms: C_11  and  C_12
REMARK    5  A    between atoms: N_14  and  C_15
REMARK    6  A    between atoms: C_15  and  C_16
REMARK    7  A    between atoms: C_16  and  C_17
REMARK    8  A    between atoms: C_17  and  N_18
REMARK                            x       y       z     vdW  Elec       q    Type
REMARK                         _______ _______ _______ _____ _____    ______ ____
ROOT
ATOM      1  C   UNL     1       2.305   6.104  19.928  0.00  0.00    +0.000 C 
ATOM      2  O   UNL     1       2.042   5.689  21.052  0.00  0.00    +0.000 OA
ATOM      3  N   UNL     1       2.967   5.357  18.977  0.00  0.00    +0.000 N 
ATOM      4  H   UNL     1       3.284   5.793  18.123  0.00  0.00    +0.000 HD
ENDROOT
BRANCH   1   9
ATOM      5  C   UNL     1       0.787   9.604  19.997  0.00  0.00    +0.000 A 
ATOM      6  C   UNL     1       1.300  10.093  18.780  0.00  0.00    +0.000 A 
ATOM      7  C   UNL     1       2.091   9.295  17.951  0.00  0.00    +0.000 A 
ATOM      8  C   UNL     1       2.403   7.993  18.331  0.00  0.00    +0.000 A 
ATOM      9  C   UNL     1       1.912   7.484  19.536  0.00  0.00    +0.000 A 
ATOM     10  C   UNL     1       1.110   8.289  20.362  0.00  0.00    +0.000 A 
BRANCH   5  16
ATOM     11  C   UNL     1      -2.511  13.317  21.843  0.00  0.00    +0.000 C 
ATOM     12  C   UNL     1      -1.600  12.150  21.696  0.00  0.00    +0.000 A 
ATOM     13  N   UNL     1      -1.232  11.364  22.681  0.00  0.00    +0.000 NA
ATOM     14  C   UNL     1      -0.358  10.386  22.222  0.00  0.00    +0.000 A 
ATOM     15  C   UNL     1       0.161   9.431  23.240  0.00  0.00    +0.000 C 
ATOM     16  C   UNL     1      -0.066  10.444  20.860  0.00  0.00    +0.000 A 
ATOM     17  S   UNL     1      -0.954  11.756  20.165  0.00  0.00    +0.000 S 
ENDBRANCH   5  16
ENDBRANCH   1   9
BRANCH   3  18
ATOM     18  C   UNL     1       3.387   3.994  19.239  0.00  0.00    +0.000 C 
BRANCH  18  19
ATOM     19  C   UNL     1       4.906   3.827  19.198  0.00  0.00    +0.000 C 
BRANCH  19  20
ATOM     20  C   UNL     1       5.658   5.170  19.166  0.00  0.00    +0.000 C 
BRANCH  20  21
ATOM     21  N   UNL     1       7.060   5.006  18.755  0.00  0.00    +0.000 NA
ATOM     22  C   UNL     1       7.243   4.450  17.401  0.00  0.00    +0.000 C 
ATOM     23  C   UNL     1       6.873   5.426  16.277  0.00  0.00    +0.000 C 
ATOM     24  N   UNL     1       7.437   6.741  16.472  0.00  0.00    +0.000 N 
ATOM     25  C   UNL     1       7.700   7.249  17.717  0.00  0.00    +0.000 C 
ATOM     26  O   UNL     1       7.921   8.453  17.844  0.00  0.00    +0.000 OA
ATOM     27  C   UNL     1       7.835   6.265  18.886  0.00  0.00    +0.000 C 
ATOM     28  H   UNL     1       7.369   7.435  15.738  0.00  0.00    +0.000 HD
ENDBRANCH  20  21
ENDBRANCH  19  20
ENDBRANCH  18  19
ENDBRANCH   3  18
TORSDOF 6
ENDMDL
MODEL 2
REMARK VINA RESULT:      -8.0      3.567      8.789
REMARK  Name = 
REMARK  8 active torsions:
REMARK  status: ('A' for Active; 'I' for Inactive)
REMARK    1  A    between atoms: C_1  and  C_2
REMARK    2  A    between atoms: C_4  and  C_5
REMARK    3  A    between atoms: C_6  and  C_7
REMARK    4  A    between atoms: C_11  and  C_12
REMARK    5  A    between atoms: N_14  and  C_15
REMARK    6  A    between atoms: C_15  and  C_16
REMARK    7  A    between atoms: C_16  and  C_17
REMARK    8  A    between atoms: C_17  and  N_18
REMARK                            x       y       z     vdW  Elec       q    Type
REMARK                         _______ _______ _______ _____ _____    ______ ____
ROOT
ATOM      1  C   UNL     1       2.233   7.608  19.530  0.00  0.00    +0.000 C 
ATOM      2  O   UNL     1       2.180   8.531  18.724  0.00  0.00    +0.000 OA
ATOM      3  N   UNL     1       1.807   7.714  20.837  0.00  0.00    +0.000 N 
ATOM      4  H   UNL     1       2.004   6.972  21.494  0.00  0.00    +0.000 HD
ENDROOT
BRANCH   1   9
ATOM      5  C   UNL     1       4.364   4.938  17.831  0.00  0.00    +0.000 A 
ATOM      6  C   UNL     1       3.832   3.795  18.458  0.00  0.00    +0.000 A 
ATOM      7  C   UNL     1       2.792   3.893  19.385  0.00  0.00    +0.000 A 
ATOM      8  C   UNL     1       2.272   5.139  19.718  0.00  0.00    +0.000 A 
ATOM      9  C   UNL     1       2.784   6.290  19.114  0.00  0.00    +0.000 A 
ATOM     10  C   UNL     1       3.825   6.186  18.176  0.00  0.00    +0.000 A 
BRANCH   5  16
ATOM     11  C   UNL     1       7.141   4.407  13.350  0.00  0.00    +0.000 C 
ATOM     12  C   UNL     1       6.719   4.600  14.762  0.00  0.00    +0.000 A 
ATOM     13  N   UNL     1       7.544   4.747  15.773  0.00  0.00    +0.000 NA
ATOM     14  C   UNL     1       6.837   4.879  16.962  0.00  0.00    +0.000 A 
ATOM     15  C   UNL     1       7.649   5.033  18.202  0.00  0.00    +0.000 C 
ATOM     16  C   UNL     1       5.450   4.829  16.837  0.00  0.00    +0.000 A 
ATOM     17  S   UNL     1       5.058   4.640  15.162  0.00  0.00    +0.000 S 
ENDBRANCH   5  16
ENDBRANCH   1   9
BRANCH   3  18
ATOM     18  C   UNL     1       1.239   8.944  21.354  0.00  0.00    +0.000 C 
BRANCH  18  19
ATOM     19  C   UNL     1      -0.265   9.051  21.099  0.00  0.00    +0.000 C 
BRANCH  19  20
ATOM     20  C   UNL     1      -0.663  10.355  20.385  0.00  0.00    +0.000 C 
BRANCH  20  21
ATOM     21  N   UNL     1      -0.044  10.465  19.055  0.00  0.00    +0.000 NA
ATOM     22  C   UNL     1      -0.937  10.127  17.931  0.00  0.00    +0.000 C 
ATOM     23  C   UNL     1      -2.029  11.172  17.673  0.00  0.00    +0.000 C 
ATOM     24  N   UNL     1      -1.515  12.522  17.652  0.00  0.00    +0.000 N 
ATOM     25  C   UNL     1      -0.410  12.898  18.368  0.00  0.00    +0.000 C 
ATOM     26  O   UNL     1      -0.174  14.093  18.532  0.00  0.00    +0.000 OA
ATOM     27  C   UNL     1       0.561  11.802  18.827  0.00  0.00    +0.000 C 
ATOM     28  H   UNL     1      -2.114  13.287  17.367  0.00  0.00    +0.000 HD
ENDBRANCH  20  21
ENDBRANCH  19  20
ENDBRANCH  18  19
ENDBRANCH   3  18
TORSDOF 6
ENDMDL
MODEL 3
REMARK VINA RESULT:      -7.7      2.741      3.609
REMARK  Name = 
REMARK  8 active torsions:
REMARK  status: ('A' for Active; 'I' for Inactive)
REMARK    1  A    between atoms: C_1  and  C_2
REMARK    2  A    between atoms: C_4  and  C_5
REMARK    3  A    between atoms: C_6  and  C_7
REMARK    4  A    between atoms: C_11  and  C_12
REMARK    5  A    between atoms: N_14  and  C_15
REMARK    6  A    between atoms: C_15  and  C_16
REMARK    7  A    between atoms: C_16  and  C_17
REMARK    8  A    between atoms: C_17  and  N_18
REMARK                            x       y       z     vdW  Elec       q    Type
REMARK                         _______ _______ _______ _____ _____    ______ ____
ROOT
ATOM      1  C   UNL     1       2.624   6.190  20.003  0.00  0.00    +0.000 C 
ATOM      2  O   UNL     1       3.731   5.756  19.704  0.00  0.00    +0.000 OA
ATOM      3  N   UNL     1       1.736   5.516  20.814  0.00  0.00    +0.000 N 
ATOM      4  H   UNL     1       0.787   5.850  20.911  0.00  0.00    +0.000 HD
ENDROOT
BRANCH   1   9
ATOM      5  C   UNL     1       1.232   9.737  19.802  0.00  0.00    +0.000 A 
ATOM      6  C   UNL     1       1.452   9.986  18.434  0.00  0.00    +0.000 A 
ATOM      7  C   UNL     1       2.011   9.015  17.599  0.00  0.00    +0.000 A 
ATOM      8  C   UNL     1       2.378   7.779  18.119  0.00  0.00    +0.000 A 
ATOM      9  C   UNL     1       2.176   7.507  19.475  0.00  0.00    +0.000 A 
ATOM     10  C   UNL     1       1.606   8.484  20.308  0.00  0.00    +0.000 A 
BRANCH   5  16
ATOM     11  C   UNL     1      -1.798  12.283  23.324  0.00  0.00    +0.000 C 
ATOM     12  C   UNL     1      -0.770  11.917  22.315  0.00  0.00    +0.000 A 
ATOM     13  N   UNL     1       0.108  12.752  21.809  0.00  0.00    +0.000 NA
ATOM     14  C   UNL     1       0.910  12.107  20.875  0.00  0.00    +0.000 A 
ATOM     15  C   UNL     1       1.943  12.942  20.199  0.00  0.00    +0.000 C 
ATOM     16  C   UNL     1       0.623  10.758  20.676  0.00  0.00    +0.000 A 
ATOM     17  S   UNL     1      -0.674  10.314  21.732  0.00  0.00    +0.000 S 
ENDBRANCH   5  16
ENDBRANCH   1   9
BRANCH   3  18
ATOM     18  C   UNL     1       2.066   4.230  21.399  0.00  0.00    +0.000 C 
BRANCH  18  19
ATOM     19  C   UNL     1       1.341   3.070  20.719  0.00  0.00    +0.000 C 
BRANCH  19  20
ATOM     20  C   UNL     1       1.190   3.262  19.199  0.00  0.00    +0.000 C 
BRANCH  20  21
ATOM     21  N   UNL     1       1.924   2.238  18.439  0.00  0.00    +0.000 NA
ATOM     22  C   UNL     1       2.517   2.717  17.177  0.00  0.00    +0.000 C 
ATOM     23  C   UNL     1       3.720   3.647  17.372  0.00  0.00    +0.000 C 
ATOM     24  N   UNL     1       4.672   3.134  18.331  0.00  0.00    +0.000 N 
ATOM     25  C   UNL     1       4.301   2.320  19.368  0.00  0.00    +0.000 C 
ATOM     26  O   UNL     1       5.084   2.132  20.298  0.00  0.00    +0.000 OA
ATOM     27  C   UNL     1       2.966   1.571  19.259  0.00  0.00    +0.000 C 
ATOM     28  H   UNL     1       5.565   3.594  18.452  0.00  0.00    +0.000 HD
ENDBRANCH  20  21
ENDBRANCH  19  20
ENDBRANCH  18  19
ENDBRANCH   3  18
TORSDOF 6
ENDMDL
MODEL 4
REMARK VINA RESULT:      -7.6      3.422      4.867
REMARK  Name = 
REMARK  8 active torsions:
REMARK  status: ('A' for Active; 'I' for Inactive)
REMARK    1  A    between atoms: C_1  and  C_2
REMARK    2  A    between atoms: C_4  and  C_5
REMARK    3  A    between atoms: C_6  and  C_7
REMARK    4  A    between atoms: C_11  and  C_12
REMARK    5  A    between atoms: N_14  and  C_15
REMARK    6  A    between atoms: C_15  and  C_16
REMARK    7  A    between atoms: C_16  and  C_17
REMARK    8  A    between atoms: C_17  and  N_18
REMARK                            x       y       z     vdW  Elec       q    Type
REMARK                         _______ _______ _______ _____ _____    ______ ____
ROOT
ATOM      1  C   UNL     1       1.694   8.970  18.359  0.00  0.00    +0.000 C 
ATOM      2  O   UNL     1       2.329   8.791  17.326  0.00  0.00    +0.000 OA
ATOM      3  N   UNL     1       1.713   8.097  19.425  0.00  0.00    +0.000 N 
ATOM      4  H   UNL     1       1.063   8.218  20.190  0.00  0.00    +0.000 HD
ENDROOT
BRANCH   1   9
ATOM      5  C   UNL     1      -1.311  11.322  18.295  0.00  0.00    +0.000 A 
ATOM      6  C   UNL     1      -0.724  12.450  18.899  0.00  0.00    +0.000 A 
ATOM      7  C   UNL     1       0.618  12.452  19.287  0.00  0.00    +0.000 A 
ATOM      8  C   UNL     1       1.398  11.316  19.096  0.00  0.00    +0.000 A 
ATOM      9  C   UNL     1       0.839  10.180  18.505  0.00  0.00    +0.000 A 
ATOM     10  C   UNL     1      -0.508  10.187  18.108  0.00  0.00    +0.000 A 
BRANCH   5  16
ATOM     11  C   UNL     1      -6.589  11.759  18.142  0.00  0.00    +0.000 C 
ATOM     12  C   UNL     1      -5.155  11.553  17.806  0.00  0.00    +0.000 A 
ATOM     13  N   UNL     1      -4.713  11.184  16.626  0.00  0.00    +0.000 NA
ATOM     14  C   UNL     1      -3.330  11.055  16.644  0.00  0.00    +0.000 A 
ATOM     15  C   UNL     1      -2.688  10.618  15.372  0.00  0.00    +0.000 C 
ATOM     16  C   UNL     1      -2.723  11.331  17.868  0.00  0.00    +0.000 A 
ATOM     17  S   UNL     1      -3.953  11.794  18.994  0.00  0.00    +0.000 S 
ENDBRANCH   5  16
ENDBRANCH   1   9
BRANCH   3  18
ATOM     18  C   UNL     1       2.519   6.891  19.406  0.00  0.00    +0.000 C 
BRANCH  18  19
ATOM     19  C   UNL     1       1.932   5.775  20.270  0.00  0.00    +0.000 C 
BRANCH  19  20
ATOM     20  C   UNL     1       1.455   4.564  19.448  0.00  0.00    +0.000 C 
BRANCH  20  21
ATOM     21  N   UNL     1       2.003   3.300  19.962  0.00  0.00    +0.000 NA
ATOM     22  C   UNL     1       1.863   2.152  19.047  0.00  0.00    +0.000 C 
ATOM     23  C   UNL     1       2.780   2.222  17.820  0.00  0.00    +0.000 C 
ATOM     24  N   UNL     1       4.142   2.560  18.161  0.00  0.00    +0.000 N 
ATOM     25  C   UNL     1       4.458   3.321  19.256  0.00  0.00    +0.000 C 
ATOM     26  O   UNL     1       5.585   3.802  19.353  0.00  0.00    +0.000 OA
ATOM     27  C   UNL     1       3.421   3.433  20.382  0.00  0.00    +0.000 C 
ATOM     28  H   UNL     1       4.867   2.514  17.455  0.00  0.00    +0.000 HD
ENDBRANCH  20  21
ENDBRANCH  19  20
ENDBRANCH  18  19
ENDBRANCH   3  18
TORSDOF 6
ENDMDL
MODEL 5
REMARK VINA RESULT:      -7.6      2.659      4.489
REMARK  Name = 
REMARK  8 active torsions:
REMARK  status: ('A' for Active; 'I' for Inactive)
REMARK    1  A    between atoms: C_1  and  C_2
REMARK    2  A    between atoms: C_4  and  C_5
REMARK    3  A    between atoms: C_6  and  C_7
REMARK    4  A    between atoms: C_11  and  C_12
REMARK    5  A    between atoms: N_14  and  C_15
REMARK    6  A    between atoms: C_15  and  C_16
REMARK    7  A    between atoms: C_16  and  C_17
REMARK    8  A    between atoms: C_17  and  N_18
REMARK                            x       y       z     vdW  Elec       q    Type
REMARK                         _______ _______ _______ _____ _____    ______ ____
ROOT
ATOM      1  C   UNL     1       3.282   7.089  18.123  0.00  0.00    +0.000 C 
ATOM      2  O   UNL     1       3.473   7.478  16.976  0.00  0.00    +0.000 OA
ATOM      3  N   UNL     1       3.884   5.971  18.657  0.00  0.00    +0.000 N 
ATOM      4  H   UNL     1       3.583   5.614  19.554  0.00  0.00    +0.000 HD
ENDROOT
BRANCH   1   9
ATOM      5  C   UNL     1       0.837   9.702  19.448  0.00  0.00    +0.000 A 
ATOM      6  C   UNL     1       0.543   9.120  20.696  0.00  0.00    +0.000 A 
ATOM      7  C   UNL     1       1.147   7.928  21.102  0.00  0.00    +0.000 A 
ATOM      8  C   UNL     1       2.045   7.281  20.260  0.00  0.00    +0.000 A 
ATOM      9  C   UNL     1       2.351   7.834  19.013  0.00  0.00    +0.000 A 
ATOM     10  C   UNL     1       1.747   9.038  18.613  0.00  0.00    +0.000 A 
BRANCH   5  16
ATOM     11  C   UNL     1      -0.288  14.824  18.689  0.00  0.00    +0.000 C 
ATOM     12  C   UNL     1      -0.287  13.337  18.674  0.00  0.00    +0.000 A 
ATOM     13  N   UNL     1      -1.192  12.597  18.077  0.00  0.00    +0.000 NA
ATOM     14  C   UNL     1      -0.923  11.248  18.269  0.00  0.00    +0.000 A 
ATOM     15  C   UNL     1      -1.886  10.286  17.663  0.00  0.00    +0.000 C 
ATOM     16  C   UNL     1       0.212  10.972  19.031  0.00  0.00    +0.000 A 
ATOM     17  S   UNL     1       0.952  12.473  19.473  0.00  0.00    +0.000 S 
ENDBRANCH   5  16
ENDBRANCH   1   9
BRANCH   3  18
ATOM     18  C   UNL     1       4.821   5.172  17.890  0.00  0.00    +0.000 C 
BRANCH  18  19
ATOM     19  C   UNL     1       4.581   3.671  18.046  0.00  0.00    +0.000 C 
BRANCH  19  20
ATOM     20  C   UNL     1       4.534   3.218  19.516  0.00  0.00    +0.000 C 
BRANCH  20  21
ATOM     21  N   UNL     1       3.416   2.298  19.773  0.00  0.00    +0.000 NA
ATOM     22  C   UNL     1       2.705   2.533  21.044  0.00  0.00    +0.000 C 
ATOM     23  C   UNL     1       1.852   3.806  21.048  0.00  0.00    +0.000 C 
ATOM     24  N   UNL     1       1.033   3.933  19.865  0.00  0.00    +0.000 N 
ATOM     25  C   UNL     1       1.399   3.398  18.659  0.00  0.00    +0.000 C 
ATOM     26  O   UNL     1       0.815   3.756  17.637  0.00  0.00    +0.000 OA
ATOM     27  C   UNL     1       2.442   2.272  18.653  0.00  0.00    +0.000 C 
ATOM     28  H   UNL     1       0.335   4.665  19.809  0.00  0.00    +0.000 HD
ENDBRANCH  20  21
ENDBRANCH  19  20
ENDBRANCH  18  19
ENDBRANCH   3  18
TORSDOF 6
ENDMDL
MODEL 6
REMARK VINA RESULT:      -7.6      3.354      9.139
REMARK  Name = 
REMARK  8 active torsions:
REMARK  status: ('A' for Active; 'I' for Inactive)
REMARK    1  A    between atoms: C_1  and  C_2
REMARK    2  A    between atoms: C_4  and  C_5
REMARK    3  A    between atoms: C_6  and  C_7
REMARK    4  A    between atoms: C_11  and  C_12
REMARK    5  A    between atoms: N_14  and  C_15
REMARK    6  A    between atoms: C_15  and  C_16
REMARK    7  A    between atoms: C_16  and  C_17
REMARK    8  A    between atoms: C_17  and  N_18
REMARK                            x       y       z     vdW  Elec       q    Type
REMARK                         _______ _______ _______ _____ _____    ______ ____
ROOT
ATOM      1  C   UNL     1       2.234   7.476  19.617  0.00  0.00    +0.000 C 
ATOM      2  O   UNL     1       2.154   8.449  18.875  0.00  0.00    +0.000 OA
ATOM      3  N   UNL     1       1.860   7.499  20.944  0.00  0.00    +0.000 N 
ATOM      4  H   UNL     1       2.080   6.716  21.544  0.00  0.00    +0.000 HD
ENDROOT
BRANCH   1   9
ATOM      5  C   UNL     1       4.352   4.914  17.744  0.00  0.00    +0.000 A 
ATOM      6  C   UNL     1       3.767   3.734  18.243  0.00  0.00    +0.000 A 
ATOM      7  C   UNL     1       2.697   3.776  19.140  0.00  0.00    +0.000 A 
ATOM      8  C   UNL     1       2.200   5.001  19.571  0.00  0.00    +0.000 A 
ATOM      9  C   UNL     1       2.764   6.188  19.097  0.00  0.00    +0.000 A 
ATOM     10  C   UNL     1       3.835   6.140  18.189  0.00  0.00    +0.000 A 
BRANCH   5  16
ATOM     11  C   UNL     1       7.274   4.608  13.335  0.00  0.00    +0.000 C 
ATOM     12  C   UNL     1       6.805   4.741  14.740  0.00  0.00    +0.000 A 
ATOM     13  N   UNL     1       7.595   4.871  15.780  0.00  0.00    +0.000 NA
ATOM     14  C   UNL     1       6.851   4.945  16.951  0.00  0.00    +0.000 A 
ATOM     15  C   UNL     1       7.621   5.072  18.220  0.00  0.00    +0.000 C 
ATOM     16  C   UNL     1       5.469   4.866  16.781  0.00  0.00    +0.000 A 
ATOM     17  S   UNL     1       5.133   4.728  15.090  0.00  0.00    +0.000 S 
ENDBRANCH   5  16
ENDBRANCH   1   9
BRANCH   3  18
ATOM     18  C   UNL     1       1.316   8.694  21.560  0.00  0.00    +0.000 C 
BRANCH  18  19
ATOM     19  C   UNL     1      -0.193   8.825  21.361  0.00  0.00    +0.000 C 
BRANCH  19  20
ATOM     20  C   UNL     1      -0.570   9.847  20.273  0.00  0.00    +0.000 C 
BRANCH  20  21
ATOM     21  N   UNL     1      -0.162  11.213  20.636  0.00  0.00    +0.000 NA
ATOM     22  C   UNL     1       0.343  12.023  19.511  0.00  0.00    +0.000 C 
ATOM     23  C   UNL     1      -0.746  12.453  18.521  0.00  0.00    +0.000 C 
ATOM     24  N   UNL     1      -1.915  12.991  19.177  0.00  0.00    +0.000 N 
ATOM     25  C   UNL     1      -2.293  12.605  20.435  0.00  0.00    +0.000 C 
ATOM     26  O   UNL     1      -3.422  12.880  20.838  0.00  0.00    +0.000 OA
ATOM     27  C   UNL     1      -1.239  11.953  21.340  0.00  0.00    +0.000 C 
ATOM     28  H   UNL     1      -2.648  13.424  18.629  0.00  0.00    +0.000 HD
ENDBRANCH  20  21
ENDBRANCH  19  20
ENDBRANCH  18  19
ENDBRANCH   3  18
TORSDOF 6
ENDMDL
MODEL 7
REMARK VINA RESULT:      -7.6      1.396      1.749
REMARK  Name = 
REMARK  8 active torsions:
REMARK  status: ('A' for Active; 'I' for Inactive)
REMARK    1  A    between atoms: C_1  and  C_2
REMARK    2  A    between atoms: C_4  and  C_5
REMARK    3  A    between atoms: C_6  and  C_7
REMARK    4  A    between atoms: C_11  and  C_12
REMARK    5  A    between atoms: N_14  and  C_15
REMARK    6  A    between atoms: C_15  and  C_16
REMARK    7  A    between atoms: C_16  and  C_17
REMARK    8  A    between atoms: C_17  and  N_18
REMARK                            x       y       z     vdW  Elec       q    Type
REMARK                         _______ _______ _______ _____ _____    ______ ____
ROOT
ATOM      1  C   UNL     1       2.159   6.157  19.940  0.00  0.00    +0.000 C 
ATOM      2  O   UNL     1       1.920   5.774  21.079  0.00  0.00    +0.000 OA
ATOM      3  N   UNL     1       2.724   5.356  18.971  0.00  0.00    +0.000 N 
ATOM      4  H   UNL     1       3.032   5.760  18.097  0.00  0.00    +0.000 HD
ENDROOT
BRANCH   1   9
ATOM      5  C   UNL     1       1.005   9.792  20.067  0.00  0.00    +0.000 A 
ATOM      6  C   UNL     1       1.374  10.189  18.767  0.00  0.00    +0.000 A 
ATOM      7  C   UNL     1       1.955   9.290  17.870  0.00  0.00    +0.000 A 
ATOM      8  C   UNL     1       2.195   7.976  18.260  0.00  0.00    +0.000 A 
ATOM      9  C   UNL     1       1.844   7.557  19.546  0.00  0.00    +0.000 A 
ATOM     10  C   UNL     1       1.253   8.463  20.441  0.00  0.00    +0.000 A 
BRANCH   5  16
ATOM     11  C   UNL     1      -1.154  14.087  22.295  0.00  0.00    +0.000 C 
ATOM     12  C   UNL     1      -0.636  12.721  22.016  0.00  0.00    +0.000 A 
ATOM     13  N   UNL     1      -0.621  11.739  22.886  0.00  0.00    +0.000 NA
ATOM     14  C   UNL     1      -0.051  10.602  22.326  0.00  0.00    +0.000 A 
ATOM     15  C   UNL     1       0.052   9.407  23.211  0.00  0.00    +0.000 C 
ATOM     16  C   UNL     1       0.373  10.740  21.005  0.00  0.00    +0.000 A 
ATOM     17  S   UNL     1      -0.000  12.344  20.476  0.00  0.00    +0.000 S 
ENDBRANCH   5  16
ENDBRANCH   1   9
BRANCH   3  18
ATOM     18  C   UNL     1       3.063   3.970  19.233  0.00  0.00    +0.000 C 
BRANCH  18  19
ATOM     19  C   UNL     1       4.176   3.453  18.323  0.00  0.00    +0.000 C 
BRANCH  19  20
ATOM     20  C   UNL     1       5.347   4.441  18.182  0.00  0.00    +0.000 C 
BRANCH  20  21
ATOM     21  N   UNL     1       5.055   5.505  17.210  0.00  0.00    +0.000 NA
ATOM     22  C   UNL     1       5.648   6.816  17.536  0.00  0.00    +0.000 C 
ATOM     23  C   UNL     1       7.170   6.868  17.359  0.00  0.00    +0.000 C 
ATOM     24  N   UNL     1       7.605   6.304  16.102  0.00  0.00    +0.000 N 
ATOM     25  C   UNL     1       6.907   5.314  15.462  0.00  0.00    +0.000 C 
ATOM     26  O   UNL     1       7.446   4.687  14.551  0.00  0.00    +0.000 OA
ATOM     27  C   UNL     1       5.429   5.119  15.826  0.00  0.00    +0.000 C 
ATOM     28  H   UNL     1       8.571   6.393  15.815  0.00  0.00    +0.000 HD
ENDBRANCH  20  21
ENDBRANCH  19  20
ENDBRANCH  18  19
ENDBRANCH   3  18
TORSDOF 6
ENDMDL
MODEL 8
REMARK VINA RESULT:      -7.6      3.531      8.655
REMARK  Name = 
REMARK  8 active torsions:
REMARK  status: ('A' for Active; 'I' for Inactive)
REMARK    1  A    between atoms: C_1  and  C_2
REMARK    2  A    between atoms: C_4  and  C_5
REMARK    3  A    between atoms: C_6  and  C_7
REMARK    4  A    between atoms: C_11  and  C_12
REMARK    5  A    between atoms: N_14  and  C_15
REMARK    6  A    between atoms: C_15  and  C_16
REMARK    7  A    between atoms: C_16  and  C_17
REMARK    8  A    between atoms: C_17  and  N_18
REMARK                            x       y       z     vdW  Elec       q    Type
REMARK                         _______ _______ _______ _____ _____    ______ ____
ROOT
ATOM      1  C   UNL     1       1.983   6.159  20.086  0.00  0.00    +0.000 C 
ATOM      2  O   UNL     1       1.597   5.701  21.156  0.00  0.00    +0.000 OA
ATOM      3  N   UNL     1       2.042   7.508  19.812  0.00  0.00    +0.000 N 
ATOM      4  H   UNL     1       2.230   7.825  18.871  0.00  0.00    +0.000 HD
ENDROOT
BRANCH   1   9
ATOM      5  C   UNL     1       4.028   4.529  17.307  0.00  0.00    +0.000 A 
ATOM      6  C   UNL     1       3.201   3.420  17.042  0.00  0.00    +0.000 A 
ATOM      7  C   UNL     1       2.001   3.228  17.730  0.00  0.00    +0.000 A 
ATOM      8  C   UNL     1       1.609   4.133  18.711  0.00  0.00    +0.000 A 
ATOM      9  C   UNL     1       2.414   5.239  18.998  0.00  0.00    +0.000 A 
ATOM     10  C   UNL     1       3.616   5.432  18.298  0.00  0.00    +0.000 A 
BRANCH   5  16
ATOM     11  C   UNL     1       7.683   5.014  13.502  0.00  0.00    +0.000 C 
ATOM     12  C   UNL     1       6.958   4.977  14.800  0.00  0.00    +0.000 A 
ATOM     13  N   UNL     1       7.516   5.184  15.970  0.00  0.00    +0.000 NA
ATOM     14  C   UNL     1       6.577   5.053  16.986  0.00  0.00    +0.000 A 
ATOM     15  C   UNL     1       7.075   5.241  18.377  0.00  0.00    +0.000 C 
ATOM     16  C   UNL     1       5.286   4.739  16.564  0.00  0.00    +0.000 A 
ATOM     17  S   UNL     1       5.283   4.644  14.837  0.00  0.00    +0.000 S 
ENDBRANCH   5  16
ENDBRANCH   1   9
BRANCH   3  18
ATOM     18  C   UNL     1       1.661   8.501  20.799  0.00  0.00    +0.000 C 
BRANCH  18  19
ATOM     19  C   UNL     1       0.172   8.843  20.747  0.00  0.00    +0.000 C 
BRANCH  19  20
ATOM     20  C   UNL     1      -0.098  10.289  20.297  0.00  0.00    +0.000 C 
BRANCH  20  21
ATOM     21  N   UNL     1       0.408  10.547  18.940  0.00  0.00    +0.000 NA
ATOM     22  C   UNL     1      -0.483  10.095  17.855  0.00  0.00    +0.000 C 
ATOM     23  C   UNL     1      -1.752  10.942  17.703  0.00  0.00    +0.000 C 
ATOM     24  N   UNL     1      -1.479  12.361  17.709  0.00  0.00    +0.000 N 
ATOM     25  C   UNL     1      -0.411  12.899  18.377  0.00  0.00    +0.000 C 
ATOM     26  O   UNL     1      -0.373  14.112  18.577  0.00  0.00    +0.000 OA
ATOM     27  C   UNL     1       0.760  11.974  18.734  0.00  0.00    +0.000 C 
ATOM     28  H   UNL     1      -2.217  13.019  17.491  0.00  0.00    +0.000 HD
ENDBRANCH  20  21
ENDBRANCH  19  20
ENDBRANCH  18  19
ENDBRANCH   3  18
TORSDOF 6
ENDMDL
MODEL 9
REMARK VINA RESULT:      -7.6      1.279      1.493
REMARK  Name = 
REMARK  8 active torsions:
REMARK  status: ('A' for Active; 'I' for Inactive)
REMARK    1  A    between atoms: C_1  and  C_2
REMARK    2  A    between atoms: C_4  and  C_5
REMARK    3  A    between atoms: C_6  and  C_7
REMARK    4  A    between atoms: C_11  and  C_12
REMARK    5  A    between atoms: N_14  and  C_15
REMARK    6  A    between atoms: C_15  and  C_16
REMARK    7  A    between atoms: C_16  and  C_17
REMARK    8  A    between atoms: C_17  and  N_18
REMARK                            x       y       z     vdW  Elec       q    Type
REMARK                         _______ _______ _______ _____ _____    ______ ____
ROOT
ATOM      1  C   UNL     1       2.357   6.066  19.899  0.00  0.00    +0.000 C 
ATOM      2  O   UNL     1       1.646   5.461  20.693  0.00  0.00    +0.000 OA
ATOM      3  N   UNL     1       3.508   5.539  19.353  0.00  0.00    +0.000 N 
ATOM      4  H   UNL     1       4.130   6.129  18.819  0.00  0.00    +0.000 HD
ENDROOT
BRANCH   1   9
ATOM      5  C   UNL     1       1.128   9.677  19.980  0.00  0.00    +0.000 A 
ATOM      6  C   UNL     1       1.436  10.047  18.657  0.00  0.00    +0.000 A 
ATOM      7  C   UNL     1       2.000   9.137  17.760  0.00  0.00    +0.000 A 
ATOM      8  C   UNL     1       2.285   7.840  18.173  0.00  0.00    +0.000 A 
ATOM      9  C   UNL     1       1.995   7.447  19.482  0.00  0.00    +0.000 A 
ATOM     10  C   UNL     1       1.420   8.364  20.378  0.00  0.00    +0.000 A 
BRANCH   5  16
ATOM     11  C   UNL     1      -0.657  14.073  22.339  0.00  0.00    +0.000 C 
ATOM     12  C   UNL     1      -0.320  12.668  21.988  0.00  0.00    +0.000 A 
ATOM     13  N   UNL     1      -0.593  11.627  22.740  0.00  0.00    +0.000 NA
ATOM     14  C   UNL     1      -0.126  10.461  22.145  0.00  0.00    +0.000 A 
ATOM     15  C   UNL     1      -0.348   9.196  22.900  0.00  0.00    +0.000 C 
ATOM     16  C   UNL     1       0.513  10.636  20.919  0.00  0.00    +0.000 A 
ATOM     17  S   UNL     1       0.480  12.319  20.520  0.00  0.00    +0.000 S 
ENDBRANCH   5  16
ENDBRANCH   1   9
BRANCH   3  18
ATOM     18  C   UNL     1       3.955   4.196  19.673  0.00  0.00    +0.000 C 
BRANCH  18  19
ATOM     19  C   UNL     1       4.339   3.391  18.432  0.00  0.00    +0.000 C 
BRANCH  19  20
ATOM     20  C   UNL     1       4.179   4.188  17.125  0.00  0.00    +0.000 C 
BRANCH  20  21
ATOM     21  N   UNL     1       5.416   4.196  16.330  0.00  0.00    +0.000 NA
ATOM     22  C   UNL     1       5.368   5.045  15.125  0.00  0.00    +0.000 C 
ATOM     23  C   UNL     1       5.377   6.548  15.428  0.00  0.00    +0.000 C 
ATOM     24  N   UNL     1       6.391   6.918  16.388  0.00  0.00    +0.000 N 
ATOM     25  C   UNL     1       6.835   6.056  17.355  0.00  0.00    +0.000 C 
ATOM     26  O   UNL     1       7.488   6.493  18.301  0.00  0.00    +0.000 OA
ATOM     27  C   UNL     1       6.604   4.553  17.145  0.00  0.00    +0.000 C 
ATOM     28  H   UNL     1       6.579   7.895  16.574  0.00  0.00    +0.000 HD
ENDBRANCH  20  21
ENDBRANCH  19  20
ENDBRANCH  18  19
ENDBRANCH   3  18
TORSDOF 6
ENDMDL
