MODEL 1
REMARK VINA RESULT:      -6.0      0.000      0.000
REMARK  Name = 
REMARK  12 active torsions:
REMARK  status: ('A' for Active; 'I' for Inactive)
REMARK    1  A    between atoms: C_2  and  C_3
REMARK    2  A    between atoms: C_3  and  N_4
REMARK    3  A    between atoms: N_7  and  C_8
REMARK    4  A    between atoms: C_8  and  S_10
REMARK    5  A    between atoms: S_10  and  C_11
REMARK    6  A    between atoms: C_11  and  C_12
REMARK    7  A    between atoms: C_12  and  C_13
REMARK    8  A    between atoms: C_13  and  S_14
REMARK    9  A    between atoms: S_14  and  C_15
REMARK   10  A    between atoms: C_15  and  N_17
REMARK   11  A    between atoms: N_20  and  C_21
REMARK   12  A    between atoms: C_21  and  C_22
REMARK                            x       y       z     vdW  Elec       q    Type
REMARK                         _______ _______ _______ _____ _____    ______ ____
ROOT
ATOM      1  C   UNL     1       2.303   5.987  17.942  0.00  0.00    +0.000 C 
ENDROOT
BRANCH   1   2
ATOM      2  C   UNL     1       2.980   6.904  18.971  0.00  0.00    +0.000 C 
BRANCH   2   3
ATOM      3  S   UNL     1       1.794   7.513  20.213  0.00  0.00    +0.000 S 
BRANCH   3   4
ATOM      4  C   UNL     1       1.383   9.066  19.480  0.00  0.00    +0.000 C 
ATOM      5  S   UNL     1       1.954   9.361  17.923  0.00  0.00    +0.000 S 
BRANCH   4   9
ATOM      6  N   UNL     1      -0.421  11.854  22.299  0.00  0.00    +0.000 NA
ATOM      7  C   UNL     1      -0.170  10.423  22.581  0.00  0.00    +0.000 C 
ATOM      8  C   UNL     1      -0.244   9.492  21.356  0.00  0.00    +0.000 C 
ATOM      9  N   UNL     1       0.627   9.956  20.256  0.00  0.00    +0.000 N 
ATOM     10  C   UNL     1       0.414  11.383  19.934  0.00  0.00    +0.000 C 
ATOM     11  C   UNL     1       0.475  12.273  21.196  0.00  0.00    +0.000 C 
BRANCH   6  12
ATOM     12  C   UNL     1      -1.820  12.151  21.963  0.00  0.00    +0.000 C 
BRANCH  12  14
ATOM     13  C   UNL     1      -1.736  13.907  23.752  0.00  0.00    +0.000 C 
ATOM     14  C   UNL     1      -2.397  13.272  22.775  0.00  0.00    +0.000 C 
ENDBRANCH  12  14
ENDBRANCH   6  12
ENDBRANCH   4   9
ENDBRANCH   3   4
ENDBRANCH   2   3
ENDBRANCH   1   2
BRANCH   1  15
ATOM     15  C   UNL     1       1.826   4.627  18.465  0.00  0.00    +0.000 C 
BRANCH  15  16
ATOM     16  S   UNL     1       2.766   3.266  17.707  0.00  0.00    +0.000 S 
BRANCH  16  17
ATOM     17  C   UNL     1       4.233   3.261  18.691  0.00  0.00    +0.000 C 
ATOM     18  S   UNL     1       4.315   2.246  20.035  0.00  0.00    +0.000 S 
BRANCH  17  19
ATOM     19  N   UNL     1       5.296   4.033  18.192  0.00  0.00    +0.000 N 
ATOM     20  C   UNL     1       6.112   4.874  19.093  0.00  0.00    +0.000 C 
ATOM     21  C   UNL     1       7.556   5.051  18.591  0.00  0.00    +0.000 C 
ATOM     22  N   UNL     1       7.671   5.545  17.204  0.00  0.00    +0.000 NA
ATOM     23  C   UNL     1       6.906   4.631  16.332  0.00  0.00    +0.000 C 
ATOM     24  C   UNL     1       5.443   4.383  16.760  0.00  0.00    +0.000 C 
BRANCH  22  25
ATOM     25  C   UNL     1       7.217   6.932  17.046  0.00  0.00    +0.000 C 
BRANCH  25  26
ATOM     26  C   UNL     1       7.942   7.867  17.971  0.00  0.00    +0.000 C 
ATOM     27  C   UNL     1       8.033   9.192  17.790  0.00  0.00    +0.000 C 
ENDBRANCH  25  26
ENDBRANCH  22  25
ENDBRANCH  17  19
ENDBRANCH  16  17
ENDBRANCH  15  16
ENDBRANCH   1  15
TORSDOF 12
ENDMDL
MODEL 2
REMARK VINA RESULT:      -5.8      1.374      9.223
REMARK  Name = 
REMARK  12 active torsions:
REMARK  status: ('A' for Active; 'I' for Inactive)
REMARK    1  A    between atoms: C_2  and  C_3
REMARK    2  A    between atoms: C_3  and  N_4
REMARK    3  A    between atoms: N_7  and  C_8
REMARK    4  A    between atoms: C_8  and  S_10
REMARK    5  A    between atoms: S_10  and  C_11
REMARK    6  A    between atoms: C_11  and  C_12
REMARK    7  A    between atoms: C_12  and  C_13
REMARK    8  A    between atoms: C_13  and  S_14
REMARK    9  A    between atoms: S_14  and  C_15
REMARK   10  A    between atoms: C_15  and  N_17
REMARK   11  A    between atoms: N_20  and  C_21
REMARK   12  A    between atoms: C_21  and  C_22
REMARK                            x       y       z     vdW  Elec       q    Type
REMARK                         _______ _______ _______ _____ _____    ______ ____
ROOT
ATOM      1  C   UNL     1       2.338   5.349  20.461  0.00  0.00    +0.000 C 
ENDROOT
BRANCH   1   2
ATOM      2  C   UNL     1       1.448   4.366  19.686  0.00  0.00    +0.000 C 
BRANCH   2   3
ATOM      3  S   UNL     1       1.919   4.271  17.929  0.00  0.00    +0.000 S 
BRANCH   3   4
ATOM      4  C   UNL     1       3.576   3.687  18.108  0.00  0.00    +0.000 C 
ATOM      5  S   UNL     1       3.783   2.111  18.664  0.00  0.00    +0.000 S 
BRANCH   4   9
ATOM      6  N   UNL     1       7.123   5.928  16.938  0.00  0.00    +0.000 NA
ATOM      7  C   UNL     1       7.040   5.054  18.129  0.00  0.00    +0.000 C 
ATOM      8  C   UNL     1       5.645   4.960  18.775  0.00  0.00    +0.000 C 
ATOM      9  N   UNL     1       4.605   4.585  17.794  0.00  0.00    +0.000 N 
ATOM     10  C   UNL     1       4.645   5.432  16.582  0.00  0.00    +0.000 C 
ATOM     11  C   UNL     1       6.067   5.513  15.984  0.00  0.00    +0.000 C 
BRANCH   6  12
ATOM     12  C   UNL     1       6.999   7.358  17.248  0.00  0.00    +0.000 C 
BRANCH  12  14
ATOM     13  C   UNL     1       8.492   9.145  18.184  0.00  0.00    +0.000 C 
ATOM     14  C   UNL     1       8.095   7.866  18.139  0.00  0.00    +0.000 C 
ENDBRANCH  12  14
ENDBRANCH   6  12
ENDBRANCH   4   9
ENDBRANCH   3   4
ENDBRANCH   2   3
ENDBRANCH   1   2
BRANCH   1  15
ATOM     15  C   UNL     1       2.473   6.753  19.857  0.00  0.00    +0.000 C 
BRANCH  15  16
ATOM     16  S   UNL     1       1.463   7.960  20.771  0.00  0.00    +0.000 S 
BRANCH  16  17
ATOM     17  C   UNL     1       1.233   9.219  19.553  0.00  0.00    +0.000 C 
ATOM     18  S   UNL     1       1.923   9.019  18.028  0.00  0.00    +0.000 S 
BRANCH  17  19
ATOM     19  N   UNL     1       0.365  10.260  19.920  0.00  0.00    +0.000 N 
ATOM     20  C   UNL     1      -0.435  10.977  18.904  0.00  0.00    +0.000 C 
ATOM     21  C   UNL     1      -1.762  11.517  19.468  0.00  0.00    +0.000 C 
ATOM     22  N   UNL     1      -1.623  12.354  20.677  0.00  0.00    +0.000 NA
ATOM     23  C   UNL     1      -0.888  11.569  21.689  0.00  0.00    +0.000 C 
ATOM     24  C   UNL     1       0.457  10.976  21.214  0.00  0.00    +0.000 C 
BRANCH  22  25
ATOM     25  C   UNL     1      -0.961  13.638  20.418  0.00  0.00    +0.000 C 
BRANCH  25  26
ATOM     26  C   UNL     1      -1.861  14.802  20.715  0.00  0.00    +0.000 C 
ATOM     27  C   UNL     1      -3.152  14.693  21.057  0.00  0.00    +0.000 C 
ENDBRANCH  25  26
ENDBRANCH  22  25
ENDBRANCH  17  19
ENDBRANCH  16  17
ENDBRANCH  15  16
ENDBRANCH   1  15
TORSDOF 12
ENDMDL
MODEL 3
REMARK VINA RESULT:      -5.7      1.196      1.475
REMARK  Name = 
REMARK  12 active torsions:
REMARK  status: ('A' for Active; 'I' for Inactive)
REMARK    1  A    between atoms: C_2  and  C_3
REMARK    2  A    between atoms: C_3  and  N_4
REMARK    3  A    between atoms: N_7  and  C_8
REMARK    4  A    between atoms: C_8  and  S_10
REMARK    5  A    between atoms: S_10  and  C_11
REMARK    6  A    between atoms: C_11  and  C_12
REMARK    7  A    between atoms: C_12  and  C_13
REMARK    8  A    between atoms: C_13  and  S_14
REMARK    9  A    between atoms: S_14  and  C_15
REMARK   10  A    between atoms: C_15  and  N_17
REMARK   11  A    between atoms: N_20  and  C_21
REMARK   12  A    between atoms: C_21  and  C_22
REMARK                            x       y       z     vdW  Elec       q    Type
REMARK                         _______ _______ _______ _____ _____    ______ ____
ROOT
ATOM      1  C   UNL     1       2.525   7.249  18.654  0.00  0.00    +0.000 C 
ENDROOT
BRANCH   1   2
ATOM      2  C   UNL     1       1.782   8.462  19.235  0.00  0.00    +0.000 C 
BRANCH   2   3
ATOM      3  S   UNL     1       1.626   9.804  18.014  0.00  0.00    +0.000 S 
BRANCH   3   4
ATOM      4  C   UNL     1       0.018  10.396  18.444  0.00  0.00    +0.000 C 
ATOM      5  S   UNL     1      -1.279   9.847  17.522  0.00  0.00    +0.000 S 
BRANCH   4   9
ATOM      6  N   UNL     1       0.312  12.884  22.007  0.00  0.00    +0.000 NA
ATOM      7  C   UNL     1      -0.128  11.472  22.006  0.00  0.00    +0.000 C 
ATOM      8  C   UNL     1      -0.852  11.012  20.727  0.00  0.00    +0.000 C 
ATOM      9  N   UNL     1      -0.062  11.302  19.511  0.00  0.00    +0.000 N 
ATOM     10  C   UNL     1       0.401  12.705  19.463  0.00  0.00    +0.000 C 
ATOM     11  C   UNL     1       1.100  13.125  20.776  0.00  0.00    +0.000 C 
BRANCH   6  12
ATOM     12  C   UNL     1      -0.795  13.845  22.102  0.00  0.00    +0.000 C 
BRANCH  12  14
ATOM     13  C   UNL     1      -2.670  13.795  23.769  0.00  0.00    +0.000 C 
ATOM     14  C   UNL     1      -1.370  13.949  23.485  0.00  0.00    +0.000 C 
ENDBRANCH  12  14
ENDBRANCH   6  12
ENDBRANCH   4   9
ENDBRANCH   3   4
ENDBRANCH   2   3
ENDBRANCH   1   2
BRANCH   1  15
ATOM     15  C   UNL     1       2.738   6.070  19.611  0.00  0.00    +0.000 C 
BRANCH  15  16
ATOM     16  S   UNL     1       2.523   4.481  18.750  0.00  0.00    +0.000 S 
BRANCH  16  17
ATOM     17  C   UNL     1       4.084   3.708  19.042  0.00  0.00    +0.000 C 
ATOM     18  S   UNL     1       4.127   2.221  19.835  0.00  0.00    +0.000 S 
BRANCH  17  19
ATOM     19  N   UNL     1       5.192   4.352  18.466  0.00  0.00    +0.000 N 
ATOM     20  C   UNL     1       6.078   5.214  19.277  0.00  0.00    +0.000 C 
ATOM     21  C   UNL     1       7.524   5.238  18.751  0.00  0.00    +0.000 C 
ATOM     22  N   UNL     1       7.655   5.590  17.322  0.00  0.00    +0.000 NA
ATOM     23  C   UNL     1       6.816   4.656  16.546  0.00  0.00    +0.000 C 
ATOM     24  C   UNL     1       5.345   4.554  17.006  0.00  0.00    +0.000 C 
BRANCH  22  25
ATOM     25  C   UNL     1       7.299   6.985  17.037  0.00  0.00    +0.000 C 
BRANCH  25  26
ATOM     26  C   UNL     1       7.911   7.933  18.027  0.00  0.00    +0.000 C 
ATOM     27  C   UNL     1       8.150   9.230  17.786  0.00  0.00    +0.000 C 
ENDBRANCH  25  26
ENDBRANCH  22  25
ENDBRANCH  17  19
ENDBRANCH  16  17
ENDBRANCH  15  16
ENDBRANCH   1  15
TORSDOF 12
ENDMDL
MODEL 4
REMARK VINA RESULT:      -5.7      2.333      4.359
REMARK  Name = 
REMARK  12 active torsions:
REMARK  status: ('A' for Active; 'I' for Inactive)
REMARK    1  A    between atoms: C_2  and  C_3
REMARK    2  A    between atoms: C_3  and  N_4
REMARK    3  A    between atoms: N_7  and  C_8
REMARK    4  A    between atoms: C_8  and  S_10
REMARK    5  A    between atoms: S_10  and  C_11
REMARK    6  A    between atoms: C_11  and  C_12
REMARK    7  A    between atoms: C_12  and  C_13
REMARK    8  A    between atoms: C_13  and  S_14
REMARK    9  A    between atoms: S_14  and  C_15
REMARK   10  A    between atoms: C_15  and  N_17
REMARK   11  A    between atoms: N_20  and  C_21
REMARK   12  A    between atoms: C_21  and  C_22
REMARK                            x       y       z     vdW  Elec       q    Type
REMARK                         _______ _______ _______ _____ _____    ______ ____
ROOT
ATOM      1  C   UNL     1       2.976   6.627  17.704  0.00  0.00    +0.000 C 
ENDROOT
BRANCH   1   2
ATOM      2  C   UNL     1       2.375   7.406  18.883  0.00  0.00    +0.000 C 
BRANCH   2   3
ATOM      3  S   UNL     1       1.749   9.036  18.364  0.00  0.00    +0.000 S 
BRANCH   3   4
ATOM      4  C   UNL     1       1.014   9.558  19.882  0.00  0.00    +0.000 C 
ATOM      5  S   UNL     1       1.049   8.474  21.170  0.00  0.00    +0.000 S 
BRANCH   4   9
ATOM      6  N   UNL     1      -1.308  13.233  19.604  0.00  0.00    +0.000 NA
ATOM      7  C   UNL     1      -0.617  12.591  18.464  0.00  0.00    +0.000 C 
ATOM      8  C   UNL     1       0.665  11.819  18.826  0.00  0.00    +0.000 C 
ATOM      9  N   UNL     1       0.432  10.834  19.903  0.00  0.00    +0.000 N 
ATOM     10  C   UNL     1      -0.256  11.428  21.069  0.00  0.00    +0.000 C 
ATOM     11  C   UNL     1      -1.523  12.208  20.653  0.00  0.00    +0.000 C 
BRANCH   6  12
ATOM     12  C   UNL     1      -0.584  14.386  20.156  0.00  0.00    +0.000 C 
BRANCH  12  14
ATOM     13  C   UNL     1       0.648  16.170  18.892  0.00  0.00    +0.000 C 
ATOM     14  C   UNL     1      -0.494  15.539  19.199  0.00  0.00    +0.000 C 
ENDBRANCH  12  14
ENDBRANCH   6  12
ENDBRANCH   4   9
ENDBRANCH   3   4
ENDBRANCH   2   3
ENDBRANCH   1   2
BRANCH   1  15
ATOM     15  C   UNL     1       4.349   7.103  17.214  0.00  0.00    +0.000 C 
BRANCH  15  16
ATOM     16  S   UNL     1       5.172   5.820  16.221  0.00  0.00    +0.000 S 
BRANCH  16  17
ATOM     17  C   UNL     1       5.800   4.750  17.480  0.00  0.00    +0.000 C 
ATOM     18  S   UNL     1       7.384   4.959  18.018  0.00  0.00    +0.000 S 
BRANCH  17  19
ATOM     19  N   UNL     1       4.864   3.864  18.038  0.00  0.00    +0.000 N 
ATOM     20  C   UNL     1       3.945   3.088  17.179  0.00  0.00    +0.000 C 
ATOM     21  C   UNL     1       3.543   1.741  17.807  0.00  0.00    +0.000 C 
ATOM     22  N   UNL     1       2.989   1.838  19.173  0.00  0.00    +0.000 NA
ATOM     23  C   UNL     1       3.973   2.551  20.012  0.00  0.00    +0.000 C 
ATOM     24  C   UNL     1       4.447   3.913  19.459  0.00  0.00    +0.000 C 
BRANCH  22  25
ATOM     25  C   UNL     1       1.678   2.497  19.218  0.00  0.00    +0.000 C 
BRANCH  25  26
ATOM     26  C   UNL     1       1.432   3.164  20.540  0.00  0.00    +0.000 C 
ATOM     27  C   UNL     1       1.019   4.431  20.684  0.00  0.00    +0.000 C 
ENDBRANCH  25  26
ENDBRANCH  22  25
ENDBRANCH  17  19
ENDBRANCH  16  17
ENDBRANCH  15  16
ENDBRANCH   1  15
TORSDOF 12
ENDMDL
MODEL 5
REMARK VINA RESULT:      -5.6      4.778      8.976
REMARK  Name = 
REMARK  12 active torsions:
REMARK  status: ('A' for Active; 'I' for Inactive)
REMARK    1  A    between atoms: C_2  and  C_3
REMARK    2  A    between atoms: C_3  and  N_4
REMARK    3  A    between atoms: N_7  and  C_8
REMARK    4  A    between atoms: C_8  and  S_10
REMARK    5  A    between atoms: S_10  and  C_11
REMARK    6  A    between atoms: C_11  and  C_12
REMARK    7  A    between atoms: C_12  and  C_13
REMARK    8  A    between atoms: C_13  and  S_14
REMARK    9  A    between atoms: S_14  and  C_15
REMARK   10  A    between atoms: C_15  and  N_17
REMARK   11  A    between atoms: N_20  and  C_21
REMARK   12  A    between atoms: C_21  and  C_22
REMARK                            x       y       z     vdW  Elec       q    Type
REMARK                         _______ _______ _______ _____ _____    ______ ____
ROOT
ATOM      1  C   UNL     1       8.274   8.512  18.621  0.00  0.00    +0.000 C 
ENDROOT
BRANCH   1   2
ATOM      2  C   UNL     1       7.702   7.524  17.593  0.00  0.00    +0.000 C 
BRANCH   2   3
ATOM      3  S   UNL     1       7.600   5.835  18.267  0.00  0.00    +0.000 S 
BRANCH   3   4
ATOM      4  C   UNL     1       6.335   5.185  17.221  0.00  0.00    +0.000 C 
ATOM      5  S   UNL     1       6.688   5.037  15.581  0.00  0.00    +0.000 S 
BRANCH   4   9
ATOM      6  N   UNL     1       2.370   4.814  18.987  0.00  0.00    +0.000 NA
ATOM      7  C   UNL     1       3.492   5.560  19.598  0.00  0.00    +0.000 C 
ATOM      8  C   UNL     1       4.895   5.009  19.281  0.00  0.00    +0.000 C 
ATOM      9  N   UNL     1       5.114   4.857  17.827  0.00  0.00    +0.000 N 
ATOM     10  C   UNL     1       4.018   4.114  17.168  0.00  0.00    +0.000 C 
ATOM     11  C   UNL     1       2.632   4.691  17.533  0.00  0.00    +0.000 C 
BRANCH   6  12
ATOM     12  C   UNL     1       2.153   3.488  19.582  0.00  0.00    +0.000 C 
BRANCH  12  14
ATOM     13  C   UNL     1       1.429   2.661  21.837  0.00  0.00    +0.000 C 
ATOM     14  C   UNL     1       1.312   3.530  20.824  0.00  0.00    +0.000 C 
ENDBRANCH  12  14
ENDBRANCH   6  12
ENDBRANCH   4   9
ENDBRANCH   3   4
ENDBRANCH   2   3
ENDBRANCH   1   2
BRANCH   1  15
ATOM     15  C   UNL     1       8.649   9.899  18.084  0.00  0.00    +0.000 C 
BRANCH  15  16
ATOM     16  S   UNL     1       9.536  10.871  19.340  0.00  0.00    +0.000 S 
BRANCH  16  17
ATOM     17  C   UNL     1       9.807  12.391  18.482  0.00  0.00    +0.000 C 
ATOM     18  S   UNL     1      11.121  12.517  17.433  0.00  0.00    +0.000 S 
BRANCH  17  19
ATOM     19  N   UNL     1       8.807  13.364  18.650  0.00  0.00    +0.000 N 
ATOM     20  C   UNL     1       8.492  13.907  19.988  0.00  0.00    +0.000 C 
ATOM     21  C   UNL     1       7.969  15.354  19.932  0.00  0.00    +0.000 C 
ATOM     22  N   UNL     1       6.821  15.560  19.025  0.00  0.00    +0.000 NA
ATOM     23  C   UNL     1       7.210  15.076  17.685  0.00  0.00    +0.000 C 
ATOM     24  C   UNL     1       7.757  13.633  17.640  0.00  0.00    +0.000 C 
BRANCH  22  25
ATOM     25  C   UNL     1       5.593  14.905  19.490  0.00  0.00    +0.000 C 
BRANCH  25  26
ATOM     26  C   UNL     1       5.203  15.358  20.867  0.00  0.00    +0.000 C 
ATOM     27  C   UNL     1       4.215  14.816  21.592  0.00  0.00    +0.000 C 
ENDBRANCH  25  26
ENDBRANCH  22  25
ENDBRANCH  17  19
ENDBRANCH  16  17
ENDBRANCH  15  16
ENDBRANCH   1  15
TORSDOF 12
ENDMDL
MODEL 6
REMARK VINA RESULT:      -5.6      1.422      9.735
REMARK  Name = 
REMARK  12 active torsions:
REMARK  status: ('A' for Active; 'I' for Inactive)
REMARK    1  A    between atoms: C_2  and  C_3
REMARK    2  A    between atoms: C_3  and  N_4
REMARK    3  A    between atoms: N_7  and  C_8
REMARK    4  A    between atoms: C_8  and  S_10
REMARK    5  A    between atoms: S_10  and  C_11
REMARK    6  A    between atoms: C_11  and  C_12
REMARK    7  A    between atoms: C_12  and  C_13
REMARK    8  A    between atoms: C_13  and  S_14
REMARK    9  A    between atoms: S_14  and  C_15
REMARK   10  A    between atoms: C_15  and  N_17
REMARK   11  A    between atoms: N_20  and  C_21
REMARK   12  A    between atoms: C_21  and  C_22
REMARK                            x       y       z     vdW  Elec       q    Type
REMARK                         _______ _______ _______ _____ _____    ______ ____
ROOT
ATOM      1  C   UNL     1       2.581   7.914  18.215  0.00  0.00    +0.000 C 
ENDROOT
BRANCH   1   2
ATOM      2  C   UNL     1       2.456   6.701  19.148  0.00  0.00    +0.000 C 
BRANCH   2   3
ATOM      3  S   UNL     1       2.307   5.145  18.213  0.00  0.00    +0.000 S 
BRANCH   3   4
ATOM      4  C   UNL     1       3.903   4.462  18.536  0.00  0.00    +0.000 C 
ATOM      5  S   UNL     1       3.963   2.985  19.343  0.00  0.00    +0.000 S 
BRANCH   4   9
ATOM      6  N   UNL     1       7.666   6.186  17.177  0.00  0.00    +0.000 NA
ATOM      7  C   UNL     1       7.455   5.581  18.511  0.00  0.00    +0.000 C 
ATOM      8  C   UNL     1       6.026   5.710  19.070  0.00  0.00    +0.000 C 
ATOM      9  N   UNL     1       5.013   5.210  18.118  0.00  0.00    +0.000 N 
ATOM     10  C   UNL     1       5.179   5.787  16.766  0.00  0.00    +0.000 C 
ATOM     11  C   UNL     1       6.632   5.653  16.259  0.00  0.00    +0.000 C 
BRANCH   6  12
ATOM     12  C   UNL     1       7.635   7.655  17.186  0.00  0.00    +0.000 C 
BRANCH  12  14
ATOM     13  C   UNL     1       8.688   9.543  18.459  0.00  0.00    +0.000 C 
ATOM     14  C   UNL     1       8.340   8.253  18.368  0.00  0.00    +0.000 C 
ENDBRANCH  12  14
ENDBRANCH   6  12
ENDBRANCH   4   9
ENDBRANCH   3   4
ENDBRANCH   2   3
ENDBRANCH   1   2
BRANCH   1  15
ATOM     15  C   UNL     1       1.287   8.696  17.952  0.00  0.00    +0.000 C 
BRANCH  15  16
ATOM     16  S   UNL     1       1.336  10.331  18.749  0.00  0.00    +0.000 S 
BRANCH  16  17
ATOM     17  C   UNL     1      -0.385  10.692  18.916  0.00  0.00    +0.000 C 
ATOM     18  S   UNL     1      -1.452  10.172  17.718  0.00  0.00    +0.000 S 
BRANCH  17  19
ATOM     19  N   UNL     1      -0.760  11.294  20.129  0.00  0.00    +0.000 N 
ATOM     20  C   UNL     1      -1.614  12.500  20.148  0.00  0.00    +0.000 C 
ATOM     21  C   UNL     1      -2.479  12.594  21.418  0.00  0.00    +0.000 C 
ATOM     22  N   UNL     1      -1.726  12.495  22.685  0.00  0.00    +0.000 NA
ATOM     23  C   UNL     1      -0.949  11.239  22.654  0.00  0.00    +0.000 C 
ATOM     24  C   UNL     1      -0.055  11.048  21.409  0.00  0.00    +0.000 C 
BRANCH  22  25
ATOM     25  C   UNL     1      -0.856  13.650  22.931  0.00  0.00    +0.000 C 
BRANCH  25  26
ATOM     26  C   UNL     1      -1.586  14.765  23.622  0.00  0.00    +0.000 C 
ATOM     27  C   UNL     1      -1.416  15.099  24.909  0.00  0.00    +0.000 C 
ENDBRANCH  25  26
ENDBRANCH  22  25
ENDBRANCH  17  19
ENDBRANCH  16  17
ENDBRANCH  15  16
ENDBRANCH   1  15
TORSDOF 12
ENDMDL
MODEL 7
REMARK VINA RESULT:      -5.6      1.571     10.183
REMARK  Name = 
REMARK  12 active torsions:
REMARK  status: ('A' for Active; 'I' for Inactive)
REMARK    1  A    between atoms: C_2  and  C_3
REMARK    2  A    between atoms: C_3  and  N_4
REMARK    3  A    between atoms: N_7  and  C_8
REMARK    4  A    between atoms: C_8  and  S_10
REMARK    5  A    between atoms: S_10  and  C_11
REMARK    6  A    between atoms: C_11  and  C_12
REMARK    7  A    between atoms: C_12  and  C_13
REMARK    8  A    between atoms: C_13  and  S_14
REMARK    9  A    between atoms: S_14  and  C_15
REMARK   10  A    between atoms: C_15  and  N_17
REMARK   11  A    between atoms: N_20  and  C_21
REMARK   12  A    between atoms: C_21  and  C_22
REMARK                            x       y       z     vdW  Elec       q    Type
REMARK                         _______ _______ _______ _____ _____    ______ ____
ROOT
ATOM      1  C   UNL     1       1.599   6.488  20.508  0.00  0.00    +0.000 C 
ENDROOT
BRANCH   1   2
ATOM      2  C   UNL     1       2.214   5.612  19.406  0.00  0.00    +0.000 C 
BRANCH   2   3
ATOM      3  S   UNL     1       2.865   4.048  20.075  0.00  0.00    +0.000 S 
BRANCH   3   4
ATOM      4  C   UNL     1       3.807   3.510  18.682  0.00  0.00    +0.000 C 
ATOM      5  S   UNL     1       3.441   1.996  18.040  0.00  0.00    +0.000 S 
BRANCH   4   9
ATOM      6  N   UNL     1       7.332   5.648  17.277  0.00  0.00    +0.000 NA
ATOM      7  C   UNL     1       7.136   5.178  18.666  0.00  0.00    +0.000 C 
ATOM      8  C   UNL     1       5.673   5.138  19.144  0.00  0.00    +0.000 C 
ATOM      9  N   UNL     1       4.810   4.373  18.220  0.00  0.00    +0.000 N 
ATOM     10  C   UNL     1       4.967   4.807  16.815  0.00  0.00    +0.000 C 
ATOM     11  C   UNL     1       6.452   4.852  16.390  0.00  0.00    +0.000 C 
BRANCH   6  12
ATOM     12  C   UNL     1       7.073   7.083  17.101  0.00  0.00    +0.000 C 
BRANCH  12  14
ATOM     13  C   UNL     1       7.961   9.243  18.019  0.00  0.00    +0.000 C 
ATOM     14  C   UNL     1       8.138   7.954  17.701  0.00  0.00    +0.000 C 
ENDBRANCH  12  14
ENDBRANCH   6  12
ENDBRANCH   4   9
ENDBRANCH   3   4
ENDBRANCH   2   3
ENDBRANCH   1   2
BRANCH   1  15
ATOM     15  C   UNL     1       1.620   8.001  20.253  0.00  0.00    +0.000 C 
BRANCH  15  16
ATOM     16  S   UNL     1       0.531   8.877  21.419  0.00  0.00    +0.000 S 
BRANCH  16  17
ATOM     17  C   UNL     1       0.039  10.274  20.457  0.00  0.00    +0.000 C 
ATOM     18  S   UNL     1       0.496  10.356  18.836  0.00  0.00    +0.000 S 
BRANCH  17  19
ATOM     19  N   UNL     1      -0.825  11.176  21.102  0.00  0.00    +0.000 N 
ATOM     20  C   UNL     1      -0.943  11.192  22.575  0.00  0.00    +0.000 C 
ATOM     21  C   UNL     1      -1.306  12.584  23.124  0.00  0.00    +0.000 C 
ATOM     22  N   UNL     1      -2.508  13.192  22.518  0.00  0.00    +0.000 NA
ATOM     23  C   UNL     1      -2.311  13.225  21.055  0.00  0.00    +0.000 C 
ATOM     24  C   UNL     1      -1.934  11.873  20.411  0.00  0.00    +0.000 C 
BRANCH  22  25
ATOM     25  C   UNL     1      -3.749  12.492  22.871  0.00  0.00    +0.000 C 
BRANCH  25  26
ATOM     26  C   UNL     1      -4.665  13.354  23.689  0.00  0.00    +0.000 C 
ATOM     27  C   UNL     1      -5.950  13.068  23.941  0.00  0.00    +0.000 C 
ENDBRANCH  25  26
ENDBRANCH  22  25
ENDBRANCH  17  19
ENDBRANCH  16  17
ENDBRANCH  15  16
ENDBRANCH   1  15
TORSDOF 12
ENDMDL
MODEL 8
REMARK VINA RESULT:      -5.5      1.457      1.819
REMARK  Name = 
REMARK  12 active torsions:
REMARK  status: ('A' for Active; 'I' for Inactive)
REMARK    1  A    between atoms: C_2  and  C_3
REMARK    2  A    between atoms: C_3  and  N_4
REMARK    3  A    between atoms: N_7  and  C_8
REMARK    4  A    between atoms: C_8  and  S_10
REMARK    5  A    between atoms: S_10  and  C_11
REMARK    6  A    between atoms: C_11  and  C_12
REMARK    7  A    between atoms: C_12  and  C_13
REMARK    8  A    between atoms: C_13  and  S_14
REMARK    9  A    between atoms: S_14  and  C_15
REMARK   10  A    between atoms: C_15  and  N_17
REMARK   11  A    between atoms: N_20  and  C_21
REMARK   12  A    between atoms: C_21  and  C_22
REMARK                            x       y       z     vdW  Elec       q    Type
REMARK                         _______ _______ _______ _____ _____    ______ ____
ROOT
ATOM      1  C   UNL     1       1.951   5.402  20.601  0.00  0.00    +0.000 C 
ENDROOT
BRANCH   1   2
ATOM      2  C   UNL     1       1.982   6.752  19.870  0.00  0.00    +0.000 C 
BRANCH   2   3
ATOM      3  S   UNL     1       1.227   8.076  20.867  0.00  0.00    +0.000 S 
BRANCH   3   4
ATOM      4  C   UNL     1       1.171   9.355  19.651  0.00  0.00    +0.000 C 
ATOM      5  S   UNL     1       1.714   8.974  18.103  0.00  0.00    +0.000 S 
BRANCH   4   9
ATOM      6  N   UNL     1       0.064  13.138  21.505  0.00  0.00    +0.000 NA
ATOM      7  C   UNL     1      -0.424  11.813  21.949  0.00  0.00    +0.000 C 
ATOM      8  C   UNL     1      -0.555  10.757  20.835  0.00  0.00    +0.000 C 
ATOM      9  N   UNL     1       0.698  10.608  20.066  0.00  0.00    +0.000 N 
ATOM     10  C   UNL     1       1.228  11.907  19.597  0.00  0.00    +0.000 C 
ATOM     11  C   UNL     1       1.319  12.938  20.744  0.00  0.00    +0.000 C 
BRANCH   6  12
ATOM     12  C   UNL     1      -0.911  13.884  20.698  0.00  0.00    +0.000 C 
BRANCH  12  14
ATOM     13  C   UNL     1      -2.958  15.178  21.355  0.00  0.00    +0.000 C 
ATOM     14  C   UNL     1      -2.238  14.048  21.379  0.00  0.00    +0.000 C 
ENDBRANCH  12  14
ENDBRANCH   6  12
ENDBRANCH   4   9
ENDBRANCH   3   4
ENDBRANCH   2   3
ENDBRANCH   1   2
BRANCH   1  15
ATOM     15  C   UNL     1       1.114   4.299  19.940  0.00  0.00    +0.000 C 
BRANCH  15  16
ATOM     16  S   UNL     1       1.551   4.108  18.184  0.00  0.00    +0.000 S 
BRANCH  16  17
ATOM     17  C   UNL     1       3.247   3.626  18.294  0.00  0.00    +0.000 C 
ATOM     18  S   UNL     1       3.630   2.122  18.953  0.00  0.00    +0.000 S 
BRANCH  17  19
ATOM     19  N   UNL     1       4.164   4.505  17.694  0.00  0.00    +0.000 N 
ATOM     20  C   UNL     1       5.051   4.050  16.604  0.00  0.00    +0.000 C 
ATOM     21  C   UNL     1       5.423   5.183  15.630  0.00  0.00    +0.000 C 
ATOM     22  N   UNL     1       5.994   6.385  16.272  0.00  0.00    +0.000 NA
ATOM     23  C   UNL     1       5.039   6.848  17.298  0.00  0.00    +0.000 C 
ATOM     24  C   UNL     1       4.597   5.776  18.319  0.00  0.00    +0.000 C 
BRANCH  22  25
ATOM     25  C   UNL     1       7.323   6.154  16.850  0.00  0.00    +0.000 C 
BRANCH  25  26
ATOM     26  C   UNL     1       7.655   7.161  17.913  0.00  0.00    +0.000 C 
ATOM     27  C   UNL     1       8.063   8.414  17.668  0.00  0.00    +0.000 C 
ENDBRANCH  25  26
ENDBRANCH  22  25
ENDBRANCH  17  19
ENDBRANCH  16  17
ENDBRANCH  15  16
ENDBRANCH   1  15
TORSDOF 12
ENDMDL
MODEL 9
REMARK VINA RESULT:      -5.4      5.117      7.443
REMARK  Name = 
REMARK  12 active torsions:
REMARK  status: ('A' for Active; 'I' for Inactive)
REMARK    1  A    between atoms: C_2  and  C_3
REMARK    2  A    between atoms: C_3  and  N_4
REMARK    3  A    between atoms: N_7  and  C_8
REMARK    4  A    between atoms: C_8  and  S_10
REMARK    5  A    between atoms: S_10  and  C_11
REMARK    6  A    between atoms: C_11  and  C_12
REMARK    7  A    between atoms: C_12  and  C_13
REMARK    8  A    between atoms: C_13  and  S_14
REMARK    9  A    between atoms: S_14  and  C_15
REMARK   10  A    between atoms: C_15  and  N_17
REMARK   11  A    between atoms: N_20  and  C_21
REMARK   12  A    between atoms: C_21  and  C_22
REMARK                            x       y       z     vdW  Elec       q    Type
REMARK                         _______ _______ _______ _____ _____    ______ ____
ROOT
ATOM      1  C   UNL     1       7.804   8.905  18.197  0.00  0.00    +0.000 C 
ENDROOT
BRANCH   1   2
ATOM      2  C   UNL     1       8.966   9.861  17.889  0.00  0.00    +0.000 C 
BRANCH   2   3
ATOM      3  S   UNL     1       9.448  10.829  19.355  0.00  0.00    +0.000 S 
BRANCH   3   4
ATOM      4  C   UNL     1       9.744  12.389  18.584  0.00  0.00    +0.000 C 
ATOM      5  S   UNL     1      11.114  12.524  17.613  0.00  0.00    +0.000 S 
BRANCH   4   9
ATOM      6  N   UNL     1       7.419  16.001  19.305  0.00  0.00    +0.000 NA
ATOM      7  C   UNL     1       8.457  15.477  20.220  0.00  0.00    +0.000 C 
ATOM      8  C   UNL     1       8.621  13.946  20.215  0.00  0.00    +0.000 C 
ATOM      9  N   UNL     1       8.828  13.416  18.851  0.00  0.00    +0.000 N 
ATOM     10  C   UNL     1       7.813  13.910  17.896  0.00  0.00    +0.000 C 
ATOM     11  C   UNL     1       7.670  15.448  17.954  0.00  0.00    +0.000 C 
BRANCH   6  12
ATOM     12  C   UNL     1       6.048  15.698  19.736  0.00  0.00    +0.000 C 
BRANCH  12  14
ATOM     13  C   UNL     1       5.794  18.069  20.517  0.00  0.00    +0.000 C 
ATOM     14  C   UNL     1       5.253  16.923  20.081  0.00  0.00    +0.000 C 
ENDBRANCH  12  14
ENDBRANCH   6  12
ENDBRANCH   4   9
ENDBRANCH   3   4
ENDBRANCH   2   3
ENDBRANCH   1   2
BRANCH   1  15
ATOM     15  C   UNL     1       7.691   7.671  17.293  0.00  0.00    +0.000 C 
BRANCH  15  16
ATOM     16  S   UNL     1       7.474   6.156  18.277  0.00  0.00    +0.000 S 
BRANCH  16  17
ATOM     17  C   UNL     1       6.429   5.198  17.222  0.00  0.00    +0.000 C 
ATOM     18  S   UNL     1       7.017   4.695  15.724  0.00  0.00    +0.000 S 
BRANCH  17  19
ATOM     19  N   UNL     1       5.198   4.815  17.780  0.00  0.00    +0.000 N 
ATOM     20  C   UNL     1       4.960   4.913  19.235  0.00  0.00    +0.000 C 
ATOM     21  C   UNL     1       3.479   5.157  19.578  0.00  0.00    +0.000 C 
ATOM     22  N   UNL     1       2.540   4.184  18.982  0.00  0.00    +0.000 NA
ATOM     23  C   UNL     1       2.761   4.178  17.522  0.00  0.00    +0.000 C 
ATOM     24  C   UNL     1       4.223   3.950  17.078  0.00  0.00    +0.000 C 
BRANCH  22  25
ATOM     25  C   UNL     1       2.672   2.835  19.544  0.00  0.00    +0.000 C 
BRANCH  25  26
ATOM     26  C   UNL     1       1.523   2.489  20.445  0.00  0.00    +0.000 C 
ATOM     27  C   UNL     1       1.484   2.750  21.759  0.00  0.00    +0.000 C 
ENDBRANCH  25  26
ENDBRANCH  22  25
ENDBRANCH  17  19
ENDBRANCH  16  17
ENDBRANCH  15  16
ENDBRANCH   1  15
TORSDOF 12
ENDMDL
