MODEL 1
REMARK VINA RESULT:      -7.1      0.000      0.000
REMARK  Name = 
REMARK  1 active torsions:
REMARK  status: ('A' for Active; 'I' for Inactive)
REMARK    1  A    between atoms: C_5  and  N_6
REMARK                            x       y       z     vdW  Elec       q    Type
REMARK                         _______ _______ _______ _____ _____    ______ ____
ROOT
ATOM      1  N   UNL     1       5.099   4.406  16.684  0.00  0.00    +0.000 N 
ATOM      2  C   UNL     1       5.091   3.695  15.602  0.00  0.00    +0.000 C 
ATOM      3  C   UNL     1       5.934   4.042  14.448  0.00  0.00    +0.000 A 
ATOM      4  C   UNL     1       5.703   3.447  13.209  0.00  0.00    +0.000 A 
ATOM      5  C   UNL     1       6.512   3.799  12.130  0.00  0.00    +0.000 A 
ATOM      6  C   UNL     1       7.546   4.723  12.300  0.00  0.00    +0.000 A 
ATOM      7  C   UNL     1       7.781   5.305  13.548  0.00  0.00    +0.000 A 
ATOM      8  C   UNL     1       6.963   4.978  14.630  0.00  0.00    +0.000 A 
ATOM      9  C   UNL     1       7.202   5.539  16.004  0.00  0.00    +0.000 C 
ATOM     10  C   UNL     1       5.891   5.678  16.778  0.00  0.00    +0.000 C 
ENDROOT
BRANCH   1  15
ATOM     11 BR   UNL     1       1.567   2.762  21.418  0.00  0.00    +0.000 Br
ATOM     12  C   UNL     1       2.652   3.271  19.959  0.00  0.00    +0.000 A 
ATOM     13  C   UNL     1       3.177   4.558  19.903  0.00  0.00    +0.000 A 
ATOM     14  C   UNL     1       3.986   4.938  18.824  0.00  0.00    +0.000 A 
ATOM     15  C   UNL     1       4.276   4.027  17.792  0.00  0.00    +0.000 A 
ATOM     16  C   UNL     1       3.728   2.735  17.860  0.00  0.00    +0.000 A 
ATOM     17  C   UNL     1       2.921   2.360  18.942  0.00  0.00    +0.000 A 
ENDBRANCH   1  15
TORSDOF 1
ENDMDL
MODEL 2
REMARK VINA RESULT:      -7.0      0.040      1.172
REMARK  Name = 
REMARK  1 active torsions:
REMARK  status: ('A' for Active; 'I' for Inactive)
REMARK    1  A    between atoms: C_5  and  N_6
REMARK                            x       y       z     vdW  Elec       q    Type
REMARK                         _______ _______ _______ _____ _____    ______ ____
ROOT
ATOM      1  N   UNL     1       5.085   4.410  16.707  0.00  0.00    +0.000 N 
ATOM      2  C   UNL     1       5.067   3.712  15.615  0.00  0.00    +0.000 C 
ATOM      3  C   UNL     1       5.914   4.062  14.466  0.00  0.00    +0.000 A 
ATOM      4  C   UNL     1       5.675   3.486  13.220  0.00  0.00    +0.000 A 
ATOM      5  C   UNL     1       6.489   3.840  12.145  0.00  0.00    +0.000 A 
ATOM      6  C   UNL     1       7.536   4.747  12.326  0.00  0.00    +0.000 A 
ATOM      7  C   UNL     1       7.779   5.310  13.581  0.00  0.00    +0.000 A 
ATOM      8  C   UNL     1       6.956   4.981  14.659  0.00  0.00    +0.000 A 
ATOM      9  C   UNL     1       7.203   5.522  16.040  0.00  0.00    +0.000 C 
ATOM     10  C   UNL     1       5.894   5.670  16.816  0.00  0.00    +0.000 C 
ENDROOT
BRANCH   1  15
ATOM     11 BR   UNL     1       1.540   2.801  21.443  0.00  0.00    +0.000 Br
ATOM     12  C   UNL     1       2.635   3.293  19.985  0.00  0.00    +0.000 A 
ATOM     13  C   UNL     1       2.927   2.362  18.993  0.00  0.00    +0.000 A 
ATOM     14  C   UNL     1       3.736   2.726  17.909  0.00  0.00    +0.000 A 
ATOM     15  C   UNL     1       4.256   4.029  17.810  0.00  0.00    +0.000 A 
ATOM     16  C   UNL     1       3.959   4.953  18.826  0.00  0.00    +0.000 A 
ATOM     17  C   UNL     1       3.149   4.585  19.908  0.00  0.00    +0.000 A 
ENDBRANCH   1  15
TORSDOF 1
ENDMDL
MODEL 3
REMARK VINA RESULT:      -7.0      4.179      5.703
REMARK  Name = 
REMARK  1 active torsions:
REMARK  status: ('A' for Active; 'I' for Inactive)
REMARK    1  A    between atoms: C_5  and  N_6
REMARK                            x       y       z     vdW  Elec       q    Type
REMARK                         _______ _______ _______ _____ _____    ______ ____
ROOT
ATOM      1  N   UNL     1       2.404   7.120  19.101  0.00  0.00    +0.000 N 
ATOM      2  C   UNL     1       3.123   7.391  18.058  0.00  0.00    +0.000 C 
ATOM      3  C   UNL     1       3.852   6.339  17.334  0.00  0.00    +0.000 A 
ATOM      4  C   UNL     1       4.834   6.682  16.407  0.00  0.00    +0.000 A 
ATOM      5  C   UNL     1       5.516   5.666  15.739  0.00  0.00    +0.000 A 
ATOM      6  C   UNL     1       5.202   4.328  15.990  0.00  0.00    +0.000 A 
ATOM      7  C   UNL     1       4.208   3.992  16.910  0.00  0.00    +0.000 A 
ATOM      8  C   UNL     1       3.535   5.000  17.602  0.00  0.00    +0.000 A 
ATOM      9  C   UNL     1       2.424   4.694  18.567  0.00  0.00    +0.000 C 
ATOM     10  C   UNL     1       2.362   5.737  19.684  0.00  0.00    +0.000 C 
ENDROOT
BRANCH   1  15
ATOM     11 BR   UNL     1      -0.629  11.596  21.990  0.00  0.00    +0.000 Br
ATOM     12  C   UNL     1       0.302  10.217  21.098  0.00  0.00    +0.000 A 
ATOM     13  C   UNL     1       0.609  10.351  19.748  0.00  0.00    +0.000 A 
ATOM     14  C   UNL     1       1.303   9.330  19.084  0.00  0.00    +0.000 A 
ATOM     15  C   UNL     1       1.696   8.168  19.771  0.00  0.00    +0.000 A 
ATOM     16  C   UNL     1       1.368   8.046  21.132  0.00  0.00    +0.000 A 
ATOM     17  C   UNL     1       0.675   9.070  21.792  0.00  0.00    +0.000 A 
ENDBRANCH   1  15
TORSDOF 1
ENDMDL
MODEL 4
REMARK VINA RESULT:      -6.9      4.017      5.505
REMARK  Name = 
REMARK  1 active torsions:
REMARK  status: ('A' for Active; 'I' for Inactive)
REMARK    1  A    between atoms: C_5  and  N_6
REMARK                            x       y       z     vdW  Elec       q    Type
REMARK                         _______ _______ _______ _____ _____    ______ ____
ROOT
ATOM      1  N   UNL     1       2.554   6.958  18.966  0.00  0.00    +0.000 N 
ATOM      2  C   UNL     1       3.303   7.252  17.951  0.00  0.00    +0.000 C 
ATOM      3  C   UNL     1       4.043   6.216  17.217  0.00  0.00    +0.000 A 
ATOM      4  C   UNL     1       5.053   6.578  16.326  0.00  0.00    +0.000 A 
ATOM      5  C   UNL     1       5.744   5.575  15.648  0.00  0.00    +0.000 A 
ATOM      6  C   UNL     1       5.414   4.233  15.851  0.00  0.00    +0.000 A 
ATOM      7  C   UNL     1       4.392   3.879  16.734  0.00  0.00    +0.000 A 
ATOM      8  C   UNL     1       3.708   4.873  17.437  0.00  0.00    +0.000 A 
ATOM      9  C   UNL     1       2.569   4.548  18.363  0.00  0.00    +0.000 C 
ATOM     10  C   UNL     1       2.485   5.559  19.507  0.00  0.00    +0.000 C 
ENDROOT
BRANCH   1  15
ATOM     11 BR   UNL     1      -0.518  11.404  21.861  0.00  0.00    +0.000 Br
ATOM     12  C   UNL     1       0.431  10.035  20.973  0.00  0.00    +0.000 A 
ATOM     13  C   UNL     1       0.809   8.890  21.668  0.00  0.00    +0.000 A 
ATOM     14  C   UNL     1       1.510   7.872  21.010  0.00  0.00    +0.000 A 
ATOM     15  C   UNL     1       1.836   7.992  19.647  0.00  0.00    +0.000 A 
ATOM     16  C   UNL     1       1.455   9.160  18.964  0.00  0.00    +0.000 A 
ATOM     17  C   UNL     1       0.754  10.176  19.626  0.00  0.00    +0.000 A 
ENDBRANCH   1  15
TORSDOF 1
ENDMDL
MODEL 5
REMARK VINA RESULT:      -6.8      4.912      8.256
REMARK  Name = 
REMARK  1 active torsions:
REMARK  status: ('A' for Active; 'I' for Inactive)
REMARK    1  A    between atoms: C_5  and  N_6
REMARK                            x       y       z     vdW  Elec       q    Type
REMARK                         _______ _______ _______ _____ _____    ______ ____
ROOT
ATOM      1  N   UNL     1       2.178   8.061  18.775  0.00  0.00    +0.000 N 
ATOM      2  C   UNL     1       1.836   7.881  20.011  0.00  0.00    +0.000 C 
ATOM      3  C   UNL     1       0.999   8.854  20.726  0.00  0.00    +0.000 A 
ATOM      4  C   UNL     1       0.883   8.790  22.114  0.00  0.00    +0.000 A 
ATOM      5  C   UNL     1       0.087   9.730  22.768  0.00  0.00    +0.000 A 
ATOM      6  C   UNL     1      -0.592  10.707  22.036  0.00  0.00    +0.000 A 
ATOM      7  C   UNL     1      -0.483  10.756  20.645  0.00  0.00    +0.000 A 
ATOM      8  C   UNL     1       0.329   9.835  19.981  0.00  0.00    +0.000 A 
ATOM      9  C   UNL     1       0.444   9.815  18.482  0.00  0.00    +0.000 C 
ATOM     10  C   UNL     1       1.823   9.322  18.042  0.00  0.00    +0.000 C 
ENDROOT
BRANCH   1  15
ATOM     11 BR   UNL     1       5.636   3.891  15.905  0.00  0.00    +0.000 Br
ATOM     12  C   UNL     1       4.568   5.174  16.787  0.00  0.00    +0.000 A 
ATOM     13  C   UNL     1       3.481   4.762  17.552  0.00  0.00    +0.000 A 
ATOM     14  C   UNL     1       2.688   5.712  18.210  0.00  0.00    +0.000 A 
ATOM     15  C   UNL     1       2.982   7.083  18.108  0.00  0.00    +0.000 A 
ATOM     16  C   UNL     1       4.078   7.481  17.323  0.00  0.00    +0.000 A 
ATOM     17  C   UNL     1       4.868   6.527  16.667  0.00  0.00    +0.000 A 
ENDBRANCH   1  15
TORSDOF 1
ENDMDL
MODEL 6
REMARK VINA RESULT:      -6.8      4.917      8.213
REMARK  Name = 
REMARK  1 active torsions:
REMARK  status: ('A' for Active; 'I' for Inactive)
REMARK    1  A    between atoms: C_5  and  N_6
REMARK                            x       y       z     vdW  Elec       q    Type
REMARK                         _______ _______ _______ _____ _____    ______ ____
ROOT
ATOM      1  N   UNL     1       2.171   8.073  18.767  0.00  0.00    +0.000 N 
ATOM      2  C   UNL     1       1.837   7.891  20.005  0.00  0.00    +0.000 C 
ATOM      3  C   UNL     1       0.996   8.859  20.724  0.00  0.00    +0.000 A 
ATOM      4  C   UNL     1       0.888   8.796  22.112  0.00  0.00    +0.000 A 
ATOM      5  C   UNL     1       0.089   9.730  22.770  0.00  0.00    +0.000 A 
ATOM      6  C   UNL     1      -0.603  10.700  22.040  0.00  0.00    +0.000 A 
ATOM      7  C   UNL     1      -0.501  10.749  20.649  0.00  0.00    +0.000 A 
ATOM      8  C   UNL     1       0.314   9.834  19.981  0.00  0.00    +0.000 A 
ATOM      9  C   UNL     1       0.421   9.812  18.481  0.00  0.00    +0.000 C 
ATOM     10  C   UNL     1       1.802   9.330  18.034  0.00  0.00    +0.000 C 
ENDROOT
BRANCH   1  15
ATOM     11 BR   UNL     1       5.621   3.890  15.906  0.00  0.00    +0.000 Br
ATOM     12  C   UNL     1       4.562   5.180  16.789  0.00  0.00    +0.000 A 
ATOM     13  C   UNL     1       4.873   6.531  16.670  0.00  0.00    +0.000 A 
ATOM     14  C   UNL     1       4.087   7.490  17.322  0.00  0.00    +0.000 A 
ATOM     15  C   UNL     1       2.979   7.101  18.096  0.00  0.00    +0.000 A 
ATOM     16  C   UNL     1       2.686   5.732  18.213  0.00  0.00    +0.000 A 
ATOM     17  C   UNL     1       3.475   4.776  17.559  0.00  0.00    +0.000 A 
ENDBRANCH   1  15
TORSDOF 1
ENDMDL
MODEL 7
REMARK VINA RESULT:      -6.7      2.935      6.796
REMARK  Name = 
REMARK  1 active torsions:
REMARK  status: ('A' for Active; 'I' for Inactive)
REMARK    1  A    between atoms: C_5  and  N_6
REMARK                            x       y       z     vdW  Elec       q    Type
REMARK                         _______ _______ _______ _____ _____    ______ ____
ROOT
ATOM      1  N   UNL     1       4.131   4.576  17.586  0.00  0.00    +0.000 N 
ATOM      2  C   UNL     1       4.240   3.583  18.411  0.00  0.00    +0.000 C 
ATOM      3  C   UNL     1       3.292   3.397  19.518  0.00  0.00    +0.000 A 
ATOM      4  C   UNL     1       3.587   2.507  20.549  0.00  0.00    +0.000 A 
ATOM      5  C   UNL     1       2.673   2.354  21.591  0.00  0.00    +0.000 A 
ATOM      6  C   UNL     1       1.475   3.073  21.586  0.00  0.00    +0.000 A 
ATOM      7  C   UNL     1       1.180   3.953  20.542  0.00  0.00    +0.000 A 
ATOM      8  C   UNL     1       2.097   4.132  19.506  0.00  0.00    +0.000 A 
ATOM      9  C   UNL     1       1.807   5.030  18.336  0.00  0.00    +0.000 C 
ATOM     10  C   UNL     1       3.093   5.643  17.780  0.00  0.00    +0.000 C 
ENDROOT
BRANCH   1  15
ATOM     11 BR   UNL     1       8.119   5.158  12.966  0.00  0.00    +0.000 Br
ATOM     12  C   UNL     1       6.894   4.977  14.391  0.00  0.00    +0.000 A 
ATOM     13  C   UNL     1       7.203   5.504  15.641  0.00  0.00    +0.000 A 
ATOM     14  C   UNL     1       6.294   5.373  16.699  0.00  0.00    +0.000 A 
ATOM     15  C   UNL     1       5.065   4.715  16.511  0.00  0.00    +0.000 A 
ATOM     16  C   UNL     1       4.775   4.181  15.244  0.00  0.00    +0.000 A 
ATOM     17  C   UNL     1       5.687   4.314  14.188  0.00  0.00    +0.000 A 
ENDBRANCH   1  15
TORSDOF 1
ENDMDL
MODEL 8
REMARK VINA RESULT:      -6.7      2.966      6.604
REMARK  Name = 
REMARK  1 active torsions:
REMARK  status: ('A' for Active; 'I' for Inactive)
REMARK    1  A    between atoms: C_5  and  N_6
REMARK                            x       y       z     vdW  Elec       q    Type
REMARK                         _______ _______ _______ _____ _____    ______ ____
ROOT
ATOM      1  N   UNL     1       4.606   4.271  17.514  0.00  0.00    +0.000 N 
ATOM      2  C   UNL     1       3.428   3.743  17.404  0.00  0.00    +0.000 C 
ATOM      3  C   UNL     1       2.568   3.532  18.577  0.00  0.00    +0.000 A 
ATOM      4  C   UNL     1       1.444   2.714  18.481  0.00  0.00    +0.000 A 
ATOM      5  C   UNL     1       0.649   2.525  19.611  0.00  0.00    +0.000 A 
ATOM      6  C   UNL     1       0.973   3.162  20.812  0.00  0.00    +0.000 A 
ATOM      7  C   UNL     1       2.093   3.991  20.897  0.00  0.00    +0.000 A 
ATOM      8  C   UNL     1       2.909   4.169  19.779  0.00  0.00    +0.000 A 
ATOM      9  C   UNL     1       4.099   5.089  19.804  0.00  0.00    +0.000 C 
ATOM     10  C   UNL     1       5.194   4.597  18.856  0.00  0.00    +0.000 C 
ENDROOT
BRANCH   1  15
ATOM     11 BR   UNL     1       8.025   5.131  12.499  0.00  0.00    +0.000 Br
ATOM     12  C   UNL     1       6.975   4.864  14.045  0.00  0.00    +0.000 A 
ATOM     13  C   UNL     1       7.471   5.234  15.291  0.00  0.00    +0.000 A 
ATOM     14  C   UNL     1       6.693   5.040  16.440  0.00  0.00    +0.000 A 
ATOM     15  C   UNL     1       5.408   4.475  16.347  0.00  0.00    +0.000 A 
ATOM     16  C   UNL     1       4.928   4.098  15.081  0.00  0.00    +0.000 A 
ATOM     17  C   UNL     1       5.710   4.294  13.935  0.00  0.00    +0.000 A 
ENDBRANCH   1  15
TORSDOF 1
ENDMDL
MODEL 9
REMARK VINA RESULT:      -6.7      2.930      6.877
REMARK  Name = 
REMARK  1 active torsions:
REMARK  status: ('A' for Active; 'I' for Inactive)
REMARK    1  A    between atoms: C_5  and  N_6
REMARK                            x       y       z     vdW  Elec       q    Type
REMARK                         _______ _______ _______ _____ _____    ______ ____
ROOT
ATOM      1  N   UNL     1       4.134   4.607  17.588  0.00  0.00    +0.000 N 
ATOM      2  C   UNL     1       4.226   3.600  18.398  0.00  0.00    +0.000 C 
ATOM      3  C   UNL     1       3.278   3.417  19.507  0.00  0.00    +0.000 A 
ATOM      4  C   UNL     1       3.560   2.506  20.523  0.00  0.00    +0.000 A 
ATOM      5  C   UNL     1       2.647   2.357  21.567  0.00  0.00    +0.000 A 
ATOM      6  C   UNL     1       1.465   3.101  21.578  0.00  0.00    +0.000 A 
ATOM      7  C   UNL     1       1.183   4.001  20.549  0.00  0.00    +0.000 A 
ATOM      8  C   UNL     1       2.100   4.177  19.511  0.00  0.00    +0.000 A 
ATOM      9  C   UNL     1       1.823   5.098  18.355  0.00  0.00    +0.000 C 
ATOM     10  C   UNL     1       3.119   5.693  17.803  0.00  0.00    +0.000 C 
ENDROOT
BRANCH   1  15
ATOM     11 BR   UNL     1       8.139   5.210  12.986  0.00  0.00    +0.000 Br
ATOM     12  C   UNL     1       6.902   5.026  14.401  0.00  0.00    +0.000 A 
ATOM     13  C   UNL     1       5.850   4.123  14.287  0.00  0.00    +0.000 A 
ATOM     14  C   UNL     1       4.932   3.981  15.337  0.00  0.00    +0.000 A 
ATOM     15  C   UNL     1       5.066   4.744  16.511  0.00  0.00    +0.000 A 
ATOM     16  C   UNL     1       6.129   5.657  16.604  0.00  0.00    +0.000 A 
ATOM     17  C   UNL     1       7.044   5.795  15.552  0.00  0.00    +0.000 A 
ENDBRANCH   1  15
TORSDOF 1
ENDMDL
