MODEL 1
REMARK VINA RESULT:      -8.0      0.000      0.000
REMARK  Name = 
REMARK  3 active torsions:
REMARK  status: ('A' for Active; 'I' for Inactive)
REMARK    1  A    between atoms: C_1  and  O_2
REMARK    2  A    between atoms: O_2  and  C_3
REMARK    3  A    between atoms: C_14  and  C_15
REMARK                            x       y       z     vdW  Elec       q    Type
REMARK                         _______ _______ _______ _____ _____    ______ ____
ROOT
ATOM      1  C   UNL     1      -1.928  13.079  21.946  0.00  0.00    +0.000 A 
ATOM      2  C   UNL     1      -1.914  12.250  23.067  0.00  0.00    +0.000 A 
ATOM      3  C   UNL     1      -1.219  11.046  23.027  0.00  0.00    +0.000 A 
ATOM      4  C   UNL     1      -0.545  10.672  21.860  0.00  0.00    +0.000 A 
ATOM      5  C   UNL     1      -0.567  11.463  20.721  0.00  0.00    +0.000 A 
ATOM      6  C   UNL     1      -1.277  12.675  20.774  0.00  0.00    +0.000 A 
ATOM      7  C   UNL     1       0.124  11.097  19.460  0.00  0.00    +0.000 C 
ATOM      8  O   UNL     1       0.039  11.855  18.498  0.00  0.00    +0.000 OA
ATOM      9  C   UNL     1       0.911   9.846  19.309  0.00  0.00    +0.000 A 
ATOM     10  C   UNL     1       1.550   9.594  18.083  0.00  0.00    +0.000 A 
ATOM     11  C   UNL     1       2.317   8.436  17.899  0.00  0.00    +0.000 A 
ATOM     12  C   UNL     1       2.438   7.504  18.930  0.00  0.00    +0.000 A 
ATOM     13  C   UNL     1       1.805   7.737  20.149  0.00  0.00    +0.000 A 
ATOM     14  C   UNL     1       1.060   8.909  20.323  0.00  0.00    +0.000 A 
ATOM     15  S   UNL     1       0.338   9.168  21.889  0.00  0.00    +0.000 S 
ATOM     16  O   UNL     1       1.429   9.351  22.821  0.00  0.00    +0.000 OA
ATOM     17  O   UNL     1      -0.646   8.117  22.057  0.00  0.00    +0.000 OA
ENDROOT
BRANCH  12  18
ATOM     18  C   UNL     1       3.266   6.291  18.763  0.00  0.00    +0.000 C 
ATOM     19  N   UNL     1       3.591   5.848  17.577  0.00  0.00    +0.000 NA
ATOM     20  C   UNL     1       4.409   4.633  17.834  0.00  0.00    +0.000 C 
ATOM     21  C   UNL     1       4.456   4.428  19.351  0.00  0.00    +0.000 C 
ATOM     22  N   UNL     1       3.740   5.583  19.840  0.00  0.00    +0.000 N 
ATOM     23  H   UNL     1       3.082   5.417  20.594  0.00  0.00    +0.000 HD
ENDBRANCH  12  18
BRANCH   1  25
ATOM     24  C   UNL     1      -3.780  14.285  21.120  0.00  0.00    +0.000 C 
ATOM     25  O   UNL     1      -2.574  14.283  21.882  0.00  0.00    +0.000 OA
ENDBRANCH   1  25
TORSDOF 2
ENDMDL
MODEL 2
REMARK VINA RESULT:      -7.6      1.837      2.621
REMARK  Name = 
REMARK  3 active torsions:
REMARK  status: ('A' for Active; 'I' for Inactive)
REMARK    1  A    between atoms: C_1  and  O_2
REMARK    2  A    between atoms: O_2  and  C_3
REMARK    3  A    between atoms: C_14  and  C_15
REMARK                            x       y       z     vdW  Elec       q    Type
REMARK                         _______ _______ _______ _____ _____    ______ ____
ROOT
ATOM      1  C   UNL     1       0.155  13.255  19.717  0.00  0.00    +0.000 A 
ATOM      2  C   UNL     1      -0.267  12.979  21.017  0.00  0.00    +0.000 A 
ATOM      3  C   UNL     1      -0.084  11.707  21.548  0.00  0.00    +0.000 A 
ATOM      4  C   UNL     1       0.514  10.710  20.770  0.00  0.00    +0.000 A 
ATOM      5  C   UNL     1       0.916  10.948  19.463  0.00  0.00    +0.000 A 
ATOM      6  C   UNL     1       0.721  12.237  18.939  0.00  0.00    +0.000 A 
ATOM      7  C   UNL     1       1.543   9.915  18.601  0.00  0.00    +0.000 C 
ATOM      8  O   UNL     1       1.854  10.215  17.452  0.00  0.00    +0.000 OA
ATOM      9  C   UNL     1       1.804   8.530  19.068  0.00  0.00    +0.000 A 
ATOM     10  C   UNL     1       2.422   7.626  18.187  0.00  0.00    +0.000 A 
ATOM     11  C   UNL     1       2.704   6.314  18.588  0.00  0.00    +0.000 A 
ATOM     12  C   UNL     1       2.351   5.880  19.867  0.00  0.00    +0.000 A 
ATOM     13  C   UNL     1       1.732   6.762  20.748  0.00  0.00    +0.000 A 
ATOM     14  C   UNL     1       1.477   8.077  20.339  0.00  0.00    +0.000 A 
ATOM     15  S   UNL     1       0.749   9.147  21.507  0.00  0.00    +0.000 S 
ATOM     16  O   UNL     1       1.723   9.332  22.560  0.00  0.00    +0.000 OA
ATOM     17  O   UNL     1      -0.573   8.615  21.770  0.00  0.00    +0.000 OA
ENDROOT
BRANCH  12  18
ATOM     18  C   UNL     1       2.666   4.507  20.315  0.00  0.00    +0.000 C 
ATOM     19  N   UNL     1       2.043   3.962  21.325  0.00  0.00    +0.000 NA
ATOM     20  C   UNL     1       2.638   2.605  21.455  0.00  0.00    +0.000 C 
ATOM     21  C   UNL     1       3.732   2.484  20.391  0.00  0.00    +0.000 C 
ATOM     22  N   UNL     1       3.615   3.739  19.686  0.00  0.00    +0.000 N 
ATOM     23  H   UNL     1       4.486   4.204  19.450  0.00  0.00    +0.000 HD
ENDBRANCH  12  18
BRANCH   1  25
ATOM     24  C   UNL     1       1.232  15.226  18.993  0.00  0.00    +0.000 C 
ATOM     25  O   UNL     1       0.027  14.471  19.104  0.00  0.00    +0.000 OA
ENDBRANCH   1  25
TORSDOF 2
ENDMDL
MODEL 3
REMARK VINA RESULT:      -7.2      0.795      1.003
REMARK  Name = 
REMARK  3 active torsions:
REMARK  status: ('A' for Active; 'I' for Inactive)
REMARK    1  A    between atoms: C_1  and  O_2
REMARK    2  A    between atoms: O_2  and  C_3
REMARK    3  A    between atoms: C_14  and  C_15
REMARK                            x       y       z     vdW  Elec       q    Type
REMARK                         _______ _______ _______ _____ _____    ______ ____
ROOT
ATOM      1  C   UNL     1      -1.084  13.641  21.494  0.00  0.00    +0.000 A 
ATOM      2  C   UNL     1      -1.278  12.867  22.637  0.00  0.00    +0.000 A 
ATOM      3  C   UNL     1      -0.798  11.561  22.677  0.00  0.00    +0.000 A 
ATOM      4  C   UNL     1      -0.133  11.032  21.566  0.00  0.00    +0.000 A 
ATOM      5  C   UNL     1       0.047  11.769  20.406  0.00  0.00    +0.000 A 
ATOM      6  C   UNL     1      -0.446  13.085  20.377  0.00  0.00    +0.000 A 
ATOM      7  C   UNL     1       0.736  11.241  19.202  0.00  0.00    +0.000 C 
ATOM      8  O   UNL     1       0.837  11.964  18.214  0.00  0.00    +0.000 OA
ATOM      9  C   UNL     1       1.304   9.870  19.139  0.00  0.00    +0.000 A 
ATOM     10  C   UNL     1       1.959   9.465  17.963  0.00  0.00    +0.000 A 
ATOM     11  C   UNL     1       2.525   8.188  17.862  0.00  0.00    +0.000 A 
ATOM     12  C   UNL     1       2.425   7.290  18.926  0.00  0.00    +0.000 A 
ATOM     13  C   UNL     1       1.774   7.675  20.095  0.00  0.00    +0.000 A 
ATOM     14  C   UNL     1       1.232   8.963  20.187  0.00  0.00    +0.000 A 
ATOM     15  S   UNL     1       0.476   9.403  21.696  0.00  0.00    +0.000 S 
ATOM     16  O   UNL     1       1.527   9.435  22.689  0.00  0.00    +0.000 OA
ATOM     17  O   UNL     1      -0.681   8.542  21.832  0.00  0.00    +0.000 OA
ENDROOT
BRANCH  12  18
ATOM     18  C   UNL     1       3.041   5.948  18.847  0.00  0.00    +0.000 C 
ATOM     19  N   UNL     1       4.156   5.674  19.470  0.00  0.00    +0.000 NA
ATOM     20  C   UNL     1       4.436   4.250  19.143  0.00  0.00    +0.000 C 
ATOM     21  C   UNL     1       3.331   3.774  18.197  0.00  0.00    +0.000 C 
ATOM     22  N   UNL     1       2.465   4.929  18.129  0.00  0.00    +0.000 N 
ATOM     23  H   UNL     1       2.110   5.170  17.210  0.00  0.00    +0.000 HD
ENDBRANCH  12  18
BRANCH   1  25
ATOM     24  C   UNL     1      -2.891  15.087  21.032  0.00  0.00    +0.000 C 
ATOM     25  O   UNL     1      -1.510  14.933  21.353  0.00  0.00    +0.000 OA
ENDBRANCH   1  25
TORSDOF 2
ENDMDL
MODEL 4
REMARK VINA RESULT:      -6.9      1.628      2.121
REMARK  Name = 
REMARK  3 active torsions:
REMARK  status: ('A' for Active; 'I' for Inactive)
REMARK    1  A    between atoms: C_1  and  O_2
REMARK    2  A    between atoms: O_2  and  C_3
REMARK    3  A    between atoms: C_14  and  C_15
REMARK                            x       y       z     vdW  Elec       q    Type
REMARK                         _______ _______ _______ _____ _____    ______ ____
ROOT
ATOM      1  C   UNL     1      -0.045  13.144  20.364  0.00  0.00    +0.000 A 
ATOM      2  C   UNL     1      -0.467  12.595  21.573  0.00  0.00    +0.000 A 
ATOM      3  C   UNL     1      -0.205  11.258  21.855  0.00  0.00    +0.000 A 
ATOM      4  C   UNL     1       0.474  10.472  20.917  0.00  0.00    +0.000 A 
ATOM      5  C   UNL     1       0.878  10.984  19.693  0.00  0.00    +0.000 A 
ATOM      6  C   UNL     1       0.602  12.335  19.421  0.00  0.00    +0.000 A 
ATOM      7  C   UNL     1       1.589  10.181  18.667  0.00  0.00    +0.000 C 
ATOM      8  O   UNL     1       1.897  10.718  17.606  0.00  0.00    +0.000 OA
ATOM      9  C   UNL     1       1.938   8.751  18.866  0.00  0.00    +0.000 A 
ATOM     10  C   UNL     1       2.631   8.078  17.846  0.00  0.00    +0.000 A 
ATOM     11  C   UNL     1       2.997   6.734  17.995  0.00  0.00    +0.000 A 
ATOM     12  C   UNL     1       2.655   6.038  19.156  0.00  0.00    +0.000 A 
ATOM     13  C   UNL     1       1.962   6.691  20.172  0.00  0.00    +0.000 A 
ATOM     14  C   UNL     1       1.623   8.040  20.016  0.00  0.00    +0.000 A 
ATOM     15  S   UNL     1       0.804   8.814  21.346  0.00  0.00    +0.000 S 
ATOM     16  O   UNL     1       1.747   8.855  22.443  0.00  0.00    +0.000 OA
ATOM     17  O   UNL     1      -0.482   8.157  21.464  0.00  0.00    +0.000 OA
ENDROOT
BRANCH  12  18
ATOM     18  C   UNL     1       3.057   4.628  19.341  0.00  0.00    +0.000 C 
ATOM     19  N   UNL     1       4.305   4.297  19.536  0.00  0.00    +0.000 NA
ATOM     20  C   UNL     1       4.291   2.815  19.671  0.00  0.00    +0.000 C 
ATOM     21  C   UNL     1       2.846   2.353  19.473  0.00  0.00    +0.000 C 
ATOM     22  N   UNL     1       2.140   3.606  19.329  0.00  0.00    +0.000 N 
ATOM     23  H   UNL     1       1.435   3.642  18.600  0.00  0.00    +0.000 HD
ENDBRANCH  12  18
BRANCH   1  25
ATOM     24  C   UNL     1      -0.056  14.717  18.605  0.00  0.00    +0.000 C 
ATOM     25  O   UNL     1      -0.247  14.445  19.992  0.00  0.00    +0.000 OA
ENDBRANCH   1  25
TORSDOF 2
ENDMDL
MODEL 5
REMARK VINA RESULT:      -6.8      1.523      2.939
REMARK  Name = 
REMARK  3 active torsions:
REMARK  status: ('A' for Active; 'I' for Inactive)
REMARK    1  A    between atoms: C_1  and  O_2
REMARK    2  A    between atoms: O_2  and  C_3
REMARK    3  A    between atoms: C_14  and  C_15
REMARK                            x       y       z     vdW  Elec       q    Type
REMARK                         _______ _______ _______ _____ _____    ______ ____
ROOT
ATOM      1  C   UNL     1      -1.496  12.525  21.700  0.00  0.00    +0.000 A 
ATOM      2  C   UNL     1      -1.327  13.064  20.425  0.00  0.00    +0.000 A 
ATOM      3  C   UNL     1      -0.596  12.364  19.470  0.00  0.00    +0.000 A 
ATOM      4  C   UNL     1      -0.029  11.128  19.798  0.00  0.00    +0.000 A 
ATOM      5  C   UNL     1      -0.156  10.583  21.067  0.00  0.00    +0.000 A 
ATOM      6  C   UNL     1      -0.893  11.302  22.023  0.00  0.00    +0.000 A 
ATOM      7  C   UNL     1       0.440   9.281  21.459  0.00  0.00    +0.000 C 
ATOM      8  O   UNL     1       0.286   8.883  22.610  0.00  0.00    +0.000 OA
ATOM      9  C   UNL     1       1.222   8.440  20.517  0.00  0.00    +0.000 A 
ATOM     10  C   UNL     1       1.730   7.211  20.972  0.00  0.00    +0.000 A 
ATOM     11  C   UNL     1       2.460   6.376  20.116  0.00  0.00    +0.000 A 
ATOM     12  C   UNL     1       2.711   6.768  18.800  0.00  0.00    +0.000 A 
ATOM     13  C   UNL     1       2.220   7.986  18.337  0.00  0.00    +0.000 A 
ATOM     14  C   UNL     1       1.474   8.799  19.199  0.00  0.00    +0.000 A 
ATOM     15  S   UNL     1       0.842  10.286  18.544  0.00  0.00    +0.000 S 
ATOM     16  O   UNL     1      -0.136   9.912  17.545  0.00  0.00    +0.000 OA
ATOM     17  O   UNL     1       1.993  11.105  18.222  0.00  0.00    +0.000 OA
ENDROOT
BRANCH  12  18
ATOM     18  C   UNL     1       3.455   5.887  17.875  0.00  0.00    +0.000 C 
ATOM     19  N   UNL     1       3.165   4.618  17.763  0.00  0.00    +0.000 NA
ATOM     20  C   UNL     1       4.123   4.094  16.754  0.00  0.00    +0.000 C 
ATOM     21  C   UNL     1       5.036   5.254  16.347  0.00  0.00    +0.000 C 
ATOM     22  N   UNL     1       4.474   6.361  17.085  0.00  0.00    +0.000 N 
ATOM     23  H   UNL     1       5.137   6.985  17.533  0.00  0.00    +0.000 HD
ENDBRANCH  12  18
BRANCH   1  25
ATOM     24  C   UNL     1      -3.061  12.264  23.446  0.00  0.00    +0.000 C 
ATOM     25  O   UNL     1      -2.198  13.126  22.708  0.00  0.00    +0.000 OA
ENDBRANCH   1  25
TORSDOF 2
ENDMDL
MODEL 6
REMARK VINA RESULT:      -6.8      3.727      8.073
REMARK  Name = 
REMARK  3 active torsions:
REMARK  status: ('A' for Active; 'I' for Inactive)
REMARK    1  A    between atoms: C_1  and  O_2
REMARK    2  A    between atoms: O_2  and  C_3
REMARK    3  A    between atoms: C_14  and  C_15
REMARK                            x       y       z     vdW  Elec       q    Type
REMARK                         _______ _______ _______ _____ _____    ______ ____
ROOT
ATOM      1  C   UNL     1       2.551   7.381  18.964  0.00  0.00    +0.000 A 
ATOM      2  C   UNL     1       2.361   8.122  17.799  0.00  0.00    +0.000 A 
ATOM      3  C   UNL     1       1.555   9.256  17.825  0.00  0.00    +0.000 A 
ATOM      4  C   UNL     1       0.936   9.639  19.020  0.00  0.00    +0.000 A 
ATOM      5  C   UNL     1       1.084   8.903  20.186  0.00  0.00    +0.000 A 
ATOM      6  C   UNL     1       1.897   7.758  20.143  0.00  0.00    +0.000 A 
ATOM      7  C   UNL     1       0.435   9.269  21.469  0.00  0.00    +0.000 C 
ATOM      8  O   UNL     1       0.614   8.549  22.448  0.00  0.00    +0.000 OA
ATOM      9  C   UNL     1      -0.429  10.468  21.619  0.00  0.00    +0.000 A 
ATOM     10  C   UNL     1      -0.984  10.746  22.880  0.00  0.00    +0.000 A 
ATOM     11  C   UNL     1      -1.792  11.874  23.075  0.00  0.00    +0.000 A 
ATOM     12  C   UNL     1      -2.075  12.727  22.006  0.00  0.00    +0.000 A 
ATOM     13  C   UNL     1      -1.537  12.460  20.750  0.00  0.00    +0.000 A 
ATOM     14  C   UNL     1      -0.714  11.340  20.577  0.00  0.00    +0.000 A 
ATOM     15  S   UNL     1      -0.030  11.091  18.994  0.00  0.00    +0.000 S 
ATOM     16  O   UNL     1       0.885  12.188  18.764  0.00  0.00    +0.000 OA
ATOM     17  O   UNL     1      -1.147  10.826  18.109  0.00  0.00    +0.000 OA
ENDROOT
BRANCH  12  18
ATOM     18  C   UNL     1      -2.903  13.936  22.200  0.00  0.00    +0.000 C 
ATOM     19  N   UNL     1      -2.984  14.859  21.279  0.00  0.00    +0.000 NA
ATOM     20  C   UNL     1      -3.895  15.888  21.849  0.00  0.00    +0.000 C 
ATOM     21  C   UNL     1      -4.278  15.428  23.258  0.00  0.00    +0.000 C 
ATOM     22  N   UNL     1      -3.631  14.139  23.347  0.00  0.00    +0.000 N 
ATOM     23  H   UNL     1      -3.160  13.932  24.221  0.00  0.00    +0.000 HD
ENDBRANCH  12  18
BRANCH   1  25
ATOM     24  C   UNL     1       3.396   5.477  17.855  0.00  0.00    +0.000 C 
ATOM     25  O   UNL     1       3.325   6.256  19.047  0.00  0.00    +0.000 OA
ENDBRANCH   1  25
TORSDOF 2
ENDMDL
MODEL 7
REMARK VINA RESULT:      -6.7      3.580      7.587
REMARK  Name = 
REMARK  3 active torsions:
REMARK  status: ('A' for Active; 'I' for Inactive)
REMARK    1  A    between atoms: C_1  and  O_2
REMARK    2  A    between atoms: O_2  and  C_3
REMARK    3  A    between atoms: C_14  and  C_15
REMARK                            x       y       z     vdW  Elec       q    Type
REMARK                         _______ _______ _______ _____ _____    ______ ____
ROOT
ATOM      1  C   UNL     1       2.743   7.688  18.179  0.00  0.00    +0.000 A 
ATOM      2  C   UNL     1       2.717   6.910  19.335  0.00  0.00    +0.000 A 
ATOM      3  C   UNL     1       1.981   7.333  20.437  0.00  0.00    +0.000 A 
ATOM      4  C   UNL     1       1.279   8.542  20.380  0.00  0.00    +0.000 A 
ATOM      5  C   UNL     1       1.312   9.350  19.253  0.00  0.00    +0.000 A 
ATOM      6  C   UNL     1       2.063   8.912  18.149  0.00  0.00    +0.000 A 
ATOM      7  C   UNL     1       0.591  10.644  19.156  0.00  0.00    +0.000 C 
ATOM      8  O   UNL     1       0.689  11.298  18.122  0.00  0.00    +0.000 OA
ATOM      9  C   UNL     1      -0.240  11.185  20.262  0.00  0.00    +0.000 A 
ATOM     10  C   UNL     1      -0.904  12.409  20.070  0.00  0.00    +0.000 A 
ATOM     11  C   UNL     1      -1.712  12.952  21.077  0.00  0.00    +0.000 A 
ATOM     12  C   UNL     1      -1.850  12.289  22.298  0.00  0.00    +0.000 A 
ATOM     13  C   UNL     1      -1.194  11.079  22.504  0.00  0.00    +0.000 A 
ATOM     14  C   UNL     1      -0.407  10.540  21.480  0.00  0.00    +0.000 A 
ATOM     15  S   UNL     1       0.345   8.996  21.781  0.00  0.00    +0.000 S 
ATOM     16  O   UNL     1      -0.726   8.030  21.891  0.00  0.00    +0.000 OA
ATOM     17  O   UNL     1       1.295   9.214  22.854  0.00  0.00    +0.000 OA
ENDROOT
BRANCH  12  18
ATOM     18  C   UNL     1      -2.722  12.833  23.361  0.00  0.00    +0.000 C 
ATOM     19  N   UNL     1      -3.731  12.149  23.830  0.00  0.00    +0.000 NA
ATOM     20  C   UNL     1      -4.342  13.028  24.863  0.00  0.00    +0.000 C 
ATOM     21  C   UNL     1      -3.550  14.338  24.872  0.00  0.00    +0.000 C 
ATOM     22  N   UNL     1      -2.504  14.072  23.913  0.00  0.00    +0.000 N 
ATOM     23  H   UNL     1      -2.288  14.821  23.264  0.00  0.00    +0.000 HD
ENDBRANCH  12  18
BRANCH   1  25
ATOM     24  C   UNL     1       4.494   6.429  17.220  0.00  0.00    +0.000 C 
ATOM     25  O   UNL     1       3.430   7.361  17.042  0.00  0.00    +0.000 OA
ENDBRANCH   1  25
TORSDOF 2
ENDMDL
MODEL 8
REMARK VINA RESULT:      -6.7      3.540      7.538
REMARK  Name = 
REMARK  3 active torsions:
REMARK  status: ('A' for Active; 'I' for Inactive)
REMARK    1  A    between atoms: C_1  and  O_2
REMARK    2  A    between atoms: O_2  and  C_3
REMARK    3  A    between atoms: C_14  and  C_15
REMARK                            x       y       z     vdW  Elec       q    Type
REMARK                         _______ _______ _______ _____ _____    ______ ____
ROOT
ATOM      1  C   UNL     1       2.707   6.134  18.518  0.00  0.00    +0.000 A 
ATOM      2  C   UNL     1       2.410   5.726  19.817  0.00  0.00    +0.000 A 
ATOM      3  C   UNL     1       1.835   6.625  20.710  0.00  0.00    +0.000 A 
ATOM      4  C   UNL     1       1.568   7.935  20.300  0.00  0.00    +0.000 A 
ATOM      5  C   UNL     1       1.881   8.377  19.023  0.00  0.00    +0.000 A 
ATOM      6  C   UNL     1       2.465   7.459  18.133  0.00  0.00    +0.000 A 
ATOM      7  C   UNL     1       1.624   9.761  18.552  0.00  0.00    +0.000 C 
ATOM      8  O   UNL     1       1.947  10.065  17.407  0.00  0.00    +0.000 OA
ATOM      9  C   UNL     1       0.998  10.798  19.412  0.00  0.00    +0.000 A 
ATOM     10  C   UNL     1       0.774  12.076  18.872  0.00  0.00    +0.000 A 
ATOM     11  C   UNL     1       0.172  13.082  19.638  0.00  0.00    +0.000 A 
ATOM     12  C   UNL     1      -0.194  12.831  20.961  0.00  0.00    +0.000 A 
ATOM     13  C   UNL     1       0.027  11.572  21.511  0.00  0.00    +0.000 A 
ATOM     14  C   UNL     1       0.611  10.571  20.725  0.00  0.00    +0.000 A 
ATOM     15  S   UNL     1       0.812   9.001  21.455  0.00  0.00    +0.000 S 
ATOM     16  O   UNL     1      -0.517   8.480  21.685  0.00  0.00    +0.000 OA
ATOM     17  O   UNL     1       1.764   9.177  22.534  0.00  0.00    +0.000 OA
ENDROOT
BRANCH  12  18
ATOM     18  C   UNL     1      -0.856  13.873  21.775  0.00  0.00    +0.000 C 
ATOM     19  N   UNL     1      -0.334  14.294  22.896  0.00  0.00    +0.000 NA
ATOM     20  C   UNL     1      -1.286  15.320  23.400  0.00  0.00    +0.000 C 
ATOM     21  C   UNL     1      -2.455  15.379  22.414  0.00  0.00    +0.000 C 
ATOM     22  N   UNL     1      -2.039  14.453  21.387  0.00  0.00    +0.000 N 
ATOM     23  H   UNL     1      -2.753  13.825  21.033  0.00  0.00    +0.000 HD
ENDBRANCH  12  18
BRANCH   1  25
ATOM     24  C   UNL     1       3.386   3.955  17.919  0.00  0.00    +0.000 C 
ATOM     25  O   UNL     1       3.267   5.331  17.562  0.00  0.00    +0.000 OA
ENDBRANCH   1  25
TORSDOF 2
ENDMDL
MODEL 9
REMARK VINA RESULT:      -6.6      1.658      3.067
REMARK  Name = 
REMARK  3 active torsions:
REMARK  status: ('A' for Active; 'I' for Inactive)
REMARK    1  A    between atoms: C_1  and  O_2
REMARK    2  A    between atoms: O_2  and  C_3
REMARK    3  A    between atoms: C_14  and  C_15
REMARK                            x       y       z     vdW  Elec       q    Type
REMARK                         _______ _______ _______ _____ _____    ______ ____
ROOT
ATOM      1  C   UNL     1      -1.438  11.888  21.771  0.00  0.00    +0.000 A 
ATOM      2  C   UNL     1      -1.323  12.534  20.542  0.00  0.00    +0.000 A 
ATOM      3  C   UNL     1      -0.553  11.966  19.532  0.00  0.00    +0.000 A 
ATOM      4  C   UNL     1       0.106  10.753  19.761  0.00  0.00    +0.000 A 
ATOM      5  C   UNL     1       0.034  10.105  20.985  0.00  0.00    +0.000 A 
ATOM      6  C   UNL     1      -0.744  10.692  21.997  0.00  0.00    +0.000 A 
ATOM      7  C   UNL     1       0.728   8.824  21.272  0.00  0.00    +0.000 C 
ATOM      8  O   UNL     1       0.615   8.330  22.390  0.00  0.00    +0.000 OA
ATOM      9  C   UNL     1       1.560   8.118  20.264  0.00  0.00    +0.000 A 
ATOM     10  C   UNL     1       2.161   6.899  20.621  0.00  0.00    +0.000 A 
ATOM     11  C   UNL     1       2.941   6.188  19.700  0.00  0.00    +0.000 A 
ATOM     12  C   UNL     1       3.149   6.697  18.417  0.00  0.00    +0.000 A 
ATOM     13  C   UNL     1       2.564   7.907  18.051  0.00  0.00    +0.000 A 
ATOM     14  C   UNL     1       1.770   8.594  18.977  0.00  0.00    +0.000 A 
ATOM     15  S   UNL     1       1.024  10.076  18.441  0.00  0.00    +0.000 S 
ATOM     16  O   UNL     1       0.066   9.709  17.422  0.00  0.00    +0.000 OA
ATOM     17  O   UNL     1       2.108  11.001  18.178  0.00  0.00    +0.000 OA
ENDROOT
BRANCH  12  18
ATOM     18  C   UNL     1       3.946   5.947  17.423  0.00  0.00    +0.000 C 
ATOM     19  N   UNL     1       4.725   6.560  16.573  0.00  0.00    +0.000 NA
ATOM     20  C   UNL     1       5.337   5.474  15.762  0.00  0.00    +0.000 C 
ATOM     21  C   UNL     1       4.745   4.150  16.253  0.00  0.00    +0.000 C 
ATOM     22  N   UNL     1       3.914   4.575  17.356  0.00  0.00    +0.000 N 
ATOM     23  H   UNL     1       2.999   4.143  17.421  0.00  0.00    +0.000 HD
ENDBRANCH  12  18
BRANCH   1  25
ATOM     24  C   UNL     1      -1.673  13.548  23.432  0.00  0.00    +0.000 C 
ATOM     25  O   UNL     1      -2.172  12.357  22.827  0.00  0.00    +0.000 OA
ENDBRANCH   1  25
TORSDOF 2
ENDMDL
