MODEL 1
REMARK VINA RESULT:      -6.1      0.000      0.000
REMARK  Name = 
REMARK  4 active torsions:
REMARK  status: ('A' for Active; 'I' for Inactive)
REMARK    1  A    between atoms: C_1  and  O_2
REMARK    2  A    between atoms: O_2  and  C_3
REMARK    3  A    between atoms: C_6  and  C_7
REMARK    4  A    between atoms: C_8  and  S_9
REMARK                            x       y       z     vdW  Elec       q    Type
REMARK                         _______ _______ _______ _____ _____    ______ ____
ROOT
ATOM      1  C   UNL     1       6.736   6.741  17.293  0.00  0.00    +0.000 A 
ATOM      2  C   UNL     1       7.023   6.016  18.451  0.00  0.00    +0.000 A 
ATOM      3  C   UNL     1       6.089   5.116  18.975  0.00  0.00    +0.000 A 
ATOM      4  C   UNL     1       4.838   4.952  18.368  0.00  0.00    +0.000 A 
ATOM      5  C   UNL     1       4.563   5.674  17.199  0.00  0.00    +0.000 A 
ATOM      6  C   UNL     1       5.501   6.569  16.670  0.00  0.00    +0.000 A 
ENDROOT
BRANCH   1   8
ATOM      7  C   UNL     1       8.007   8.669  17.786  0.00  0.00    +0.000 C 
ATOM      8  O   UNL     1       7.712   7.606  16.886  0.00  0.00    +0.000 OA
ENDBRANCH   1   8
BRANCH   4   9
ATOM      9  C   UNL     1       3.878   4.012  18.964  0.00  0.00    +0.000 C 
ATOM     10  C   UNL     1       3.167   4.274  20.071  0.00  0.00    +0.000 C 
BRANCH  10  11
ATOM     11  S   UNL     1       2.121   3.058  20.722  0.00  0.00    +0.000 S 
ATOM     12  O   UNL     1       1.920   2.032  19.721  0.00  0.00    +0.000 OA
ATOM     13  O   UNL     1       2.521   2.730  22.073  0.00  0.00    +0.000 OA
ATOM     14  F   UNL     1       0.709   3.770  20.871  0.00  0.00    +0.000 F 
ENDBRANCH  10  11
ENDBRANCH   4   9
TORSDOF 3
ENDMDL
MODEL 2
REMARK VINA RESULT:      -6.0      1.924      2.330
REMARK  Name = 
REMARK  4 active torsions:
REMARK  status: ('A' for Active; 'I' for Inactive)
REMARK    1  A    between atoms: C_1  and  O_2
REMARK    2  A    between atoms: O_2  and  C_3
REMARK    3  A    between atoms: C_6  and  C_7
REMARK    4  A    between atoms: C_8  and  S_9
REMARK                            x       y       z     vdW  Elec       q    Type
REMARK                         _______ _______ _______ _____ _____    ______ ____
ROOT
ATOM      1  C   UNL     1       5.858   5.428  15.666  0.00  0.00    +0.000 A 
ATOM      2  C   UNL     1       5.565   4.097  15.965  0.00  0.00    +0.000 A 
ATOM      3  C   UNL     1       4.544   3.781  16.868  0.00  0.00    +0.000 A 
ATOM      4  C   UNL     1       3.823   4.793  17.513  0.00  0.00    +0.000 A 
ATOM      5  C   UNL     1       4.116   6.126  17.197  0.00  0.00    +0.000 A 
ATOM      6  C   UNL     1       5.132   6.442  16.287  0.00  0.00    +0.000 A 
ENDROOT
BRANCH   1   8
ATOM      7  C   UNL     1       7.096   4.570  13.846  0.00  0.00    +0.000 C 
ATOM      8  O   UNL     1       6.889   5.618  14.788  0.00  0.00    +0.000 OA
ENDBRANCH   1   8
BRANCH   4   9
ATOM      9  C   UNL     1       2.774   4.417  18.471  0.00  0.00    +0.000 C 
ATOM     10  C   UNL     1       3.011   4.118  19.757  0.00  0.00    +0.000 C 
BRANCH  10  11
ATOM     11  S   UNL     1       1.701   3.617  20.773  0.00  0.00    +0.000 S 
ATOM     12  O   UNL     1       0.912   2.632  20.064  0.00  0.00    +0.000 OA
ATOM     13  O   UNL     1       2.179   3.379  22.117  0.00  0.00    +0.000 OA
ATOM     14  F   UNL     1       0.761   4.892  20.889  0.00  0.00    +0.000 F 
ENDBRANCH  10  11
ENDBRANCH   4   9
TORSDOF 3
ENDMDL
MODEL 3
REMARK VINA RESULT:      -6.0      0.266      1.310
REMARK  Name = 
REMARK  4 active torsions:
REMARK  status: ('A' for Active; 'I' for Inactive)
REMARK    1  A    between atoms: C_1  and  O_2
REMARK    2  A    between atoms: O_2  and  C_3
REMARK    3  A    between atoms: C_6  and  C_7
REMARK    4  A    between atoms: C_8  and  S_9
REMARK                            x       y       z     vdW  Elec       q    Type
REMARK                         _______ _______ _______ _____ _____    ______ ____
ROOT
ATOM      1  C   UNL     1       6.700   6.770  17.504  0.00  0.00    +0.000 A 
ATOM      2  C   UNL     1       5.440   6.734  16.906  0.00  0.00    +0.000 A 
ATOM      3  C   UNL     1       4.444   5.884  17.399  0.00  0.00    +0.000 A 
ATOM      4  C   UNL     1       4.705   5.031  18.479  0.00  0.00    +0.000 A 
ATOM      5  C   UNL     1       5.969   5.083  19.080  0.00  0.00    +0.000 A 
ATOM      6  C   UNL     1       6.963   5.940  18.591  0.00  0.00    +0.000 A 
ENDROOT
BRANCH   1   8
ATOM      7  C   UNL     1       8.067   8.681  17.752  0.00  0.00    +0.000 C 
ATOM      8  O   UNL     1       7.600   7.621  16.924  0.00  0.00    +0.000 OA
ENDBRANCH   1   8
BRANCH   4   9
ATOM      9  C   UNL     1       3.638   4.138  18.952  0.00  0.00    +0.000 C 
ATOM     10  C   UNL     1       3.053   4.246  20.155  0.00  0.00    +0.000 C 
BRANCH  10  11
ATOM     11  S   UNL     1       1.857   3.089  20.630  0.00  0.00    +0.000 S 
ATOM     12  O   UNL     1       1.781   2.055  19.619  0.00  0.00    +0.000 OA
ATOM     13  O   UNL     1       2.006   2.767  22.032  0.00  0.00    +0.000 OA
ATOM     14  F   UNL     1       0.474   3.864  20.530  0.00  0.00    +0.000 F 
ENDBRANCH  10  11
ENDBRANCH   4   9
TORSDOF 3
ENDMDL
MODEL 4
REMARK VINA RESULT:      -6.0      1.918      2.651
REMARK  Name = 
REMARK  4 active torsions:
REMARK  status: ('A' for Active; 'I' for Inactive)
REMARK    1  A    between atoms: C_1  and  O_2
REMARK    2  A    between atoms: O_2  and  C_3
REMARK    3  A    between atoms: C_6  and  C_7
REMARK    4  A    between atoms: C_8  and  S_9
REMARK                            x       y       z     vdW  Elec       q    Type
REMARK                         _______ _______ _______ _____ _____    ______ ____
ROOT
ATOM      1  C   UNL     1       6.827   5.359  16.068  0.00  0.00    +0.000 A 
ATOM      2  C   UNL     1       5.532   5.853  15.908  0.00  0.00    +0.000 A 
ATOM      3  C   UNL     1       4.636   5.859  16.982  0.00  0.00    +0.000 A 
ATOM      4  C   UNL     1       5.011   5.338  18.226  0.00  0.00    +0.000 A 
ATOM      5  C   UNL     1       6.317   4.854  18.382  0.00  0.00    +0.000 A 
ATOM      6  C   UNL     1       7.216   4.856  17.308  0.00  0.00    +0.000 A 
ENDROOT
BRANCH   1   8
ATOM      7  C   UNL     1       7.056   4.740  13.800  0.00  0.00    +0.000 C 
ATOM      8  O   UNL     1       7.607   5.382  14.946  0.00  0.00    +0.000 OA
ENDBRANCH   1   8
BRANCH   4   9
ATOM      9  C   UNL     1       4.032   5.343  19.322  0.00  0.00    +0.000 C 
ATOM     10  C   UNL     1       2.954   4.544  19.363  0.00  0.00    +0.000 C 
BRANCH  10  11
ATOM     11  S   UNL     1       1.830   4.693  20.672  0.00  0.00    +0.000 S 
ATOM     12  O   UNL     1       2.251   3.823  21.749  0.00  0.00    +0.000 OA
ATOM     13  O   UNL     1       1.519   6.087  20.902  0.00  0.00    +0.000 OA
ATOM     14  F   UNL     1       0.482   4.054  20.128  0.00  0.00    +0.000 F 
ENDBRANCH  10  11
ENDBRANCH   4   9
TORSDOF 3
ENDMDL
MODEL 5
REMARK VINA RESULT:      -6.0      1.738      2.020
REMARK  Name = 
REMARK  4 active torsions:
REMARK  status: ('A' for Active; 'I' for Inactive)
REMARK    1  A    between atoms: C_1  and  O_2
REMARK    2  A    between atoms: O_2  and  C_3
REMARK    3  A    between atoms: C_6  and  C_7
REMARK    4  A    between atoms: C_8  and  S_9
REMARK                            x       y       z     vdW  Elec       q    Type
REMARK                         _______ _______ _______ _____ _____    ______ ____
ROOT
ATOM      1  C   UNL     1       6.482   5.445  16.013  0.00  0.00    +0.000 A 
ATOM      2  C   UNL     1       6.777   4.548  17.041  0.00  0.00    +0.000 A 
ATOM      3  C   UNL     1       5.874   4.350  18.091  0.00  0.00    +0.000 A 
ATOM      4  C   UNL     1       4.676   5.072  18.148  0.00  0.00    +0.000 A 
ATOM      5  C   UNL     1       4.383   5.962  17.106  0.00  0.00    +0.000 A 
ATOM      6  C   UNL     1       5.283   6.155  16.051  0.00  0.00    +0.000 A 
ENDROOT
BRANCH   1   8
ATOM      7  C   UNL     1       7.223   4.841  13.853  0.00  0.00    +0.000 C 
ATOM      8  O   UNL     1       7.446   5.575  15.053  0.00  0.00    +0.000 OA
ENDBRANCH   1   8
BRANCH   4   9
ATOM      9  C   UNL     1       3.766   4.849  19.280  0.00  0.00    +0.000 C 
ATOM     10  C   UNL     1       3.353   3.636  19.678  0.00  0.00    +0.000 C 
BRANCH  10  11
ATOM     11  S   UNL     1       2.221   3.504  20.981  0.00  0.00    +0.000 S 
ATOM     12  O   UNL     1       0.898   3.300  20.430  0.00  0.00    +0.000 OA
ATOM     13  O   UNL     1       2.752   2.641  22.014  0.00  0.00    +0.000 OA
ATOM     14  F   UNL     1       2.177   4.951  21.634  0.00  0.00    +0.000 F 
ENDBRANCH  10  11
ENDBRANCH   4   9
TORSDOF 3
ENDMDL
MODEL 6
REMARK VINA RESULT:      -6.0      1.930      2.371
REMARK  Name = 
REMARK  4 active torsions:
REMARK  status: ('A' for Active; 'I' for Inactive)
REMARK    1  A    between atoms: C_1  and  O_2
REMARK    2  A    between atoms: O_2  and  C_3
REMARK    3  A    between atoms: C_6  and  C_7
REMARK    4  A    between atoms: C_8  and  S_9
REMARK                            x       y       z     vdW  Elec       q    Type
REMARK                         _______ _______ _______ _____ _____    ______ ____
ROOT
ATOM      1  C   UNL     1       6.175   5.453  15.945  0.00  0.00    +0.000 A 
ATOM      2  C   UNL     1       5.981   4.172  16.464  0.00  0.00    +0.000 A 
ATOM      3  C   UNL     1       4.932   3.917  17.354  0.00  0.00    +0.000 A 
ATOM      4  C   UNL     1       4.081   4.949  17.767  0.00  0.00    +0.000 A 
ATOM      5  C   UNL     1       4.276   6.229  17.232  0.00  0.00    +0.000 A 
ATOM      6  C   UNL     1       5.320   6.482  16.335  0.00  0.00    +0.000 A 
ENDROOT
BRANCH   1   8
ATOM      7  C   UNL     1       7.156   4.868  13.877  0.00  0.00    +0.000 C 
ATOM      8  O   UNL     1       7.243   5.589  15.103  0.00  0.00    +0.000 OA
ENDBRANCH   1   8
BRANCH   4   9
ATOM      9  C   UNL     1       3.006   4.643  18.721  0.00  0.00    +0.000 C 
ATOM     10  C   UNL     1       3.156   3.831  19.779  0.00  0.00    +0.000 C 
BRANCH  10  11
ATOM     11  S   UNL     1       1.794   3.488  20.792  0.00  0.00    +0.000 S 
ATOM     12  O   UNL     1       2.257   3.319  22.153  0.00  0.00    +0.000 OA
ATOM     13  O   UNL     1       0.699   4.376  20.469  0.00  0.00    +0.000 OA
ATOM     14  F   UNL     1       1.303   2.046  20.342  0.00  0.00    +0.000 F 
ENDBRANCH  10  11
ENDBRANCH   4   9
TORSDOF 3
ENDMDL
MODEL 7
REMARK VINA RESULT:      -5.9      1.819      2.511
REMARK  Name = 
REMARK  4 active torsions:
REMARK  status: ('A' for Active; 'I' for Inactive)
REMARK    1  A    between atoms: C_1  and  O_2
REMARK    2  A    between atoms: O_2  and  C_3
REMARK    3  A    between atoms: C_6  and  C_7
REMARK    4  A    between atoms: C_8  and  S_9
REMARK                            x       y       z     vdW  Elec       q    Type
REMARK                         _______ _______ _______ _____ _____    ______ ____
ROOT
ATOM      1  C   UNL     1       6.769   4.930  16.074  0.00  0.00    +0.000 A 
ATOM      2  C   UNL     1       5.426   4.569  15.951  0.00  0.00    +0.000 A 
ATOM      3  C   UNL     1       4.657   4.299  17.088  0.00  0.00    +0.000 A 
ATOM      4  C   UNL     1       5.229   4.353  18.365  0.00  0.00    +0.000 A 
ATOM      5  C   UNL     1       6.573   4.728  18.479  0.00  0.00    +0.000 A 
ATOM      6  C   UNL     1       7.341   5.006  17.342  0.00  0.00    +0.000 A 
ENDROOT
BRANCH   1   8
ATOM      7  C   UNL     1       6.877   4.499  13.753  0.00  0.00    +0.000 C 
ATOM      8  O   UNL     1       7.427   5.148  14.895  0.00  0.00    +0.000 OA
ENDBRANCH   1   8
BRANCH   4   9
ATOM      9  C   UNL     1       4.390   4.040  19.531  0.00  0.00    +0.000 C 
ATOM     10  C   UNL     1       3.143   3.552  19.444  0.00  0.00    +0.000 C 
BRANCH  10  11
ATOM     11  S   UNL     1       2.225   3.292  20.889  0.00  0.00    +0.000 S 
ATOM     12  O   UNL     1       0.865   2.960  20.523  0.00  0.00    +0.000 OA
ATOM     13  O   UNL     1       2.980   2.478  21.817  0.00  0.00    +0.000 OA
ATOM     14  F   UNL     1       2.131   4.721  21.576  0.00  0.00    +0.000 F 
ENDBRANCH  10  11
ENDBRANCH   4   9
TORSDOF 3
ENDMDL
MODEL 8
REMARK VINA RESULT:      -5.9      2.010      2.530
REMARK  Name = 
REMARK  4 active torsions:
REMARK  status: ('A' for Active; 'I' for Inactive)
REMARK    1  A    between atoms: C_1  and  O_2
REMARK    2  A    between atoms: O_2  and  C_3
REMARK    3  A    between atoms: C_6  and  C_7
REMARK    4  A    between atoms: C_8  and  S_9
REMARK                            x       y       z     vdW  Elec       q    Type
REMARK                         _______ _______ _______ _____ _____    ______ ____
ROOT
ATOM      1  C   UNL     1       5.843   5.308  15.583  0.00  0.00    +0.000 A 
ATOM      2  C   UNL     1       5.170   6.415  16.101  0.00  0.00    +0.000 A 
ATOM      3  C   UNL     1       4.265   6.265  17.158  0.00  0.00    +0.000 A 
ATOM      4  C   UNL     1       3.994   4.998  17.690  0.00  0.00    +0.000 A 
ATOM      5  C   UNL     1       4.684   3.895  17.172  0.00  0.00    +0.000 A 
ATOM      6  C   UNL     1       5.595   4.047  16.120  0.00  0.00    +0.000 A 
ENDROOT
BRANCH   1   8
ATOM      7  C   UNL     1       6.838   4.518  13.592  0.00  0.00    +0.000 C 
ATOM      8  O   UNL     1       6.685   5.571  14.539  0.00  0.00    +0.000 OA
ENDBRANCH   1   8
BRANCH   4   9
ATOM      9  C   UNL     1       3.020   4.882  18.785  0.00  0.00    +0.000 C 
ATOM     10  C   UNL     1       2.889   3.791  19.555  0.00  0.00    +0.000 C 
BRANCH  10  11
ATOM     11  S   UNL     1       1.654   3.744  20.767  0.00  0.00    +0.000 S 
ATOM     12  O   UNL     1       0.537   2.973  20.265  0.00  0.00    +0.000 OA
ATOM     13  O   UNL     1       2.240   3.473  22.062  0.00  0.00    +0.000 OA
ATOM     14  F   UNL     1       1.116   5.236  20.862  0.00  0.00    +0.000 F 
ENDBRANCH  10  11
ENDBRANCH   4   9
TORSDOF 3
ENDMDL
MODEL 9
REMARK VINA RESULT:      -5.9      1.044      1.258
REMARK  Name = 
REMARK  4 active torsions:
REMARK  status: ('A' for Active; 'I' for Inactive)
REMARK    1  A    between atoms: C_1  and  O_2
REMARK    2  A    between atoms: O_2  and  C_3
REMARK    3  A    between atoms: C_6  and  C_7
REMARK    4  A    between atoms: C_8  and  S_9
REMARK                            x       y       z     vdW  Elec       q    Type
REMARK                         _______ _______ _______ _____ _____    ______ ____
ROOT
ATOM      1  C   UNL     1       6.451   6.641  17.315  0.00  0.00    +0.000 A 
ATOM      2  C   UNL     1       6.574   5.937  18.514  0.00  0.00    +0.000 A 
ATOM      3  C   UNL     1       5.470   5.278  19.066  0.00  0.00    +0.000 A 
ATOM      4  C   UNL     1       4.217   5.342  18.446  0.00  0.00    +0.000 A 
ATOM      5  C   UNL     1       4.106   6.041  17.237  0.00  0.00    +0.000 A 
ATOM      6  C   UNL     1       5.212   6.693  16.679  0.00  0.00    +0.000 A 
ENDROOT
BRANCH   1   8
ATOM      7  C   UNL     1       8.032   8.359  17.676  0.00  0.00    +0.000 C 
ATOM      8  O   UNL     1       7.589   7.263  16.882  0.00  0.00    +0.000 OA
ENDBRANCH   1   8
BRANCH   4   9
ATOM      9  C   UNL     1       3.080   4.654  19.072  0.00  0.00    +0.000 C 
ATOM     10  C   UNL     1       3.199   3.794  20.095  0.00  0.00    +0.000 C 
BRANCH  10  11
ATOM     11  S   UNL     1       1.792   2.988  20.702  0.00  0.00    +0.000 S 
ATOM     12  O   UNL     1       2.103   2.419  21.996  0.00  0.00    +0.000 OA
ATOM     13  O   UNL     1       0.621   3.812  20.498  0.00  0.00    +0.000 OA
ATOM     14  F   UNL     1       1.589   1.739  19.741  0.00  0.00    +0.000 F 
ENDBRANCH  10  11
ENDBRANCH   4   9
TORSDOF 3
ENDMDL
