MODEL 1
REMARK VINA RESULT:      -5.9      0.000      0.000
REMARK  Name = 
REMARK  6 active torsions:
REMARK  status: ('A' for Active; 'I' for Inactive)
REMARK    1  A    between atoms: C_1  and  O_2
REMARK    2  A    between atoms: O_2  and  C_3
REMARK    3  A    between atoms: C_6  and  C_7
REMARK    4  A    between atoms: C_7  and  N_8
REMARK    5  A    between atoms: N_12  and  C_13
REMARK    6  A    between atoms: C_17  and  O_18
REMARK                            x       y       z     vdW  Elec       q    Type
REMARK                         _______ _______ _______ _____ _____    ______ ____
ROOT
ATOM      1  N   UNL     1       2.028   7.762  20.223  0.00  0.00    +0.000 NA
ATOM      2  C   UNL     1       1.114   8.216  21.275  0.00  0.00    +0.000 C 
ATOM      3  C   UNL     1       1.241   9.667  21.736  0.00  0.00    +0.000 C 
ATOM      4  C   UNL     1       0.911  10.805  20.772  0.00  0.00    +0.000 C 
ATOM      5  N   UNL     1       0.445  10.511  19.425  0.00  0.00    +0.000 NA
ATOM      6  C   UNL     1       1.462   9.829  18.636  0.00  0.00    +0.000 C 
ATOM      7  C   UNL     1       1.823   8.349  18.886  0.00  0.00    +0.000 C 
ENDROOT
BRANCH   5   8
ATOM      8  C   UNL     1      -0.986  10.197  19.242  0.00  0.00    +0.000 C 
ATOM      9  C   UNL     1      -1.898  11.308  19.826  0.00  0.00    +0.000 C 
ATOM     10  O   UNL     1      -2.033  12.342  18.824  0.00  0.00    +0.000 OA
ATOM     11  C   UNL     1      -1.592  11.785  17.575  0.00  0.00    +0.000 C 
ATOM     12  C   UNL     1      -1.502  10.277  17.792  0.00  0.00    +0.000 C 
BRANCH  12  13
ATOM     13  O   UNL     1      -2.800   9.660  17.707  0.00  0.00    +0.000 OA
ATOM     14  H   UNL     1      -2.971   9.443  16.774  0.00  0.00    +0.000 HD
ENDBRANCH  12  13
ENDBRANCH   5   8
BRANCH   1  15
ATOM     15  C   UNL     1       1.924   6.277  20.081  0.00  0.00    +0.000 C 
BRANCH  15  19
ATOM     16  C   UNL     1       4.844   4.486  17.558  0.00  0.00    +0.000 A 
ATOM     17  C   UNL     1       3.508   4.381  17.169  0.00  0.00    +0.000 A 
ATOM     18  C   UNL     1       2.542   4.964  17.985  0.00  0.00    +0.000 A 
ATOM     19  C   UNL     1       2.923   5.636  19.148  0.00  0.00    +0.000 A 
ATOM     20  C   UNL     1       4.279   5.627  19.464  0.00  0.00    +0.000 A 
ATOM     21  N   UNL     1       5.246   5.073  18.698  0.00  0.00    +0.000 NA
BRANCH  16  23
ATOM     22  C   UNL     1       7.029   4.586  16.727  0.00  0.00    +0.000 C 
ATOM     23  O   UNL     1       5.764   3.934  16.688  0.00  0.00    +0.000 OA
ENDBRANCH  16  23
ENDBRANCH  15  19
ENDBRANCH   1  15
TORSDOF 5
ENDMDL
MODEL 2
REMARK VINA RESULT:      -5.9      2.480      7.778
REMARK  Name = 
REMARK  6 active torsions:
REMARK  status: ('A' for Active; 'I' for Inactive)
REMARK    1  A    between atoms: C_1  and  O_2
REMARK    2  A    between atoms: O_2  and  C_3
REMARK    3  A    between atoms: C_6  and  C_7
REMARK    4  A    between atoms: C_7  and  N_8
REMARK    5  A    between atoms: N_12  and  C_13
REMARK    6  A    between atoms: C_17  and  O_18
REMARK                            x       y       z     vdW  Elec       q    Type
REMARK                         _______ _______ _______ _____ _____    ______ ____
ROOT
ATOM      1  N   UNL     1       2.505   8.234  18.677  0.00  0.00    +0.000 NA
ATOM      2  C   UNL     1       2.949   7.641  17.411  0.00  0.00    +0.000 C 
ATOM      3  C   UNL     1       4.289   6.909  17.413  0.00  0.00    +0.000 C 
ATOM      4  C   UNL     1       4.457   5.628  18.228  0.00  0.00    +0.000 C 
ATOM      5  N   UNL     1       3.335   5.085  18.978  0.00  0.00    +0.000 NA
ATOM      6  C   UNL     1       2.912   5.982  20.045  0.00  0.00    +0.000 C 
ATOM      7  C   UNL     1       2.143   7.288  19.747  0.00  0.00    +0.000 C 
ENDROOT
BRANCH   5   8
ATOM      8  C   UNL     1       2.349   4.264  18.249  0.00  0.00    +0.000 C 
ATOM      9  C   UNL     1       3.019   3.409  17.140  0.00  0.00    +0.000 C 
ATOM     10  O   UNL     1       3.519   2.200  17.756  0.00  0.00    +0.000 OA
ATOM     11  C   UNL     1       2.892   2.086  19.043  0.00  0.00    +0.000 C 
ATOM     12  C   UNL     1       1.744   3.091  19.046  0.00  0.00    +0.000 C 
BRANCH  12  13
ATOM     13  O   UNL     1       0.596   2.575  18.346  0.00  0.00    +0.000 OA
ATOM     14  H   UNL     1       0.906   2.161  17.522  0.00  0.00    +0.000 HD
ENDBRANCH  12  13
ENDBRANCH   5   8
BRANCH   1  15
ATOM     15  C   UNL     1       1.315   9.105  18.427  0.00  0.00    +0.000 C 
BRANCH  15  19
ATOM     16  C   UNL     1      -0.025  11.411  21.741  0.00  0.00    +0.000 A 
ATOM     17  C   UNL     1      -0.708  10.226  21.465  0.00  0.00    +0.000 A 
ATOM     18  C   UNL     1      -0.278   9.461  20.384  0.00  0.00    +0.000 A 
ATOM     19  C   UNL     1       0.810   9.883  19.619  0.00  0.00    +0.000 A 
ATOM     20  C   UNL     1       1.377  11.109  19.953  0.00  0.00    +0.000 A 
ATOM     21  N   UNL     1       0.989  11.879  20.994  0.00  0.00    +0.000 NA
BRANCH  16  23
ATOM     22  C   UNL     1      -1.790  11.769  23.236  0.00  0.00    +0.000 C 
ATOM     23  O   UNL     1      -0.460  12.105  22.854  0.00  0.00    +0.000 OA
ENDBRANCH  16  23
ENDBRANCH  15  19
ENDBRANCH   1  15
TORSDOF 5
ENDMDL
MODEL 3
REMARK VINA RESULT:      -5.8      2.188      8.108
REMARK  Name = 
REMARK  6 active torsions:
REMARK  status: ('A' for Active; 'I' for Inactive)
REMARK    1  A    between atoms: C_1  and  O_2
REMARK    2  A    between atoms: O_2  and  C_3
REMARK    3  A    between atoms: C_6  and  C_7
REMARK    4  A    between atoms: C_7  and  N_8
REMARK    5  A    between atoms: N_12  and  C_13
REMARK    6  A    between atoms: C_17  and  O_18
REMARK                            x       y       z     vdW  Elec       q    Type
REMARK                         _______ _______ _______ _____ _____    ______ ____
ROOT
ATOM      1  N   UNL     1       1.483   7.160  20.465  0.00  0.00    +0.000 NA
ATOM      2  C   UNL     1       1.573   5.802  21.011  0.00  0.00    +0.000 C 
ATOM      3  C   UNL     1       1.089   4.657  20.123  0.00  0.00    +0.000 C 
ATOM      4  C   UNL     1       1.830   4.330  18.828  0.00  0.00    +0.000 C 
ATOM      5  N   UNL     1       3.015   5.085  18.453  0.00  0.00    +0.000 NA
ATOM      6  C   UNL     1       2.706   6.485  18.194  0.00  0.00    +0.000 C 
ATOM      7  C   UNL     1       2.383   7.469  19.339  0.00  0.00    +0.000 C 
ENDROOT
BRANCH   5   8
ATOM      8  C   UNL     1       4.304   4.700  19.062  0.00  0.00    +0.000 C 
ATOM      9  C   UNL     1       4.958   3.506  18.317  0.00  0.00    +0.000 C 
ATOM     10  O   UNL     1       5.691   4.037  17.189  0.00  0.00    +0.000 OA
ATOM     11  C   UNL     1       5.836   5.450  17.402  0.00  0.00    +0.000 C 
ATOM     12  C   UNL     1       5.459   5.700  18.859  0.00  0.00    +0.000 C 
BRANCH  12  13
ATOM     13  O   UNL     1       6.545   5.367  19.744  0.00  0.00    +0.000 OA
ATOM     14  H   UNL     1       7.187   4.831  19.246  0.00  0.00    +0.000 HD
ENDBRANCH  12  13
ENDBRANCH   5   8
BRANCH   1  15
ATOM     15  C   UNL     1       1.765   8.151  21.549  0.00  0.00    +0.000 C 
BRANCH  15  19
ATOM     16  C   UNL     1      -1.160  11.216  21.923  0.00  0.00    +0.000 A 
ATOM     17  C   UNL     1      -0.885  10.449  23.056  0.00  0.00    +0.000 A 
ATOM     18  C   UNL     1       0.071   9.444  22.947  0.00  0.00    +0.000 A 
ATOM     19  C   UNL     1       0.728   9.233  21.734  0.00  0.00    +0.000 A 
ATOM     20  C   UNL     1       0.331  10.022  20.657  0.00  0.00    +0.000 A 
ATOM     21  N   UNL     1      -0.592  11.007  20.724  0.00  0.00    +0.000 NA
BRANCH  16  23
ATOM     22  C   UNL     1      -2.802  12.125  23.323  0.00  0.00    +0.000 C 
ATOM     23  O   UNL     1      -2.080  12.232  22.100  0.00  0.00    +0.000 OA
ENDBRANCH  16  23
ENDBRANCH  15  19
ENDBRANCH   1  15
TORSDOF 5
ENDMDL
MODEL 4
REMARK VINA RESULT:      -5.8      2.542      7.769
REMARK  Name = 
REMARK  6 active torsions:
REMARK  status: ('A' for Active; 'I' for Inactive)
REMARK    1  A    between atoms: C_1  and  O_2
REMARK    2  A    between atoms: O_2  and  C_3
REMARK    3  A    between atoms: C_6  and  C_7
REMARK    4  A    between atoms: C_7  and  N_8
REMARK    5  A    between atoms: N_12  and  C_13
REMARK    6  A    between atoms: C_17  and  O_18
REMARK                            x       y       z     vdW  Elec       q    Type
REMARK                         _______ _______ _______ _____ _____    ______ ____
ROOT
ATOM      1  N   UNL     1       2.808   8.014  18.331  0.00  0.00    +0.000 NA
ATOM      2  C   UNL     1       3.436   7.327  17.198  0.00  0.00    +0.000 C 
ATOM      3  C   UNL     1       4.773   6.635  17.453  0.00  0.00    +0.000 C 
ATOM      4  C   UNL     1       4.843   5.433  18.394  0.00  0.00    +0.000 C 
ATOM      5  N   UNL     1       3.634   4.926  19.023  0.00  0.00    +0.000 NA
ATOM      6  C   UNL     1       3.049   5.898  19.936  0.00  0.00    +0.000 C 
ATOM      7  C   UNL     1       2.311   7.152  19.420  0.00  0.00    +0.000 C 
ENDROOT
BRANCH   5   8
ATOM      8  C   UNL     1       2.773   4.018  18.238  0.00  0.00    +0.000 C 
ATOM      9  C   UNL     1       3.547   2.759  17.765  0.00  0.00    +0.000 C 
ATOM     10  O   UNL     1       3.522   1.794  18.841  0.00  0.00    +0.000 OA
ATOM     11  C   UNL     1       2.504   2.211  19.764  0.00  0.00    +0.000 C 
ATOM     12  C   UNL     1       1.686   3.277  19.040  0.00  0.00    +0.000 C 
BRANCH  12  13
ATOM     13  O   UNL     1       0.740   2.681  18.133  0.00  0.00    +0.000 OA
ATOM     14  H   UNL     1      -0.101   3.164  18.214  0.00  0.00    +0.000 HD
ENDBRANCH  12  13
ENDBRANCH   5   8
BRANCH   1  15
ATOM     15  C   UNL     1       1.652   8.827  17.841  0.00  0.00    +0.000 C 
BRANCH  15  19
ATOM     16  C   UNL     1       1.314  12.731  19.495  0.00  0.00    +0.000 A 
ATOM     17  C   UNL     1       2.228  12.551  18.457  0.00  0.00    +0.000 A 
ATOM     18  C   UNL     1       2.348  11.278  17.906  0.00  0.00    +0.000 A 
ATOM     19  C   UNL     1       1.560  10.231  18.387  0.00  0.00    +0.000 A 
ATOM     20  C   UNL     1       0.723  10.517  19.463  0.00  0.00    +0.000 A 
ATOM     21  N   UNL     1       0.579  11.738  20.024  0.00  0.00    +0.000 NA
BRANCH  16  23
ATOM     22  C   UNL     1       1.673  15.001  19.050  0.00  0.00    +0.000 C 
ATOM     23  O   UNL     1       1.199  14.023  19.971  0.00  0.00    +0.000 OA
ENDBRANCH  16  23
ENDBRANCH  15  19
ENDBRANCH   1  15
TORSDOF 5
ENDMDL
MODEL 5
REMARK VINA RESULT:      -5.8      1.674      7.939
REMARK  Name = 
REMARK  6 active torsions:
REMARK  status: ('A' for Active; 'I' for Inactive)
REMARK    1  A    between atoms: C_1  and  O_2
REMARK    2  A    between atoms: O_2  and  C_3
REMARK    3  A    between atoms: C_6  and  C_7
REMARK    4  A    between atoms: C_7  and  N_8
REMARK    5  A    between atoms: N_12  and  C_13
REMARK    6  A    between atoms: C_17  and  O_18
REMARK                            x       y       z     vdW  Elec       q    Type
REMARK                         _______ _______ _______ _____ _____    ______ ____
ROOT
ATOM      1  N   UNL     1       2.451   6.565  18.727  0.00  0.00    +0.000 NA
ATOM      2  C   UNL     1       2.576   5.156  19.113  0.00  0.00    +0.000 C 
ATOM      3  C   UNL     1       2.549   4.118  17.993  0.00  0.00    +0.000 C 
ATOM      4  C   UNL     1       3.680   4.075  16.966  0.00  0.00    +0.000 C 
ATOM      5  N   UNL     1       4.798   5.000  17.070  0.00  0.00    +0.000 NA
ATOM      6  C   UNL     1       4.376   6.383  16.890  0.00  0.00    +0.000 C 
ATOM      7  C   UNL     1       3.588   7.138  17.982  0.00  0.00    +0.000 C 
ENDROOT
BRANCH   5   8
ATOM      8  C   UNL     1       5.891   4.663  18.003  0.00  0.00    +0.000 C 
ATOM      9  C   UNL     1       7.218   4.370  17.252  0.00  0.00    +0.000 C 
ATOM     10  O   UNL     1       7.871   5.635  16.999  0.00  0.00    +0.000 OA
ATOM     11  C   UNL     1       7.246   6.614  17.844  0.00  0.00    +0.000 C 
ATOM     12  C   UNL     1       6.417   5.831  18.858  0.00  0.00    +0.000 C 
BRANCH  12  13
ATOM     13  O   UNL     1       7.242   5.318  19.920  0.00  0.00    +0.000 OA
ATOM     14  H   UNL     1       7.830   6.033  20.219  0.00  0.00    +0.000 HD
ENDBRANCH  12  13
ENDBRANCH   5   8
BRANCH   1  15
ATOM     15  C   UNL     1       2.252   7.401  19.951  0.00  0.00    +0.000 C 
BRANCH  15  19
ATOM     16  C   UNL     1      -0.487  10.645  19.696  0.00  0.00    +0.000 A 
ATOM     17  C   UNL     1       0.257  10.342  18.556  0.00  0.00    +0.000 A 
ATOM     18  C   UNL     1       1.156   9.282  18.626  0.00  0.00    +0.000 A 
ATOM     19  C   UNL     1       1.286   8.552  19.809  0.00  0.00    +0.000 A 
ATOM     20  C   UNL     1       0.533   8.981  20.898  0.00  0.00    +0.000 A 
ATOM     21  N   UNL     1      -0.350  10.004  20.869  0.00  0.00    +0.000 NA
BRANCH  16  23
ATOM     22  C   UNL     1      -1.469  12.182  18.229  0.00  0.00    +0.000 C 
ATOM     23  O   UNL     1      -1.399  11.674  19.557  0.00  0.00    +0.000 OA
ENDBRANCH  16  23
ENDBRANCH  15  19
ENDBRANCH   1  15
TORSDOF 5
ENDMDL
MODEL 6
REMARK VINA RESULT:      -5.8      2.482      7.754
REMARK  Name = 
REMARK  6 active torsions:
REMARK  status: ('A' for Active; 'I' for Inactive)
REMARK    1  A    between atoms: C_1  and  O_2
REMARK    2  A    between atoms: O_2  and  C_3
REMARK    3  A    between atoms: C_6  and  C_7
REMARK    4  A    between atoms: C_7  and  N_8
REMARK    5  A    between atoms: N_12  and  C_13
REMARK    6  A    between atoms: C_17  and  O_18
REMARK                            x       y       z     vdW  Elec       q    Type
REMARK                         _______ _______ _______ _____ _____    ______ ____
ROOT
ATOM      1  N   UNL     1       2.856   8.000  18.251  0.00  0.00    +0.000 NA
ATOM      2  C   UNL     1       3.510   7.295  17.145  0.00  0.00    +0.000 C 
ATOM      3  C   UNL     1       4.846   6.616  17.440  0.00  0.00    +0.000 C 
ATOM      4  C   UNL     1       4.904   5.433  18.406  0.00  0.00    +0.000 C 
ATOM      5  N   UNL     1       3.685   4.931  19.021  0.00  0.00    +0.000 NA
ATOM      6  C   UNL     1       3.077   5.918  19.902  0.00  0.00    +0.000 C 
ATOM      7  C   UNL     1       2.343   7.158  19.347  0.00  0.00    +0.000 C 
ENDROOT
BRANCH   5   8
ATOM      8  C   UNL     1       2.845   4.004  18.237  0.00  0.00    +0.000 C 
ATOM      9  C   UNL     1       3.627   2.728  17.826  0.00  0.00    +0.000 C 
ATOM     10  O   UNL     1       3.565   1.796  18.930  0.00  0.00    +0.000 OA
ATOM     11  C   UNL     1       2.520   2.244  19.808  0.00  0.00    +0.000 C 
ATOM     12  C   UNL     1       1.730   3.291  19.027  0.00  0.00    +0.000 C 
BRANCH  12  13
ATOM     13  O   UNL     1       0.810   2.671  18.109  0.00  0.00    +0.000 OA
ATOM     14  H   UNL     1       0.586   1.790  18.454  0.00  0.00    +0.000 HD
ENDBRANCH  12  13
ENDBRANCH   5   8
BRANCH   1  15
ATOM     15  C   UNL     1       1.706   8.797  17.722  0.00  0.00    +0.000 C 
BRANCH  15  19
ATOM     16  C   UNL     1       1.114  12.601  19.532  0.00  0.00    +0.000 A 
ATOM     17  C   UNL     1       0.220  11.584  19.867  0.00  0.00    +0.000 A 
ATOM     18  C   UNL     1       0.403  10.334  19.282  0.00  0.00    +0.000 A 
ATOM     19  C   UNL     1       1.462  10.125  18.398  0.00  0.00    +0.000 A 
ATOM     20  C   UNL     1       2.257  11.228  18.096  0.00  0.00    +0.000 A 
ATOM     21  N   UNL     1       2.111  12.455  18.642  0.00  0.00    +0.000 NA
BRANCH  16  23
ATOM     22  C   UNL     1       1.812  14.825  19.743  0.00  0.00    +0.000 C 
ATOM     23  O   UNL     1       0.917  13.806  20.178  0.00  0.00    +0.000 OA
ENDBRANCH  16  23
ENDBRANCH  15  19
ENDBRANCH   1  15
TORSDOF 5
ENDMDL
MODEL 7
REMARK VINA RESULT:      -5.7      2.650      7.788
REMARK  Name = 
REMARK  6 active torsions:
REMARK  status: ('A' for Active; 'I' for Inactive)
REMARK    1  A    between atoms: C_1  and  O_2
REMARK    2  A    between atoms: O_2  and  C_3
REMARK    3  A    between atoms: C_6  and  C_7
REMARK    4  A    between atoms: C_7  and  N_8
REMARK    5  A    between atoms: N_12  and  C_13
REMARK    6  A    between atoms: C_17  and  O_18
REMARK                            x       y       z     vdW  Elec       q    Type
REMARK                         _______ _______ _______ _____ _____    ______ ____
ROOT
ATOM      1  N   UNL     1       2.239   8.113  18.940  0.00  0.00    +0.000 NA
ATOM      2  C   UNL     1       2.645   7.562  17.643  0.00  0.00    +0.000 C 
ATOM      3  C   UNL     1       3.976   6.815  17.585  0.00  0.00    +0.000 C 
ATOM      4  C   UNL     1       4.147   5.502  18.347  0.00  0.00    +0.000 C 
ATOM      5  N   UNL     1       3.036   4.945  19.103  0.00  0.00    +0.000 NA
ATOM      6  C   UNL     1       2.650   5.806  20.212  0.00  0.00    +0.000 C 
ATOM      7  C   UNL     1       1.891   7.131  19.983  0.00  0.00    +0.000 C 
ENDROOT
BRANCH   5   8
ATOM      8  C   UNL     1       2.022   4.164  18.368  0.00  0.00    +0.000 C 
ATOM      9  C   UNL     1       2.655   3.340  17.215  0.00  0.00    +0.000 C 
ATOM     10  O   UNL     1       3.151   2.103  17.775  0.00  0.00    +0.000 OA
ATOM     11  C   UNL     1       2.552   1.952  19.072  0.00  0.00    +0.000 C 
ATOM     12  C   UNL     1       1.419   2.972  19.136  0.00  0.00    +0.000 C 
BRANCH  12  13
ATOM     13  O   UNL     1       0.249   2.496  18.445  0.00  0.00    +0.000 OA
ATOM     14  H   UNL     1      -0.518   2.612  19.033  0.00  0.00    +0.000 HD
ENDBRANCH  12  13
ENDBRANCH   5   8
BRANCH   1  15
ATOM     15  C   UNL     1       1.055   9.007  18.752  0.00  0.00    +0.000 C 
BRANCH  15  19
ATOM     16  C   UNL     1       1.177  12.649  20.946  0.00  0.00    +0.000 A 
ATOM     17  C   UNL     1       1.585  12.688  19.612  0.00  0.00    +0.000 A 
ATOM     18  C   UNL     1       1.549  11.503  18.883  0.00  0.00    +0.000 A 
ATOM     19  C   UNL     1       1.105  10.325  19.486  0.00  0.00    +0.000 A 
ATOM     20  C   UNL     1       0.776  10.395  20.837  0.00  0.00    +0.000 A 
ATOM     21  N   UNL     1       0.798  11.525  21.578  0.00  0.00    +0.000 NA
BRANCH  16  23
ATOM     22  C   UNL     1       0.416  14.863  20.949  0.00  0.00    +0.000 C 
ATOM     23  O   UNL     1       1.185  13.861  21.608  0.00  0.00    +0.000 OA
ENDBRANCH  16  23
ENDBRANCH  15  19
ENDBRANCH   1  15
TORSDOF 5
ENDMDL
MODEL 8
REMARK VINA RESULT:      -5.7      2.461      7.638
REMARK  Name = 
REMARK  6 active torsions:
REMARK  status: ('A' for Active; 'I' for Inactive)
REMARK    1  A    between atoms: C_1  and  O_2
REMARK    2  A    between atoms: O_2  and  C_3
REMARK    3  A    between atoms: C_6  and  C_7
REMARK    4  A    between atoms: C_7  and  N_8
REMARK    5  A    between atoms: N_12  and  C_13
REMARK    6  A    between atoms: C_17  and  O_18
REMARK                            x       y       z     vdW  Elec       q    Type
REMARK                         _______ _______ _______ _____ _____    ______ ____
ROOT
ATOM      1  N   UNL     1       2.588   8.119  18.396  0.00  0.00    +0.000 NA
ATOM      2  C   UNL     1       3.222   7.067  17.595  0.00  0.00    +0.000 C 
ATOM      3  C   UNL     1       4.402   6.326  18.219  0.00  0.00    +0.000 C 
ATOM      4  C   UNL     1       4.186   5.446  19.449  0.00  0.00    +0.000 C 
ATOM      5  N   UNL     1       2.853   5.286  20.009  0.00  0.00    +0.000 NA
ATOM      6  C   UNL     1       2.329   6.541  20.530  0.00  0.00    +0.000 C 
ATOM      7  C   UNL     1       1.852   7.671  19.592  0.00  0.00    +0.000 C 
ENDROOT
BRANCH   5   8
ATOM      8  C   UNL     1       1.952   4.299  19.381  0.00  0.00    +0.000 C 
ATOM      9  C   UNL     1       2.725   3.043  18.894  0.00  0.00    +0.000 C 
ATOM     10  O   UNL     1       2.866   2.147  20.020  0.00  0.00    +0.000 OA
ATOM     11  C   UNL     1       1.940   2.580  21.028  0.00  0.00    +0.000 C 
ATOM     12  C   UNL     1       0.998   3.566  20.343  0.00  0.00    +0.000 C 
BRANCH  12  13
ATOM     13  O   UNL     1      -0.016   2.878  19.586  0.00  0.00    +0.000 OA
ATOM     14  H   UNL     1       0.001   3.223  18.676  0.00  0.00    +0.000 HD
ENDBRANCH  12  13
ENDBRANCH   5   8
BRANCH   1  15
ATOM     15  C   UNL     1       1.630   8.887  17.541  0.00  0.00    +0.000 C 
BRANCH  15  19
ATOM     16  C   UNL     1      -0.286  12.160  19.467  0.00  0.00    +0.000 A 
ATOM     17  C   UNL     1      -1.101  11.154  18.947  0.00  0.00    +0.000 A 
ATOM     18  C   UNL     1      -0.486  10.076  18.315  0.00  0.00    +0.000 A 
ATOM     19  C   UNL     1       0.906  10.021  18.225  0.00  0.00    +0.000 A 
ATOM     20  C   UNL     1       1.613  11.109  18.730  0.00  0.00    +0.000 A 
ATOM     21  N   UNL     1       1.053  12.171  19.350  0.00  0.00    +0.000 NA
BRANCH  16  23
ATOM     22  C   UNL     1      -2.229  12.796  20.606  0.00  0.00    +0.000 C 
ATOM     23  O   UNL     1      -0.944  13.180  20.127  0.00  0.00    +0.000 OA
ENDBRANCH  16  23
ENDBRANCH  15  19
ENDBRANCH   1  15
TORSDOF 5
ENDMDL
MODEL 9
REMARK VINA RESULT:      -5.7      2.510      7.928
REMARK  Name = 
REMARK  6 active torsions:
REMARK  status: ('A' for Active; 'I' for Inactive)
REMARK    1  A    between atoms: C_1  and  O_2
REMARK    2  A    between atoms: O_2  and  C_3
REMARK    3  A    between atoms: C_6  and  C_7
REMARK    4  A    between atoms: C_7  and  N_8
REMARK    5  A    between atoms: N_12  and  C_13
REMARK    6  A    between atoms: C_17  and  O_18
REMARK                            x       y       z     vdW  Elec       q    Type
REMARK                         _______ _______ _______ _____ _____    ______ ____
ROOT
ATOM      1  N   UNL     1       2.393   7.629  19.398  0.00  0.00    +0.000 NA
ATOM      2  C   UNL     1       2.958   7.097  18.154  0.00  0.00    +0.000 C 
ATOM      3  C   UNL     1       4.229   6.258  18.265  0.00  0.00    +0.000 C 
ATOM      4  C   UNL     1       4.193   4.910  18.982  0.00  0.00    +0.000 C 
ATOM      5  N   UNL     1       2.944   4.408  19.534  0.00  0.00    +0.000 NA
ATOM      6  C   UNL     1       2.447   5.254  20.610  0.00  0.00    +0.000 C 
ATOM      7  C   UNL     1       1.823   6.638  20.329  0.00  0.00    +0.000 C 
ENDROOT
BRANCH   5   8
ATOM      8  C   UNL     1       2.007   3.728  18.617  0.00  0.00    +0.000 C 
ATOM      9  C   UNL     1       2.733   3.169  17.364  0.00  0.00    +0.000 C 
ATOM     10  O   UNL     1       3.278   1.875  17.709  0.00  0.00    +0.000 OA
ATOM     11  C   UNL     1       2.638   1.453  18.923  0.00  0.00    +0.000 C 
ATOM     12  C   UNL     1       1.445   2.384  19.120  0.00  0.00    +0.000 C 
BRANCH  12  13
ATOM     13  O   UNL     1       0.333   1.989  18.295  0.00  0.00    +0.000 OA
ATOM     14  H   UNL     1       0.598   2.086  17.363  0.00  0.00    +0.000 HD
ENDBRANCH  12  13
ENDBRANCH   5   8
BRANCH   1  15
ATOM     15  C   UNL     1       1.313   8.612  19.074  0.00  0.00    +0.000 C 
BRANCH  15  19
ATOM     16  C   UNL     1      -0.475  10.726  22.304  0.00  0.00    +0.000 A 
ATOM     17  C   UNL     1       0.379   9.669  22.622  0.00  0.00    +0.000 A 
ATOM     18  C   UNL     1       0.971   8.970  21.574  0.00  0.00    +0.000 A 
ATOM     19  C   UNL     1       0.712   9.338  20.253  0.00  0.00    +0.000 A 
ATOM     20  C   UNL     1      -0.200  10.372  20.056  0.00  0.00    +0.000 A 
ATOM     21  N   UNL     1      -0.794  11.074  21.046  0.00  0.00    +0.000 NA
BRANCH  16  23
ATOM     22  C   UNL     1      -1.332  12.765  23.068  0.00  0.00    +0.000 C 
ATOM     23  O   UNL     1      -0.996  11.417  23.380  0.00  0.00    +0.000 OA
ENDBRANCH  16  23
ENDBRANCH  15  19
ENDBRANCH   1  15
TORSDOF 5
ENDMDL
