MODEL 1
REMARK VINA RESULT:      -9.1      0.000      0.000
REMARK  Name = 
REMARK  5 active torsions:
REMARK  status: ('A' for Active; 'I' for Inactive)
REMARK    1  A    between atoms: C_2  and  O_3
REMARK    2  A    between atoms: C_2  and  C_4
REMARK    3  A    between atoms: C_8  and  N_9
REMARK    4  A    between atoms: C_11  and  C_12
REMARK    5  A    between atoms: C_12  and  C_14
REMARK                            x       y       z     vdW  Elec       q    Type
REMARK                         _______ _______ _______ _____ _____    ______ ____
ROOT
ATOM      1  N   UNL     1       2.643   6.824  19.437  0.00  0.00    +0.000 N 
ATOM      2  C   UNL     1       3.933   6.761  18.939  0.00  0.00    +0.000 A 
ATOM      3  C   UNL     1       4.440   5.482  19.093  0.00  0.00    +0.000 A 
ATOM      4  C   UNL     1       3.412   4.726  19.739  0.00  0.00    +0.000 A 
ATOM      5  C   UNL     1       3.326   3.372  20.140  0.00  0.00    +0.000 A 
ATOM      6  C   UNL     1       2.148   2.874  20.696  0.00  0.00    +0.000 A 
ATOM      7  C   UNL     1       1.043   3.697  20.837  0.00  0.00    +0.000 A 
ATOM      8  C   UNL     1       1.094   5.037  20.437  0.00  0.00    +0.000 A 
ATOM      9  C   UNL     1       2.300   5.561  19.918  0.00  0.00    +0.000 A 
ENDROOT
BRANCH   1  14
ATOM     10  C   UNL     1       0.261  10.329  19.406  0.00  0.00    +0.000 A 
ATOM     11  C   UNL     1       0.834   9.859  18.221  0.00  0.00    +0.000 A 
ATOM     12  C   UNL     1       1.623   8.708  18.243  0.00  0.00    +0.000 A 
ATOM     13  F   UNL     1       2.125   8.281  17.074  0.00  0.00    +0.000 F 
ATOM     14  C   UNL     1       1.835   7.996  19.427  0.00  0.00    +0.000 A 
ATOM     15  C   UNL     1       1.245   8.479  20.598  0.00  0.00    +0.000 A 
ATOM     16  F   UNL     1       1.493   7.926  21.791  0.00  0.00    +0.000 F 
ATOM     17  C   UNL     1       0.451   9.625  20.593  0.00  0.00    +0.000 A 
BRANCH  10  19
ATOM     18  O   UNL     1      -1.165  11.980  20.328  0.00  0.00    +0.000 OA
ATOM     19  C   UNL     1      -0.559  11.556  19.359  0.00  0.00    +0.000 C 
BRANCH  19  20
ATOM     20  O   UNL     1      -0.617  12.127  18.139  0.00  0.00    +0.000 OA
ATOM     21  H   UNL     1      -1.266  11.751  17.515  0.00  0.00    +0.000 HD
ENDBRANCH  19  20
ENDBRANCH  10  19
ENDBRANCH   1  14
BRANCH   3  22
ATOM     22  C   UNL     1       5.743   4.967  18.659  0.00  0.00    +0.000 C 
ATOM     23  O   UNL     1       6.587   4.586  19.465  0.00  0.00    +0.000 OA
BRANCH  22  24
ATOM     24  C   UNL     1       6.062   4.851  17.215  0.00  0.00    +0.000 A 
ATOM     25  C   UNL     1       6.950   5.741  16.586  0.00  0.00    +0.000 A 
ATOM     26 CL   UNL     1       7.647   7.118  17.371  0.00  0.00    +0.000 Cl
ATOM     27  C   UNL     1       7.256   5.596  15.227  0.00  0.00    +0.000 A 
ATOM     28  C   UNL     1       6.633   4.615  14.463  0.00  0.00    +0.000 A 
ATOM     29  C   UNL     1       5.693   3.777  15.057  0.00  0.00    +0.000 A 
ATOM     30  C   UNL     1       5.411   3.884  16.426  0.00  0.00    +0.000 A 
ATOM     31 CL   UNL     1       4.254   2.758  17.051  0.00  0.00    +0.000 Cl
ENDBRANCH  22  24
ENDBRANCH   3  22
TORSDOF 5
ENDMDL
MODEL 2
REMARK VINA RESULT:      -9.0      0.053      1.514
REMARK  Name = 
REMARK  5 active torsions:
REMARK  status: ('A' for Active; 'I' for Inactive)
REMARK    1  A    between atoms: C_2  and  O_3
REMARK    2  A    between atoms: C_2  and  C_4
REMARK    3  A    between atoms: C_8  and  N_9
REMARK    4  A    between atoms: C_11  and  C_12
REMARK    5  A    between atoms: C_12  and  C_14
REMARK                            x       y       z     vdW  Elec       q    Type
REMARK                         _______ _______ _______ _____ _____    ______ ____
ROOT
ATOM      1  N   UNL     1       2.660   6.812  19.424  0.00  0.00    +0.000 N 
ATOM      2  C   UNL     1       3.950   6.740  18.927  0.00  0.00    +0.000 A 
ATOM      3  C   UNL     1       4.449   5.458  19.085  0.00  0.00    +0.000 A 
ATOM      4  C   UNL     1       3.416   4.711  19.732  0.00  0.00    +0.000 A 
ATOM      5  C   UNL     1       3.320   3.359  20.138  0.00  0.00    +0.000 A 
ATOM      6  C   UNL     1       2.138   2.870  20.694  0.00  0.00    +0.000 A 
ATOM      7  C   UNL     1       1.039   3.701  20.832  0.00  0.00    +0.000 A 
ATOM      8  C   UNL     1       1.099   5.039  20.428  0.00  0.00    +0.000 A 
ATOM      9  C   UNL     1       2.308   5.553  19.908  0.00  0.00    +0.000 A 
ENDROOT
BRANCH   1  14
ATOM     10  C   UNL     1       0.257  10.303  19.382  0.00  0.00    +0.000 A 
ATOM     11  C   UNL     1       0.492   9.627  20.582  0.00  0.00    +0.000 A 
ATOM     12  C   UNL     1       1.279   8.474  20.585  0.00  0.00    +0.000 A 
ATOM     13  F   UNL     1       1.500   7.879  21.768  0.00  0.00    +0.000 F 
ATOM     14  C   UNL     1       1.860   7.990  19.409  0.00  0.00    +0.000 A 
ATOM     15  C   UNL     1       1.619   8.687  18.222  0.00  0.00    +0.000 A 
ATOM     16  F   UNL     1       2.040   8.227  17.038  0.00  0.00    +0.000 F 
ATOM     17  C   UNL     1       0.839   9.842  18.203  0.00  0.00    +0.000 A 
BRANCH  10  19
ATOM     18  O   UNL     1      -1.249  11.837  20.377  0.00  0.00    +0.000 OA
ATOM     19  C   UNL     1      -0.590  11.513  19.404  0.00  0.00    +0.000 C 
BRANCH  19  20
ATOM     20  O   UNL     1      -0.607  12.187  18.237  0.00  0.00    +0.000 OA
ATOM     21  H   UNL     1      -1.328  12.833  18.120  0.00  0.00    +0.000 HD
ENDBRANCH  19  20
ENDBRANCH  10  19
ENDBRANCH   1  14
BRANCH   3  22
ATOM     22  C   UNL     1       5.749   4.934  18.654  0.00  0.00    +0.000 C 
ATOM     23  O   UNL     1       6.584   4.537  19.462  0.00  0.00    +0.000 OA
BRANCH  22  24
ATOM     24  C   UNL     1       6.075   4.827  17.211  0.00  0.00    +0.000 A 
ATOM     25  C   UNL     1       6.961   5.723  16.591  0.00  0.00    +0.000 A 
ATOM     26 CL   UNL     1       7.649   7.100  17.386  0.00  0.00    +0.000 Cl
ATOM     27  C   UNL     1       7.275   5.588  15.232  0.00  0.00    +0.000 A 
ATOM     28  C   UNL     1       6.659   4.608  14.460  0.00  0.00    +0.000 A 
ATOM     29  C   UNL     1       5.720   3.762  15.046  0.00  0.00    +0.000 A 
ATOM     30  C   UNL     1       5.432   3.861  16.414  0.00  0.00    +0.000 A 
ATOM     31 CL   UNL     1       4.277   2.727  17.028  0.00  0.00    +0.000 Cl
ENDBRANCH  22  24
ENDBRANCH   3  22
TORSDOF 5
ENDMDL
MODEL 3
REMARK VINA RESULT:      -8.9      0.114      1.682
REMARK  Name = 
REMARK  5 active torsions:
REMARK  status: ('A' for Active; 'I' for Inactive)
REMARK    1  A    between atoms: C_2  and  O_3
REMARK    2  A    between atoms: C_2  and  C_4
REMARK    3  A    between atoms: C_8  and  N_9
REMARK    4  A    between atoms: C_11  and  C_12
REMARK    5  A    between atoms: C_12  and  C_14
REMARK                            x       y       z     vdW  Elec       q    Type
REMARK                         _______ _______ _______ _____ _____    ______ ____
ROOT
ATOM      1  N   UNL     1       2.606   6.837  19.442  0.00  0.00    +0.000 N 
ATOM      2  C   UNL     1       3.893   6.773  18.936  0.00  0.00    +0.000 A 
ATOM      3  C   UNL     1       4.398   5.493  19.084  0.00  0.00    +0.000 A 
ATOM      4  C   UNL     1       3.372   4.738  19.734  0.00  0.00    +0.000 A 
ATOM      5  C   UNL     1       3.286   3.383  20.134  0.00  0.00    +0.000 A 
ATOM      6  C   UNL     1       2.110   2.887  20.696  0.00  0.00    +0.000 A 
ATOM      7  C   UNL     1       1.008   3.712  20.845  0.00  0.00    +0.000 A 
ATOM      8  C   UNL     1       1.059   5.052  20.447  0.00  0.00    +0.000 A 
ATOM      9  C   UNL     1       2.263   5.575  19.922  0.00  0.00    +0.000 A 
ENDROOT
BRANCH   1  14
ATOM     10  C   UNL     1       0.230  10.347  19.431  0.00  0.00    +0.000 A 
ATOM     11  C   UNL     1       0.770   9.861  18.237  0.00  0.00    +0.000 A 
ATOM     12  C   UNL     1       1.557   8.709  18.252  0.00  0.00    +0.000 A 
ATOM     13  F   UNL     1       2.028   8.267  17.075  0.00  0.00    +0.000 F 
ATOM     14  C   UNL     1       1.800   8.012  19.439  0.00  0.00    +0.000 A 
ATOM     15  C   UNL     1       1.242   8.510  20.619  0.00  0.00    +0.000 A 
ATOM     16  F   UNL     1       1.520   7.970  21.811  0.00  0.00    +0.000 F 
ATOM     17  C   UNL     1       0.450   9.657  20.621  0.00  0.00    +0.000 A 
BRANCH  10  19
ATOM     18  O   UNL     1      -1.412  11.846  20.249  0.00  0.00    +0.000 OA
ATOM     19  C   UNL     1      -0.589  11.576  19.391  0.00  0.00    +0.000 C 
BRANCH  19  20
ATOM     20  O   UNL     1      -0.380  12.335  18.297  0.00  0.00    +0.000 OA
ATOM     21  H   UNL     1      -0.521  11.901  17.435  0.00  0.00    +0.000 HD
ENDBRANCH  19  20
ENDBRANCH  10  19
ENDBRANCH   1  14
BRANCH   3  22
ATOM     22  C   UNL     1       5.697   4.976  18.641  0.00  0.00    +0.000 C 
ATOM     23  O   UNL     1       6.550   4.604  19.442  0.00  0.00    +0.000 OA
BRANCH  22  24
ATOM     24  C   UNL     1       6.001   4.848  17.195  0.00  0.00    +0.000 A 
ATOM     25  C   UNL     1       5.436   3.824  16.416  0.00  0.00    +0.000 A 
ATOM     26 CL   UNL     1       4.456   2.551  17.064  0.00  0.00    +0.000 Cl
ATOM     27  C   UNL     1       5.717   3.737  15.046  0.00  0.00    +0.000 A 
ATOM     28  C   UNL     1       6.614   4.619  14.452  0.00  0.00    +0.000 A 
ATOM     29  C   UNL     1       7.240   5.589  15.230  0.00  0.00    +0.000 A 
ATOM     30  C   UNL     1       6.934   5.712  16.592  0.00  0.00    +0.000 A 
ATOM     31 CL   UNL     1       7.750   6.983  17.440  0.00  0.00    +0.000 Cl
ENDBRANCH  22  24
ENDBRANCH   3  22
TORSDOF 5
ENDMDL
MODEL 4
REMARK VINA RESULT:      -8.8      0.185      2.266
REMARK  Name = 
REMARK  5 active torsions:
REMARK  status: ('A' for Active; 'I' for Inactive)
REMARK    1  A    between atoms: C_2  and  O_3
REMARK    2  A    between atoms: C_2  and  C_4
REMARK    3  A    between atoms: C_8  and  N_9
REMARK    4  A    between atoms: C_11  and  C_12
REMARK    5  A    between atoms: C_12  and  C_14
REMARK                            x       y       z     vdW  Elec       q    Type
REMARK                         _______ _______ _______ _____ _____    ______ ____
ROOT
ATOM      1  N   UNL     1       2.596   6.827  19.514  0.00  0.00    +0.000 N 
ATOM      2  C   UNL     1       3.882   6.773  19.004  0.00  0.00    +0.000 A 
ATOM      3  C   UNL     1       4.378   5.485  19.105  0.00  0.00    +0.000 A 
ATOM      4  C   UNL     1       3.349   4.713  19.728  0.00  0.00    +0.000 A 
ATOM      5  C   UNL     1       3.253   3.345  20.077  0.00  0.00    +0.000 A 
ATOM      6  C   UNL     1       2.074   2.836  20.621  0.00  0.00    +0.000 A 
ATOM      7  C   UNL     1       0.978   3.662  20.802  0.00  0.00    +0.000 A 
ATOM      8  C   UNL     1       1.038   5.016  20.454  0.00  0.00    +0.000 A 
ATOM      9  C   UNL     1       2.245   5.550  19.948  0.00  0.00    +0.000 A 
ENDROOT
BRANCH   1  14
ATOM     10  C   UNL     1       0.200  10.321  19.638  0.00  0.00    +0.000 A 
ATOM     11  C   UNL     1       0.467   9.611  20.812  0.00  0.00    +0.000 A 
ATOM     12  C   UNL     1       1.251   8.457  20.759  0.00  0.00    +0.000 A 
ATOM     13  F   UNL     1       1.503   7.828  21.918  0.00  0.00    +0.000 F 
ATOM     14  C   UNL     1       1.798   8.006  19.555  0.00  0.00    +0.000 A 
ATOM     15  C   UNL     1       1.526   8.737  18.396  0.00  0.00    +0.000 A 
ATOM     16  F   UNL     1       1.913   8.311  17.188  0.00  0.00    +0.000 F 
ATOM     17  C   UNL     1       0.749   9.893  18.431  0.00  0.00    +0.000 A 
BRANCH  10  19
ATOM     18  O   UNL     1      -1.218  11.867  20.739  0.00  0.00    +0.000 OA
ATOM     19  C   UNL     1      -0.643  11.532  19.718  0.00  0.00    +0.000 C 
BRANCH  19  20
ATOM     20  O   UNL     1      -0.758  12.193  18.549  0.00  0.00    +0.000 OA
ATOM     21  H   UNL     1      -0.206  11.871  17.813  0.00  0.00    +0.000 HD
ENDBRANCH  19  20
ENDBRANCH  10  19
ENDBRANCH   1  14
BRANCH   3  22
ATOM     22  C   UNL     1       5.674   4.976  18.642  0.00  0.00    +0.000 C 
ATOM     23  O   UNL     1       6.535   4.593  19.429  0.00  0.00    +0.000 OA
BRANCH  22  24
ATOM     24  C   UNL     1       5.964   4.870  17.191  0.00  0.00    +0.000 A 
ATOM     25  C   UNL     1       5.386   3.863  16.400  0.00  0.00    +0.000 A 
ATOM     26 CL   UNL     1       4.403   2.586  17.035  0.00  0.00    +0.000 Cl
ATOM     27  C   UNL     1       5.654   3.797  15.026  0.00  0.00    +0.000 A 
ATOM     28  C   UNL     1       6.551   4.683  14.439  0.00  0.00    +0.000 A 
ATOM     29  C   UNL     1       7.191   5.636  15.227  0.00  0.00    +0.000 A 
ATOM     30  C   UNL     1       6.897   5.738  16.594  0.00  0.00    +0.000 A 
ATOM     31 CL   UNL     1       7.729   6.989  17.456  0.00  0.00    +0.000 Cl
ENDBRANCH  22  24
ENDBRANCH   3  22
TORSDOF 5
ENDMDL
MODEL 5
REMARK VINA RESULT:      -8.2      4.068      9.409
REMARK  Name = 
REMARK  5 active torsions:
REMARK  status: ('A' for Active; 'I' for Inactive)
REMARK    1  A    between atoms: C_2  and  O_3
REMARK    2  A    between atoms: C_2  and  C_4
REMARK    3  A    between atoms: C_8  and  N_9
REMARK    4  A    between atoms: C_11  and  C_12
REMARK    5  A    between atoms: C_12  and  C_14
REMARK                            x       y       z     vdW  Elec       q    Type
REMARK                         _______ _______ _______ _____ _____    ______ ____
ROOT
ATOM      1  N   UNL     1       0.792   9.829  19.490  0.00  0.00    +0.000 N 
ATOM      2  C   UNL     1       0.986  10.687  20.559  0.00  0.00    +0.000 A 
ATOM      3  C   UNL     1       0.030  11.688  20.544  0.00  0.00    +0.000 A 
ATOM      4  C   UNL     1      -0.781  11.440  19.392  0.00  0.00    +0.000 A 
ATOM      5  C   UNL     1      -1.915  12.097  18.858  0.00  0.00    +0.000 A 
ATOM      6  C   UNL     1      -2.565  11.583  17.736  0.00  0.00    +0.000 A 
ATOM      7  C   UNL     1      -2.119  10.411  17.149  0.00  0.00    +0.000 A 
ATOM      8  C   UNL     1      -1.008   9.733  17.662  0.00  0.00    +0.000 A 
ATOM      9  C   UNL     1      -0.315  10.273  18.769  0.00  0.00    +0.000 A 
ENDROOT
BRANCH   1  14
ATOM     10  C   UNL     1       3.221   6.446  18.701  0.00  0.00    +0.000 A 
ATOM     11  C   UNL     1       2.494   6.526  19.892  0.00  0.00    +0.000 A 
ATOM     12  C   UNL     1       1.703   7.647  20.146  0.00  0.00    +0.000 A 
ATOM     13  F   UNL     1       1.002   7.662  21.290  0.00  0.00    +0.000 F 
ATOM     14  C   UNL     1       1.602   8.689  19.219  0.00  0.00    +0.000 A 
ATOM     15  C   UNL     1       2.330   8.584  18.031  0.00  0.00    +0.000 A 
ATOM     16  F   UNL     1       2.380   9.585  17.145  0.00  0.00    +0.000 F 
ATOM     17  C   UNL     1       3.122   7.469  17.760  0.00  0.00    +0.000 A 
BRANCH  10  19
ATOM     18  O   UNL     1       5.137   5.088  19.010  0.00  0.00    +0.000 OA
ATOM     19  C   UNL     1       4.061   5.255  18.461  0.00  0.00    +0.000 C 
BRANCH  19  20
ATOM     20  O   UNL     1       3.556   4.407  17.544  0.00  0.00    +0.000 OA
ATOM     21  H   UNL     1       2.590   4.438  17.412  0.00  0.00    +0.000 HD
ENDBRANCH  19  20
ENDBRANCH  10  19
ENDBRANCH   1  14
BRANCH   3  22
ATOM     22  C   UNL     1      -0.163  12.770  21.515  0.00  0.00    +0.000 C 
ATOM     23  O   UNL     1       0.729  13.575  21.768  0.00  0.00    +0.000 OA
BRANCH  22  24
ATOM     24  C   UNL     1      -1.470  12.948  22.192  0.00  0.00    +0.000 A 
ATOM     25  C   UNL     1      -1.977  11.980  23.076  0.00  0.00    +0.000 A 
ATOM     26 CL   UNL     1      -1.218  10.449  23.362  0.00  0.00    +0.000 Cl
ATOM     27  C   UNL     1      -3.202  12.181  23.724  0.00  0.00    +0.000 A 
ATOM     28  C   UNL     1      -3.969  13.308  23.449  0.00  0.00    +0.000 A 
ATOM     29  C   UNL     1      -3.515  14.237  22.517  0.00  0.00    +0.000 A 
ATOM     30  C   UNL     1      -2.270  14.067  21.895  0.00  0.00    +0.000 A 
ATOM     31 CL   UNL     1      -1.801  15.312  20.786  0.00  0.00    +0.000 Cl
ENDBRANCH  22  24
ENDBRANCH   3  22
TORSDOF 5
ENDMDL
MODEL 6
REMARK VINA RESULT:      -8.2      4.171      9.406
REMARK  Name = 
REMARK  5 active torsions:
REMARK  status: ('A' for Active; 'I' for Inactive)
REMARK    1  A    between atoms: C_2  and  O_3
REMARK    2  A    between atoms: C_2  and  C_4
REMARK    3  A    between atoms: C_8  and  N_9
REMARK    4  A    between atoms: C_11  and  C_12
REMARK    5  A    between atoms: C_12  and  C_14
REMARK                            x       y       z     vdW  Elec       q    Type
REMARK                         _______ _______ _______ _____ _____    ______ ____
ROOT
ATOM      1  N   UNL     1       0.635   9.980  19.501  0.00  0.00    +0.000 N 
ATOM      2  C   UNL     1       0.827  10.870  20.544  0.00  0.00    +0.000 A 
ATOM      3  C   UNL     1      -0.168  11.832  20.537  0.00  0.00    +0.000 A 
ATOM      4  C   UNL     1      -1.003  11.527  19.417  0.00  0.00    +0.000 A 
ATOM      5  C   UNL     1      -2.178  12.126  18.904  0.00  0.00    +0.000 A 
ATOM      6  C   UNL     1      -2.841  11.562  17.815  0.00  0.00    +0.000 A 
ATOM      7  C   UNL     1      -2.366  10.395  17.240  0.00  0.00    +0.000 A 
ATOM      8  C   UNL     1      -1.214   9.772  17.733  0.00  0.00    +0.000 A 
ATOM      9  C   UNL     1      -0.510  10.365  18.805  0.00  0.00    +0.000 A 
ENDROOT
BRANCH   1  14
ATOM     10  C   UNL     1       3.135   6.658  18.678  0.00  0.00    +0.000 A 
ATOM     11  C   UNL     1       3.069   7.727  17.780  0.00  0.00    +0.000 A 
ATOM     12  C   UNL     1       2.238   8.813  18.056  0.00  0.00    +0.000 A 
ATOM     13  F   UNL     1       2.233   9.827  17.177  0.00  0.00    +0.000 F 
ATOM     14  C   UNL     1       1.481   8.867  19.230  0.00  0.00    +0.000 A 
ATOM     15  C   UNL     1       1.569   7.792  20.118  0.00  0.00    +0.000 A 
ATOM     16  F   UNL     1       0.793   7.712  21.205  0.00  0.00    +0.000 F 
ATOM     17  C   UNL     1       2.398   6.701  19.860  0.00  0.00    +0.000 A 
BRANCH  10  19
ATOM     18  O   UNL     1       3.768   4.731  17.455  0.00  0.00    +0.000 OA
ATOM     19  C   UNL     1       4.013   5.514  18.357  0.00  0.00    +0.000 C 
BRANCH  19  20
ATOM     20  O   UNL     1       5.069   5.389  19.183  0.00  0.00    +0.000 OA
ATOM     21  H   UNL     1       5.893   5.831  18.904  0.00  0.00    +0.000 HD
ENDBRANCH  19  20
ENDBRANCH  10  19
ENDBRANCH   1  14
BRANCH   3  22
ATOM     22  C   UNL     1      -0.373  12.928  21.490  0.00  0.00    +0.000 C 
ATOM     23  O   UNL     1       0.492  13.775  21.694  0.00  0.00    +0.000 OA
BRANCH  22  24
ATOM     24  C   UNL     1      -1.664  13.069  22.206  0.00  0.00    +0.000 A 
ATOM     25  C   UNL     1      -2.116  12.086  23.102  0.00  0.00    +0.000 A 
ATOM     26 CL   UNL     1      -1.307  10.576  23.362  0.00  0.00    +0.000 Cl
ATOM     27  C   UNL     1      -3.327  12.252  23.787  0.00  0.00    +0.000 A 
ATOM     28  C   UNL     1      -4.133  13.357  23.539  0.00  0.00    +0.000 A 
ATOM     29  C   UNL     1      -3.733  14.300  22.595  0.00  0.00    +0.000 A 
ATOM     30  C   UNL     1      -2.503  14.166  21.935  0.00  0.00    +0.000 A 
ATOM     31 CL   UNL     1      -2.103  15.425  20.816  0.00  0.00    +0.000 Cl
ENDBRANCH  22  24
ENDBRANCH   3  22
TORSDOF 5
ENDMDL
MODEL 7
REMARK VINA RESULT:      -8.1      4.194      9.416
REMARK  Name = 
REMARK  5 active torsions:
REMARK  status: ('A' for Active; 'I' for Inactive)
REMARK    1  A    between atoms: C_2  and  O_3
REMARK    2  A    between atoms: C_2  and  C_4
REMARK    3  A    between atoms: C_8  and  N_9
REMARK    4  A    between atoms: C_11  and  C_12
REMARK    5  A    between atoms: C_12  and  C_14
REMARK                            x       y       z     vdW  Elec       q    Type
REMARK                         _______ _______ _______ _____ _____    ______ ____
ROOT
ATOM      1  N   UNL     1       0.675   9.968  19.558  0.00  0.00    +0.000 N 
ATOM      2  C   UNL     1       0.909  10.827  20.618  0.00  0.00    +0.000 A 
ATOM      3  C   UNL     1      -0.074  11.801  20.666  0.00  0.00    +0.000 A 
ATOM      4  C   UNL     1      -0.945  11.536  19.564  0.00  0.00    +0.000 A 
ATOM      5  C   UNL     1      -2.127  12.163  19.102  0.00  0.00    +0.000 A 
ATOM      6  C   UNL     1      -2.828  11.637  18.018  0.00  0.00    +0.000 A 
ATOM      7  C   UNL     1      -2.386  10.480  17.398  0.00  0.00    +0.000 A 
ATOM      8  C   UNL     1      -1.228   9.830  17.840  0.00  0.00    +0.000 A 
ATOM      9  C   UNL     1      -0.485  10.385  18.907  0.00  0.00    +0.000 A 
ENDROOT
BRANCH   1  14
ATOM     10  C   UNL     1       3.143   6.657  18.606  0.00  0.00    +0.000 A 
ATOM     11  C   UNL     1       2.424   6.675  19.804  0.00  0.00    +0.000 A 
ATOM     12  C   UNL     1       1.620   7.773  20.112  0.00  0.00    +0.000 A 
ATOM     13  F   UNL     1       0.927   7.729  21.261  0.00  0.00    +0.000 F 
ATOM     14  C   UNL     1       1.498   8.853  19.232  0.00  0.00    +0.000 A 
ATOM     15  C   UNL     1       2.218   8.809  18.036  0.00  0.00    +0.000 A 
ATOM     16  F   UNL     1       2.248   9.849  17.194  0.00  0.00    +0.000 F 
ATOM     17  C   UNL     1       3.023   7.718  17.710  0.00  0.00    +0.000 A 
BRANCH  10  19
ATOM     18  O   UNL     1       5.137   5.383  18.731  0.00  0.00    +0.000 OA
ATOM     19  C   UNL     1       3.998   5.489  18.309  0.00  0.00    +0.000 C 
BRANCH  19  20
ATOM     20  O   UNL     1       3.423   4.587  17.489  0.00  0.00    +0.000 OA
ATOM     21  H   UNL     1       2.877   3.901  17.915  0.00  0.00    +0.000 HD
ENDBRANCH  19  20
ENDBRANCH  10  19
ENDBRANCH   1  14
BRANCH   3  22
ATOM     22  C   UNL     1      -0.237  12.873  21.654  0.00  0.00    +0.000 C 
ATOM     23  O   UNL     1       0.679  13.643  21.927  0.00  0.00    +0.000 OA
BRANCH  22  24
ATOM     24  C   UNL     1      -1.544  13.084  22.324  0.00  0.00    +0.000 A 
ATOM     25  C   UNL     1      -2.221  14.312  22.238  0.00  0.00    +0.000 A 
ATOM     26 CL   UNL     1      -1.563  15.723  21.477  0.00  0.00    +0.000 Cl
ATOM     27  C   UNL     1      -3.467  14.481  22.857  0.00  0.00    +0.000 A 
ATOM     28  C   UNL     1      -4.018  13.461  23.624  0.00  0.00    +0.000 A 
ATOM     29  C   UNL     1      -3.320  12.266  23.780  0.00  0.00    +0.000 A 
ATOM     30  C   UNL     1      -2.094  12.070  23.130  0.00  0.00    +0.000 A 
ATOM     31 CL   UNL     1      -1.345  10.528  23.373  0.00  0.00    +0.000 Cl
ENDBRANCH  22  24
ENDBRANCH   3  22
TORSDOF 5
ENDMDL
MODEL 8
REMARK VINA RESULT:      -8.0      4.173      9.310
REMARK  Name = 
REMARK  5 active torsions:
REMARK  status: ('A' for Active; 'I' for Inactive)
REMARK    1  A    between atoms: C_2  and  O_3
REMARK    2  A    between atoms: C_2  and  C_4
REMARK    3  A    between atoms: C_8  and  N_9
REMARK    4  A    between atoms: C_11  and  C_12
REMARK    5  A    between atoms: C_12  and  C_14
REMARK                            x       y       z     vdW  Elec       q    Type
REMARK                         _______ _______ _______ _____ _____    ______ ____
ROOT
ATOM      1  N   UNL     1       0.646   9.962  19.489  0.00  0.00    +0.000 N 
ATOM      2  C   UNL     1       0.827  10.858  20.528  0.00  0.00    +0.000 A 
ATOM      3  C   UNL     1      -0.164  11.823  20.501  0.00  0.00    +0.000 A 
ATOM      4  C   UNL     1      -0.986  11.512  19.373  0.00  0.00    +0.000 A 
ATOM      5  C   UNL     1      -2.152  12.112  18.842  0.00  0.00    +0.000 A 
ATOM      6  C   UNL     1      -2.803  11.542  17.748  0.00  0.00    +0.000 A 
ATOM      7  C   UNL     1      -2.325  10.370  17.186  0.00  0.00    +0.000 A 
ATOM      8  C   UNL     1      -1.182   9.747  17.699  0.00  0.00    +0.000 A 
ATOM      9  C   UNL     1      -0.489  10.345  18.776  0.00  0.00    +0.000 A 
ENDROOT
BRANCH   1  14
ATOM     10  C   UNL     1       3.145   6.626  18.721  0.00  0.00    +0.000 A 
ATOM     11  C   UNL     1       3.073   7.675  17.801  0.00  0.00    +0.000 A 
ATOM     12  C   UNL     1       2.242   8.766  18.060  0.00  0.00    +0.000 A 
ATOM     13  F   UNL     1       2.231   9.762  17.159  0.00  0.00    +0.000 F 
ATOM     14  C   UNL     1       1.492   8.844  19.237  0.00  0.00    +0.000 A 
ATOM     15  C   UNL     1       1.586   7.788  20.146  0.00  0.00    +0.000 A 
ATOM     16  F   UNL     1       0.816   7.729  21.239  0.00  0.00    +0.000 F 
ATOM     17  C   UNL     1       2.414   6.693  19.906  0.00  0.00    +0.000 A 
BRANCH  10  19
ATOM     18  O   UNL     1       4.826   5.033  19.221  0.00  0.00    +0.000 OA
ATOM     19  C   UNL     1       4.022   5.476  18.419  0.00  0.00    +0.000 C 
BRANCH  19  20
ATOM     20  O   UNL     1       3.889   5.004  17.164  0.00  0.00    +0.000 OA
ATOM     21  H   UNL     1       3.003   5.079  16.764  0.00  0.00    +0.000 HD
ENDBRANCH  19  20
ENDBRANCH  10  19
ENDBRANCH   1  14
BRANCH   3  22
ATOM     22  C   UNL     1      -0.379  12.926  21.444  0.00  0.00    +0.000 C 
ATOM     23  O   UNL     1       0.494  13.760  21.670  0.00  0.00    +0.000 OA
BRANCH  22  24
ATOM     24  C   UNL     1      -1.687  13.090  22.124  0.00  0.00    +0.000 A 
ATOM     25  C   UNL     1      -2.461  14.251  21.955  0.00  0.00    +0.000 A 
ATOM     26 CL   UNL     1      -1.929  15.641  21.068  0.00  0.00    +0.000 Cl
ATOM     27  C   UNL     1      -3.705  14.373  22.586  0.00  0.00    +0.000 A 
ATOM     28  C   UNL     1      -4.162  13.379  23.445  0.00  0.00    +0.000 A 
ATOM     29  C   UNL     1      -3.369  12.259  23.682  0.00  0.00    +0.000 A 
ATOM     30  C   UNL     1      -2.141  12.107  23.022  0.00  0.00    +0.000 A 
ATOM     31 CL   UNL     1      -1.269  10.652  23.372  0.00  0.00    +0.000 Cl
ENDBRANCH  22  24
ENDBRANCH   3  22
TORSDOF 5
ENDMDL
MODEL 9
REMARK VINA RESULT:      -8.0      3.633      8.545
REMARK  Name = 
REMARK  5 active torsions:
REMARK  status: ('A' for Active; 'I' for Inactive)
REMARK    1  A    between atoms: C_2  and  O_3
REMARK    2  A    between atoms: C_2  and  C_4
REMARK    3  A    between atoms: C_8  and  N_9
REMARK    4  A    between atoms: C_11  and  C_12
REMARK    5  A    between atoms: C_12  and  C_14
REMARK                            x       y       z     vdW  Elec       q    Type
REMARK                         _______ _______ _______ _____ _____    ______ ____
ROOT
ATOM      1  N   UNL     1       1.111   8.840  19.511  0.00  0.00    +0.000 N 
ATOM      2  C   UNL     1       0.490   9.651  18.577  0.00  0.00    +0.000 A 
ATOM      3  C   UNL     1      -0.338  10.559  19.212  0.00  0.00    +0.000 A 
ATOM      4  C   UNL     1      -0.235  10.276  20.610  0.00  0.00    +0.000 A 
ATOM      5  C   UNL     1      -0.820  10.867  21.755  0.00  0.00    +0.000 A 
ATOM      6  C   UNL     1      -0.477  10.424  23.032  0.00  0.00    +0.000 A 
ATOM      7  C   UNL     1       0.459   9.415  23.190  0.00  0.00    +0.000 A 
ATOM      8  C   UNL     1       1.064   8.821  22.078  0.00  0.00    +0.000 A 
ATOM      9  C   UNL     1       0.685   9.231  20.779  0.00  0.00    +0.000 A 
ENDROOT
BRANCH   1  14
ATOM     10  C   UNL     1       3.838   5.748  18.528  0.00  0.00    +0.000 A 
ATOM     11  C   UNL     1       3.833   6.939  17.797  0.00  0.00    +0.000 A 
ATOM     12  C   UNL     1       2.927   7.948  18.123  0.00  0.00    +0.000 A 
ATOM     13  F   UNL     1       2.983   9.084  17.410  0.00  0.00    +0.000 F 
ATOM     14  C   UNL     1       2.032   7.803  19.188  0.00  0.00    +0.000 A 
ATOM     15  C   UNL     1       2.060   6.608  19.911  0.00  0.00    +0.000 A 
ATOM     16  F   UNL     1       1.163   6.343  20.867  0.00  0.00    +0.000 F 
ATOM     17  C   UNL     1       2.962   5.591  19.600  0.00  0.00    +0.000 A 
BRANCH  10  19
ATOM     18  O   UNL     1       4.791   4.151  17.059  0.00  0.00    +0.000 OA
ATOM     19  C   UNL     1       4.798   4.689  18.154  0.00  0.00    +0.000 C 
BRANCH  19  20
ATOM     20  O   UNL     1       5.638   4.340  19.148  0.00  0.00    +0.000 OA
ATOM     21  H   UNL     1       6.287   5.013  19.423  0.00  0.00    +0.000 HD
ENDBRANCH  19  20
ENDBRANCH  10  19
ENDBRANCH   1  14
BRANCH   3  22
ATOM     22  C   UNL     1      -1.140  11.629  18.608  0.00  0.00    +0.000 C 
ATOM     23  O   UNL     1      -0.618  12.628  18.120  0.00  0.00    +0.000 OA
BRANCH  22  24
ATOM     24  C   UNL     1      -2.616  11.510  18.532  0.00  0.00    +0.000 A 
ATOM     25  C   UNL     1      -3.237  10.697  17.568  0.00  0.00    +0.000 A 
ATOM     26 CL   UNL     1      -2.380   9.873  16.309  0.00  0.00    +0.000 Cl
ATOM     27  C   UNL     1      -4.632  10.579  17.531  0.00  0.00    +0.000 A 
ATOM     28  C   UNL     1      -5.427  11.319  18.400  0.00  0.00    +0.000 A 
ATOM     29  C   UNL     1      -4.826  12.187  19.308  0.00  0.00    +0.000 A 
ATOM     30  C   UNL     1      -3.430  12.280  19.384  0.00  0.00    +0.000 A 
ATOM     31 CL   UNL     1      -2.806  13.366  20.580  0.00  0.00    +0.000 Cl
ENDBRANCH  22  24
ENDBRANCH   3  22
TORSDOF 5
ENDMDL
