MODEL 1
REMARK VINA RESULT:      -7.0      0.000      0.000
REMARK  Name = 
REMARK  8 active torsions:
REMARK  status: ('A' for Active; 'I' for Inactive)
REMARK    1  A    between atoms: C_2  and  O_3
REMARK    2  A    between atoms: C_2  and  C_4
REMARK    3  A    between atoms: C_4  and  N_5
REMARK    4  A    between atoms: C_10  and  N_11
REMARK    5  A    between atoms: C_12  and  C_14
REMARK    6  A    between atoms: C_14  and  S_15
REMARK    7  A    between atoms: C_14  and  C_16
REMARK    8  A    between atoms: C_16  and  C_17
REMARK                            x       y       z     vdW  Elec       q    Type
REMARK                         _______ _______ _______ _____ _____    ______ ____
ROOT
ATOM      1  N   UNL     1       2.522   7.003  18.625  0.00  0.00    +0.000 N 
ATOM      2  C   UNL     1       1.958   7.489  19.779  0.00  0.00    +0.000 C 
ATOM      3  O   UNL     1       1.716   6.770  20.742  0.00  0.00    +0.000 OA
ATOM      4  H   UNL     1       2.664   7.603  17.823  0.00  0.00    +0.000 HD
ENDROOT
BRANCH   1  10
ATOM      5  N   UNL     1       4.748   4.272  17.419  0.00  0.00    +0.000 N 
ATOM      6  C   UNL     1       4.193   3.012  17.934  0.00  0.00    +0.000 C 
ATOM      7  C   UNL     1       2.795   2.649  17.434  0.00  0.00    +0.000 C 
ATOM      8  C   UNL     1       1.671   3.353  18.186  0.00  0.00    +0.000 C 
ATOM      9  C   UNL     1       1.619   4.851  17.930  0.00  0.00    +0.000 C 
ATOM     10  C   UNL     1       2.850   5.583  18.465  0.00  0.00    +0.000 C 
ATOM     11  C   UNL     1       4.052   5.484  17.501  0.00  0.00    +0.000 C 
ATOM     12  O   UNL     1       4.378   6.459  16.814  0.00  0.00    +0.000 OA
BRANCH   5  13
ATOM     13  C   UNL     1       5.835   4.229  16.415  0.00  0.00    +0.000 C 
BRANCH  13  15
ATOM     14  O   UNL     1       8.102   4.184  17.291  0.00  0.00    +0.000 OA
ATOM     15  C   UNL     1       7.211   4.814  16.737  0.00  0.00    +0.000 C 
BRANCH  15  16
ATOM     16  O   UNL     1       7.418   6.059  16.248  0.00  0.00    +0.000 OA
ATOM     17  H   UNL     1       7.766   6.037  15.333  0.00  0.00    +0.000 HD
ENDBRANCH  15  16
ENDBRANCH  13  15
ENDBRANCH   5  13
ENDBRANCH   1  10
BRANCH   2  18
ATOM     18  C   UNL     1       1.618   8.986  19.748  0.00  0.00    +0.000 C 
BRANCH  18  19
ATOM     19  S   UNL     1       1.682   9.527  17.994  0.00  0.00    +0.000 S 
ATOM     20  H   UNL     1       1.765   8.297  17.464  0.00  0.00    +0.000 HD
ENDBRANCH  18  19
BRANCH  18  21
ATOM     21  C   UNL     1       0.240   9.209  20.387  0.00  0.00    +0.000 C 
BRANCH  21  22
ATOM     22  C   UNL     1      -0.368  10.579  20.185  0.00  0.00    +0.000 A 
ATOM     23  C   UNL     1      -1.393  10.754  19.244  0.00  0.00    +0.000 A 
ATOM     24  C   UNL     1      -1.981  12.007  19.058  0.00  0.00    +0.000 A 
ATOM     25  C   UNL     1      -1.552  13.096  19.814  0.00  0.00    +0.000 A 
ATOM     26  C   UNL     1      -0.542  12.932  20.758  0.00  0.00    +0.000 A 
ATOM     27  C   UNL     1       0.047  11.679  20.947  0.00  0.00    +0.000 A 
ENDBRANCH  21  22
ENDBRANCH  18  21
ENDBRANCH   2  18
TORSDOF 8
ENDMDL
MODEL 2
REMARK VINA RESULT:      -6.9      3.834      5.136
REMARK  Name = 
REMARK  8 active torsions:
REMARK  status: ('A' for Active; 'I' for Inactive)
REMARK    1  A    between atoms: C_2  and  O_3
REMARK    2  A    between atoms: C_2  and  C_4
REMARK    3  A    between atoms: C_4  and  N_5
REMARK    4  A    between atoms: C_10  and  N_11
REMARK    5  A    between atoms: C_12  and  C_14
REMARK    6  A    between atoms: C_14  and  S_15
REMARK    7  A    between atoms: C_14  and  C_16
REMARK    8  A    between atoms: C_16  and  C_17
REMARK                            x       y       z     vdW  Elec       q    Type
REMARK                         _______ _______ _______ _____ _____    ______ ____
ROOT
ATOM      1  N   UNL     1       4.050   3.386  19.102  0.00  0.00    +0.000 N 
ATOM      2  C   UNL     1       3.104   2.430  18.822  0.00  0.00    +0.000 C 
ATOM      3  O   UNL     1       3.160   1.730  17.817  0.00  0.00    +0.000 OA
ATOM      4  H   UNL     1       3.956   3.988  19.910  0.00  0.00    +0.000 HD
ENDROOT
BRANCH   1  10
ATOM      5  N   UNL     1       7.233   5.121  18.254  0.00  0.00    +0.000 N 
ATOM      6  C   UNL     1       7.725   4.522  17.005  0.00  0.00    +0.000 C 
ATOM      7  C   UNL     1       6.825   4.701  15.783  0.00  0.00    +0.000 C 
ATOM      8  C   UNL     1       5.677   3.700  15.712  0.00  0.00    +0.000 C 
ATOM      9  C   UNL     1       4.629   3.905  16.796  0.00  0.00    +0.000 C 
ATOM     10  C   UNL     1       5.175   3.646  18.200  0.00  0.00    +0.000 C 
ATOM     11  C   UNL     1       5.953   4.858  18.756  0.00  0.00    +0.000 C 
ATOM     12  O   UNL     1       5.442   5.579  19.620  0.00  0.00    +0.000 OA
BRANCH   5  13
ATOM     13  C   UNL     1       7.882   6.345  18.776  0.00  0.00    +0.000 C 
BRANCH  13  15
ATOM     14  O   UNL     1       7.132   7.814  16.991  0.00  0.00    +0.000 OA
ATOM     15  C   UNL     1       7.840   7.647  17.975  0.00  0.00    +0.000 C 
BRANCH  15  16
ATOM     16  O   UNL     1       8.560   8.659  18.514  0.00  0.00    +0.000 OA
ATOM     17  H   UNL     1       8.560   9.452  17.940  0.00  0.00    +0.000 HD
ENDBRANCH  15  16
ENDBRANCH  13  15
ENDBRANCH   5  13
ENDBRANCH   1  10
BRANCH   2  18
ATOM     18  C   UNL     1       1.959   2.338  19.841  0.00  0.00    +0.000 C 
BRANCH  18  19
ATOM     19  S   UNL     1       2.700   2.505  21.514  0.00  0.00    +0.000 S 
ATOM     20  H   UNL     1       3.892   2.965  21.102  0.00  0.00    +0.000 HD
ENDBRANCH  18  19
BRANCH  18  21
ATOM     21  C   UNL     1       0.921   3.428  19.540  0.00  0.00    +0.000 C 
BRANCH  21  22
ATOM     22  C   UNL     1       1.462   4.831  19.389  0.00  0.00    +0.000 A 
ATOM     23  C   UNL     1       1.764   5.328  18.111  0.00  0.00    +0.000 A 
ATOM     24  C   UNL     1       2.245   6.628  17.950  0.00  0.00    +0.000 A 
ATOM     25  C   UNL     1       2.426   7.447  19.063  0.00  0.00    +0.000 A 
ATOM     26  C   UNL     1       2.121   6.969  20.334  0.00  0.00    +0.000 A 
ATOM     27  C   UNL     1       1.637   5.668  20.498  0.00  0.00    +0.000 A 
ENDBRANCH  21  22
ENDBRANCH  18  21
ENDBRANCH   2  18
TORSDOF 8
ENDMDL
MODEL 3
REMARK VINA RESULT:      -6.9      1.261      1.645
REMARK  Name = 
REMARK  8 active torsions:
REMARK  status: ('A' for Active; 'I' for Inactive)
REMARK    1  A    between atoms: C_2  and  O_3
REMARK    2  A    between atoms: C_2  and  C_4
REMARK    3  A    between atoms: C_4  and  N_5
REMARK    4  A    between atoms: C_10  and  N_11
REMARK    5  A    between atoms: C_12  and  C_14
REMARK    6  A    between atoms: C_14  and  S_15
REMARK    7  A    between atoms: C_14  and  C_16
REMARK    8  A    between atoms: C_16  and  C_17
REMARK                            x       y       z     vdW  Elec       q    Type
REMARK                         _______ _______ _______ _____ _____    ______ ____
ROOT
ATOM      1  N   UNL     1       2.604   7.295  18.704  0.00  0.00    +0.000 N 
ATOM      2  C   UNL     1       1.878   7.842  19.734  0.00  0.00    +0.000 C 
ATOM      3  O   UNL     1       1.565   7.197  20.728  0.00  0.00    +0.000 OA
ATOM      4  H   UNL     1       2.805   7.829  17.869  0.00  0.00    +0.000 HD
ENDROOT
BRANCH   1  10
ATOM      5  N   UNL     1       5.216   4.661  18.373  0.00  0.00    +0.000 N 
ATOM      6  C   UNL     1       4.587   3.388  18.752  0.00  0.00    +0.000 C 
ATOM      7  C   UNL     1       3.431   2.928  17.865  0.00  0.00    +0.000 C 
ATOM      8  C   UNL     1       2.098   3.589  18.201  0.00  0.00    +0.000 C 
ATOM      9  C   UNL     1       2.060   5.073  17.870  0.00  0.00    +0.000 C 
ATOM     10  C   UNL     1       3.029   5.892  18.721  0.00  0.00    +0.000 C 
ATOM     11  C   UNL     1       4.474   5.833  18.179  0.00  0.00    +0.000 C 
ATOM     12  O   UNL     1       4.951   6.803  17.579  0.00  0.00    +0.000 OA
BRANCH   5  13
ATOM     13  C   UNL     1       6.561   4.651  17.754  0.00  0.00    +0.000 C 
BRANCH  13  15
ATOM     14  O   UNL     1       6.268   3.660  15.554  0.00  0.00    +0.000 OA
ATOM     15  C   UNL     1       6.716   4.573  16.234  0.00  0.00    +0.000 C 
BRANCH  15  16
ATOM     16  O   UNL     1       7.284   5.666  15.674  0.00  0.00    +0.000 OA
ATOM     17  H   UNL     1       7.957   6.068  16.259  0.00  0.00    +0.000 HD
ENDBRANCH  15  16
ENDBRANCH  13  15
ENDBRANCH   5  13
ENDBRANCH   1  10
BRANCH   2  18
ATOM     18  C   UNL     1       1.459   9.304  19.520  0.00  0.00    +0.000 C 
BRANCH  18  19
ATOM     19  S   UNL     1       2.055   9.807  17.856  0.00  0.00    +0.000 S 
ATOM     20  H   UNL     1       3.225  10.319  18.268  0.00  0.00    +0.000 HD
ENDBRANCH  18  19
BRANCH  18  21
ATOM     21  C   UNL     1      -0.064   9.423  19.665  0.00  0.00    +0.000 C 
BRANCH  21  22
ATOM     22  C   UNL     1      -0.554  10.244  20.837  0.00  0.00    +0.000 A 
ATOM     23  C   UNL     1      -0.458   9.727  22.138  0.00  0.00    +0.000 A 
ATOM     24  C   UNL     1      -0.885  10.478  23.234  0.00  0.00    +0.000 A 
ATOM     25  C   UNL     1      -1.410  11.755  23.043  0.00  0.00    +0.000 A 
ATOM     26  C   UNL     1      -1.502  12.281  21.757  0.00  0.00    +0.000 A 
ATOM     27  C   UNL     1      -1.072  11.532  20.658  0.00  0.00    +0.000 A 
ENDBRANCH  21  22
ENDBRANCH  18  21
ENDBRANCH   2  18
TORSDOF 8
ENDMDL
MODEL 4
REMARK VINA RESULT:      -6.8      3.296      8.718
REMARK  Name = 
REMARK  8 active torsions:
REMARK  status: ('A' for Active; 'I' for Inactive)
REMARK    1  A    between atoms: C_2  and  O_3
REMARK    2  A    between atoms: C_2  and  C_4
REMARK    3  A    between atoms: C_4  and  N_5
REMARK    4  A    between atoms: C_10  and  N_11
REMARK    5  A    between atoms: C_12  and  C_14
REMARK    6  A    between atoms: C_14  and  S_15
REMARK    7  A    between atoms: C_14  and  C_16
REMARK    8  A    between atoms: C_16  and  C_17
REMARK                            x       y       z     vdW  Elec       q    Type
REMARK                         _______ _______ _______ _____ _____    ______ ____
ROOT
ATOM      1  N   UNL     1       1.077   8.798  19.236  0.00  0.00    +0.000 N 
ATOM      2  C   UNL     1       1.979   8.596  18.220  0.00  0.00    +0.000 C 
ATOM      3  O   UNL     1       2.289   9.484  17.435  0.00  0.00    +0.000 OA
ATOM      4  H   UNL     1       0.796   8.037  19.840  0.00  0.00    +0.000 HD
ENDROOT
BRANCH   1  10
ATOM      5  N   UNL     1      -0.474  11.390  21.413  0.00  0.00    +0.000 N 
ATOM      6  C   UNL     1      -0.777  12.543  20.554  0.00  0.00    +0.000 C 
ATOM      7  C   UNL     1      -1.789  12.290  19.437  0.00  0.00    +0.000 C 
ATOM      8  C   UNL     1      -1.188  11.633  18.199  0.00  0.00    +0.000 C 
ATOM      9  C   UNL     1      -0.748  10.196  18.433  0.00  0.00    +0.000 C 
ATOM     10  C   UNL     1       0.408  10.088  19.428  0.00  0.00    +0.000 C 
ATOM     11  C   UNL     1      -0.076  10.152  20.893  0.00  0.00    +0.000 C 
ATOM     12  O   UNL     1      -0.116   9.125  21.579  0.00  0.00    +0.000 OA
BRANCH   5  13
ATOM     13  C   UNL     1      -1.001  11.357  22.797  0.00  0.00    +0.000 C 
BRANCH  13  15
ATOM     14  O   UNL     1      -3.312  11.972  23.233  0.00  0.00    +0.000 OA
ATOM     15  C   UNL     1      -2.133  12.297  23.217  0.00  0.00    +0.000 C 
BRANCH  15  16
ATOM     16  O   UNL     1      -1.718  13.492  23.697  0.00  0.00    +0.000 OA
ATOM     17  H   UNL     1      -1.888  13.578  24.658  0.00  0.00    +0.000 HD
ENDBRANCH  15  16
ENDBRANCH  13  15
ENDBRANCH   5  13
ENDBRANCH   1  10
BRANCH   2  18
ATOM     18  C   UNL     1       2.532   7.166  18.125  0.00  0.00    +0.000 C 
BRANCH  18  19
ATOM     19  S   UNL     1       4.191   7.272  17.342  0.00  0.00    +0.000 S 
ATOM     20  H   UNL     1       3.846   6.683  16.186  0.00  0.00    +0.000 HD
ENDBRANCH  18  19
BRANCH  18  21
ATOM     21  C   UNL     1       2.577   6.543  19.527  0.00  0.00    +0.000 C 
BRANCH  21  22
ATOM     22  C   UNL     1       2.028   5.139  19.643  0.00  0.00    +0.000 A 
ATOM     23  C   UNL     1       1.758   4.397  18.482  0.00  0.00    +0.000 A 
ATOM     24  C   UNL     1       1.271   3.093  18.569  0.00  0.00    +0.000 A 
ATOM     25  C   UNL     1       1.051   2.513  19.817  0.00  0.00    +0.000 A 
ATOM     26  C   UNL     1       1.324   3.235  20.976  0.00  0.00    +0.000 A 
ATOM     27  C   UNL     1       1.814   4.541  20.891  0.00  0.00    +0.000 A 
ENDBRANCH  21  22
ENDBRANCH  18  21
ENDBRANCH   2  18
TORSDOF 8
ENDMDL
MODEL 5
REMARK VINA RESULT:      -6.8      0.991      1.215
REMARK  Name = 
REMARK  8 active torsions:
REMARK  status: ('A' for Active; 'I' for Inactive)
REMARK    1  A    between atoms: C_2  and  O_3
REMARK    2  A    between atoms: C_2  and  C_4
REMARK    3  A    between atoms: C_4  and  N_5
REMARK    4  A    between atoms: C_10  and  N_11
REMARK    5  A    between atoms: C_12  and  C_14
REMARK    6  A    between atoms: C_14  and  S_15
REMARK    7  A    between atoms: C_14  and  C_16
REMARK    8  A    between atoms: C_16  and  C_17
REMARK                            x       y       z     vdW  Elec       q    Type
REMARK                         _______ _______ _______ _____ _____    ______ ____
ROOT
ATOM      1  N   UNL     1       2.254   7.221  18.782  0.00  0.00    +0.000 N 
ATOM      2  C   UNL     1       1.732   7.735  19.944  0.00  0.00    +0.000 C 
ATOM      3  O   UNL     1       1.605   7.058  20.958  0.00  0.00    +0.000 OA
ATOM      4  H   UNL     1       2.301   7.782  17.942  0.00  0.00    +0.000 HD
ENDROOT
BRANCH   1  10
ATOM      5  N   UNL     1       4.817   4.608  18.095  0.00  0.00    +0.000 N 
ATOM      6  C   UNL     1       4.207   3.315  18.432  0.00  0.00    +0.000 C 
ATOM      7  C   UNL     1       2.988   2.918  17.601  0.00  0.00    +0.000 C 
ATOM      8  C   UNL     1       1.687   3.558  18.072  0.00  0.00    +0.000 C 
ATOM      9  C   UNL     1       1.636   5.061  17.843  0.00  0.00    +0.000 C 
ATOM     10  C   UNL     1       2.669   5.819  18.676  0.00  0.00    +0.000 C 
ATOM     11  C   UNL     1       4.072   5.793  18.031  0.00  0.00    +0.000 C 
ATOM     12  O   UNL     1       4.513   6.799  17.465  0.00  0.00    +0.000 OA
BRANCH   5  13
ATOM     13  C   UNL     1       6.115   4.635  17.384  0.00  0.00    +0.000 C 
BRANCH  13  15
ATOM     14  O   UNL     1       7.541   5.360  19.214  0.00  0.00    +0.000 OA
ATOM     15  C   UNL     1       7.426   4.739  18.166  0.00  0.00    +0.000 C 
BRANCH  15  16
ATOM     16  O   UNL     1       8.433   3.981  17.673  0.00  0.00    +0.000 OA
ATOM     17  H   UNL     1       8.488   3.113  18.120  0.00  0.00    +0.000 HD
ENDBRANCH  15  16
ENDBRANCH  13  15
ENDBRANCH   5  13
ENDBRANCH   1  10
BRANCH   2  18
ATOM     18  C   UNL     1       1.287   9.202  19.857  0.00  0.00    +0.000 C 
BRANCH  18  19
ATOM     19  S   UNL     1       1.622   9.775  18.144  0.00  0.00    +0.000 S 
ATOM     20  H   UNL     1       0.823  10.852  18.190  0.00  0.00    +0.000 HD
ENDBRANCH  18  19
BRANCH  18  21
ATOM     21  C   UNL     1      -0.195   9.308  20.239  0.00  0.00    +0.000 C 
BRANCH  21  22
ATOM     22  C   UNL     1      -0.633  10.631  20.826  0.00  0.00    +0.000 A 
ATOM     23  C   UNL     1      -1.195  11.611  19.994  0.00  0.00    +0.000 A 
ATOM     24  C   UNL     1      -1.623  12.830  20.521  0.00  0.00    +0.000 A 
ATOM     25  C   UNL     1      -1.500  13.081  21.886  0.00  0.00    +0.000 A 
ATOM     26  C   UNL     1      -0.952  12.112  22.723  0.00  0.00    +0.000 A 
ATOM     27  C   UNL     1      -0.524  10.890  22.198  0.00  0.00    +0.000 A 
ENDBRANCH  21  22
ENDBRANCH  18  21
ENDBRANCH   2  18
TORSDOF 8
ENDMDL
MODEL 6
REMARK VINA RESULT:      -6.8      2.283      3.285
REMARK  Name = 
REMARK  8 active torsions:
REMARK  status: ('A' for Active; 'I' for Inactive)
REMARK    1  A    between atoms: C_2  and  O_3
REMARK    2  A    between atoms: C_2  and  C_4
REMARK    3  A    between atoms: C_4  and  N_5
REMARK    4  A    between atoms: C_10  and  N_11
REMARK    5  A    between atoms: C_12  and  C_14
REMARK    6  A    between atoms: C_14  and  S_15
REMARK    7  A    between atoms: C_14  and  C_16
REMARK    8  A    between atoms: C_16  and  C_17
REMARK                            x       y       z     vdW  Elec       q    Type
REMARK                         _______ _______ _______ _____ _____    ______ ____
ROOT
ATOM      1  N   UNL     1       2.341   7.784  18.898  0.00  0.00    +0.000 N 
ATOM      2  C   UNL     1       1.897   8.930  18.286  0.00  0.00    +0.000 C 
ATOM      3  O   UNL     1       1.908   9.068  17.069  0.00  0.00    +0.000 OA
ATOM      4  H   UNL     1       2.373   7.712  19.906  0.00  0.00    +0.000 HD
ENDROOT
BRANCH   1  10
ATOM      5  N   UNL     1       2.933   4.141  18.402  0.00  0.00    +0.000 N 
ATOM      6  C   UNL     1       3.533   3.984  17.070  0.00  0.00    +0.000 C 
ATOM      7  C   UNL     1       4.896   4.648  16.874  0.00  0.00    +0.000 C 
ATOM      8  C   UNL     1       4.815   6.140  16.569  0.00  0.00    +0.000 C 
ATOM      9  C   UNL     1       4.326   6.971  17.746  0.00  0.00    +0.000 C 
ATOM     10  C   UNL     1       2.880   6.658  18.128  0.00  0.00    +0.000 C 
ATOM     11  C   UNL     1       2.769   5.393  19.007  0.00  0.00    +0.000 C 
ATOM     12  O   UNL     1       2.551   5.497  20.219  0.00  0.00    +0.000 OA
BRANCH   5  13
ATOM     13  C   UNL     1       2.894   2.981  19.322  0.00  0.00    +0.000 C 
BRANCH  13  15
ATOM     14  O   UNL     1       4.978   2.133  20.244  0.00  0.00    +0.000 OA
ATOM     15  C   UNL     1       4.085   2.025  19.415  0.00  0.00    +0.000 C 
BRANCH  15  16
ATOM     16  O   UNL     1       4.014   0.961  18.580  0.00  0.00    +0.000 OA
ATOM     17  H   UNL     1       3.561   1.186  17.742  0.00  0.00    +0.000 HD
ENDBRANCH  15  16
ENDBRANCH  13  15
ENDBRANCH   5  13
ENDBRANCH   1  10
BRANCH   2  18
ATOM     18  C   UNL     1       1.429  10.033  19.248  0.00  0.00    +0.000 C 
BRANCH  18  19
ATOM     19  S   UNL     1       1.943  11.643  18.526  0.00  0.00    +0.000 S 
ATOM     20  H   UNL     1       3.011  11.825  19.318  0.00  0.00    +0.000 HD
ENDBRANCH  18  19
BRANCH  18  21
ATOM     21  C   UNL     1      -0.089   9.928  19.443  0.00  0.00    +0.000 C 
BRANCH  21  22
ATOM     22  C   UNL     1      -0.628  10.483  20.742  0.00  0.00    +0.000 A 
ATOM     23  C   UNL     1      -0.378   9.808  21.946  0.00  0.00    +0.000 A 
ATOM     24  C   UNL     1      -0.850  10.316  23.157  0.00  0.00    +0.000 A 
ATOM     25  C   UNL     1      -1.573  11.506  23.179  0.00  0.00    +0.000 A 
ATOM     26  C   UNL     1      -1.820  12.191  21.991  0.00  0.00    +0.000 A 
ATOM     27  C   UNL     1      -1.347  11.685  20.778  0.00  0.00    +0.000 A 
ENDBRANCH  21  22
ENDBRANCH  18  21
ENDBRANCH   2  18
TORSDOF 8
ENDMDL
MODEL 7
REMARK VINA RESULT:      -6.7      3.262      8.370
REMARK  Name = 
REMARK  8 active torsions:
REMARK  status: ('A' for Active; 'I' for Inactive)
REMARK    1  A    between atoms: C_2  and  O_3
REMARK    2  A    between atoms: C_2  and  C_4
REMARK    3  A    between atoms: C_4  and  N_5
REMARK    4  A    between atoms: C_10  and  N_11
REMARK    5  A    between atoms: C_12  and  C_14
REMARK    6  A    between atoms: C_14  and  S_15
REMARK    7  A    between atoms: C_14  and  C_16
REMARK    8  A    between atoms: C_16  and  C_17
REMARK                            x       y       z     vdW  Elec       q    Type
REMARK                         _______ _______ _______ _____ _____    ______ ____
ROOT
ATOM      1  N   UNL     1       2.127   7.661  20.064  0.00  0.00    +0.000 N 
ATOM      2  C   UNL     1       2.129   6.293  20.186  0.00  0.00    +0.000 C 
ATOM      3  O   UNL     1       1.254   5.690  20.796  0.00  0.00    +0.000 OA
ATOM      4  H   UNL     1       2.887   8.142  19.601  0.00  0.00    +0.000 HD
ENDROOT
BRANCH   1  10
ATOM      5  N   UNL     1      -0.331  10.456  19.947  0.00  0.00    +0.000 N 
ATOM      6  C   UNL     1      -1.103  10.397  21.196  0.00  0.00    +0.000 C 
ATOM      7  C   UNL     1      -0.304  10.610  22.481  0.00  0.00    +0.000 C 
ATOM      8  C   UNL     1       0.421   9.362  22.969  0.00  0.00    +0.000 C 
ATOM      9  C   UNL     1       1.565   8.934  22.062  0.00  0.00    +0.000 C 
ATOM     10  C   UNL     1       1.086   8.489  20.680  0.00  0.00    +0.000 C 
ATOM     11  C   UNL     1       0.820   9.685  19.741  0.00  0.00    +0.000 C 
ATOM     12  O   UNL     1       1.619   9.953  18.837  0.00  0.00    +0.000 OA
BRANCH   5  13
ATOM     13  C   UNL     1      -0.474  11.633  19.060  0.00  0.00    +0.000 C 
BRANCH  13  15
ATOM     14  O   UNL     1      -2.678  11.121  18.171  0.00  0.00    +0.000 OA
ATOM     15  C   UNL     1      -1.608  11.698  18.034  0.00  0.00    +0.000 C 
BRANCH  15  16
ATOM     16  O   UNL     1      -1.386  12.552  17.009  0.00  0.00    +0.000 OA
ATOM     17  H   UNL     1      -1.525  13.484  17.273  0.00  0.00    +0.000 HD
ENDBRANCH  15  16
ENDBRANCH  13  15
ENDBRANCH   5  13
ENDBRANCH   1  10
BRANCH   2  18
ATOM     18  C   UNL     1       3.330   5.590  19.536  0.00  0.00    +0.000 C 
BRANCH  18  19
ATOM     19  S   UNL     1       3.159   3.792  19.869  0.00  0.00    +0.000 S 
ATOM     20  H   UNL     1       3.912   3.379  18.839  0.00  0.00    +0.000 HD
ENDBRANCH  18  19
BRANCH  18  21
ATOM     21  C   UNL     1       3.360   5.915  18.036  0.00  0.00    +0.000 C 
BRANCH  21  22
ATOM     22  C   UNL     1       4.612   5.503  17.295  0.00  0.00    +0.000 A 
ATOM     23  C   UNL     1       5.780   6.271  17.420  0.00  0.00    +0.000 A 
ATOM     24  C   UNL     1       6.951   5.895  16.760  0.00  0.00    +0.000 A 
ATOM     25  C   UNL     1       6.969   4.746  15.972  0.00  0.00    +0.000 A 
ATOM     26  C   UNL     1       5.818   3.971  15.848  0.00  0.00    +0.000 A 
ATOM     27  C   UNL     1       4.645   4.345  16.509  0.00  0.00    +0.000 A 
ENDBRANCH  21  22
ENDBRANCH  18  21
ENDBRANCH   2  18
TORSDOF 8
ENDMDL
MODEL 8
REMARK VINA RESULT:      -6.7      2.470      3.893
REMARK  Name = 
REMARK  8 active torsions:
REMARK  status: ('A' for Active; 'I' for Inactive)
REMARK    1  A    between atoms: C_2  and  O_3
REMARK    2  A    between atoms: C_2  and  C_4
REMARK    3  A    between atoms: C_4  and  N_5
REMARK    4  A    between atoms: C_10  and  N_11
REMARK    5  A    between atoms: C_12  and  C_14
REMARK    6  A    between atoms: C_14  and  S_15
REMARK    7  A    between atoms: C_14  and  C_16
REMARK    8  A    between atoms: C_16  and  C_17
REMARK                            x       y       z     vdW  Elec       q    Type
REMARK                         _______ _______ _______ _____ _____    ______ ____
ROOT
ATOM      1  N   UNL     1       2.239   7.704  19.003  0.00  0.00    +0.000 N 
ATOM      2  C   UNL     1       1.984   8.844  18.280  0.00  0.00    +0.000 C 
ATOM      3  O   UNL     1       2.129   8.894  17.064  0.00  0.00    +0.000 OA
ATOM      4  H   UNL     1       2.165   7.700  20.011  0.00  0.00    +0.000 HD
ENDROOT
BRANCH   1  10
ATOM      5  N   UNL     1       2.748   4.015  18.955  0.00  0.00    +0.000 N 
ATOM      6  C   UNL     1       3.287   3.677  17.630  0.00  0.00    +0.000 C 
ATOM      7  C   UNL     1       4.650   4.281  17.293  0.00  0.00    +0.000 C 
ATOM      8  C   UNL     1       4.580   5.723  16.803  0.00  0.00    +0.000 C 
ATOM      9  C   UNL     1       4.158   6.708  17.883  0.00  0.00    +0.000 C 
ATOM     10  C   UNL     1       2.725   6.478  18.362  0.00  0.00    +0.000 C 
ATOM     11  C   UNL     1       2.633   5.338  19.400  0.00  0.00    +0.000 C 
ATOM     12  O   UNL     1       2.470   5.600  20.597  0.00  0.00    +0.000 OA
BRANCH   5  13
ATOM     13  C   UNL     1       2.732   2.984  20.017  0.00  0.00    +0.000 C 
BRANCH  13  15
ATOM     14  O   UNL     1       1.557   2.498  22.088  0.00  0.00    +0.000 OA
ATOM     15  C   UNL     1       1.500   2.805  20.905  0.00  0.00    +0.000 C 
BRANCH  15  16
ATOM     16  O   UNL     1       0.330   3.138  20.312  0.00  0.00    +0.000 OA
ATOM     17  H   UNL     1       0.471   3.616  19.470  0.00  0.00    +0.000 HD
ENDBRANCH  15  16
ENDBRANCH  13  15
ENDBRANCH   5  13
ENDBRANCH   1  10
BRANCH   2  18
ATOM     18  C   UNL     1       1.548  10.054  19.120  0.00  0.00    +0.000 C 
BRANCH  18  19
ATOM     19  S   UNL     1       2.094  11.565  18.229  0.00  0.00    +0.000 S 
ATOM     20  H   UNL     1       2.668  10.927  17.197  0.00  0.00    +0.000 HD
ENDBRANCH  18  19
BRANCH  18  21
ATOM     21  C   UNL     1       0.028  10.006  19.330  0.00  0.00    +0.000 C 
BRANCH  21  22
ATOM     22  C   UNL     1      -0.465  10.447  20.690  0.00  0.00    +0.000 A 
ATOM     23  C   UNL     1      -1.173  11.651  20.818  0.00  0.00    +0.000 A 
ATOM     24  C   UNL     1      -1.654  12.065  22.061  0.00  0.00    +0.000 A 
ATOM     25  C   UNL     1      -1.435  11.277  23.190  0.00  0.00    +0.000 A 
ATOM     26  C   UNL     1      -0.741  10.075  23.074  0.00  0.00    +0.000 A 
ATOM     27  C   UNL     1      -0.261   9.658  21.829  0.00  0.00    +0.000 A 
ENDBRANCH  21  22
ENDBRANCH  18  21
ENDBRANCH   2  18
TORSDOF 8
ENDMDL
MODEL 9
REMARK VINA RESULT:      -6.7      3.304      8.056
REMARK  Name = 
REMARK  8 active torsions:
REMARK  status: ('A' for Active; 'I' for Inactive)
REMARK    1  A    between atoms: C_2  and  O_3
REMARK    2  A    between atoms: C_2  and  C_4
REMARK    3  A    between atoms: C_4  and  N_5
REMARK    4  A    between atoms: C_10  and  N_11
REMARK    5  A    between atoms: C_12  and  C_14
REMARK    6  A    between atoms: C_14  and  S_15
REMARK    7  A    between atoms: C_14  and  C_16
REMARK    8  A    between atoms: C_16  and  C_17
REMARK                            x       y       z     vdW  Elec       q    Type
REMARK                         _______ _______ _______ _____ _____    ______ ____
ROOT
ATOM      1  N   UNL     1       2.255   7.216  20.301  0.00  0.00    +0.000 N 
ATOM      2  C   UNL     1       2.010   5.865  20.306  0.00  0.00    +0.000 C 
ATOM      3  O   UNL     1       0.912   5.400  20.591  0.00  0.00    +0.000 OA
ATOM      4  H   UNL     1       3.182   7.575  20.115  0.00  0.00    +0.000 HD
ENDROOT
BRANCH   1  10
ATOM      5  N   UNL     1       0.079  10.129  19.499  0.00  0.00    +0.000 N 
ATOM      6  C   UNL     1      -0.846  10.294  20.629  0.00  0.00    +0.000 C 
ATOM      7  C   UNL     1      -0.199  10.627  21.973  0.00  0.00    +0.000 C 
ATOM      8  C   UNL     1       0.350   9.410  22.709  0.00  0.00    +0.000 C 
ATOM      9  C   UNL     1       1.558   8.785  22.027  0.00  0.00    +0.000 C 
ATOM     10  C   UNL     1       1.219   8.189  20.661  0.00  0.00    +0.000 C 
ATOM     11  C   UNL     1       1.177   9.261  19.550  0.00  0.00    +0.000 C 
ATOM     12  O   UNL     1       2.103   9.348  18.736  0.00  0.00    +0.000 OA
BRANCH   5  13
ATOM     13  C   UNL     1       0.149  11.181  18.459  0.00  0.00    +0.000 C 
BRANCH  13  15
ATOM     14  O   UNL     1      -0.955  13.215  19.203  0.00  0.00    +0.000 OA
ATOM     15  C   UNL     1      -0.904  12.289  18.404  0.00  0.00    +0.000 C 
BRANCH  15  16
ATOM     16  O   UNL     1      -1.713  12.239  17.320  0.00  0.00    +0.000 OA
ATOM     17  H   UNL     1      -1.249  11.883  16.535  0.00  0.00    +0.000 HD
ENDBRANCH  15  16
ENDBRANCH  13  15
ENDBRANCH   5  13
ENDBRANCH   1  10
BRANCH   2  18
ATOM     18  C   UNL     1       3.226   4.988  19.970  0.00  0.00    +0.000 C 
BRANCH  18  19
ATOM     19  S   UNL     1       2.727   3.239  20.224  0.00  0.00    +0.000 S 
ATOM     20  H   UNL     1       2.262   3.398  21.472  0.00  0.00    +0.000 HD
ENDBRANCH  18  19
BRANCH  18  21
ATOM     21  C   UNL     1       3.677   5.274  18.531  0.00  0.00    +0.000 C 
BRANCH  21  22
ATOM     22  C   UNL     1       5.092   5.781  18.371  0.00  0.00    +0.000 A 
ATOM     23  C   UNL     1       6.103   5.307  19.220  0.00  0.00    +0.000 A 
ATOM     24  C   UNL     1       7.419   5.748  19.075  0.00  0.00    +0.000 A 
ATOM     25  C   UNL     1       7.740   6.665  18.076  0.00  0.00    +0.000 A 
ATOM     26  C   UNL     1       6.747   7.136  17.221  0.00  0.00    +0.000 A 
ATOM     27  C   UNL     1       5.429   6.694  17.364  0.00  0.00    +0.000 A 
ENDBRANCH  21  22
ENDBRANCH  18  21
ENDBRANCH   2  18
TORSDOF 8
ENDMDL
