MODEL 1
REMARK VINA RESULT:      -8.0      0.000      0.000
REMARK  Name = 
REMARK  0 active torsions:
REMARK  status: ('A' for Active; 'I' for Inactive)
REMARK                            x       y       z     vdW  Elec       q    Type
REMARK                         _______ _______ _______ _____ _____    ______ ____
ROOT
ATOM      1  C   UNL     1       2.081   1.774  18.753  0.00  0.00    +0.000 A 
ATOM      2  C   UNL     1       2.976   2.275  17.789  0.00  0.00    +0.000 A 
ATOM      3  C   UNL     1       3.275   3.624  17.805  0.00  0.00    +0.000 A 
ATOM      4  C   UNL     1       2.685   4.436  18.766  0.00  0.00    +0.000 A 
ATOM      5  C   UNL     1       3.108   5.749  18.616  0.00  0.00    +0.000 A 
ATOM      6  C   UNL     1       2.627   6.714  19.483  0.00  0.00    +0.000 A 
ATOM      7  C   UNL     1       1.723   6.321  20.487  0.00  0.00    +0.000 A 
ATOM      8  C   UNL     1       1.307   4.978  20.621  0.00  0.00    +0.000 A 
ATOM      9  C   UNL     1       1.793   3.994  19.740  0.00  0.00    +0.000 A 
ATOM     10  C   UNL     1       1.493   2.618  19.721  0.00  0.00    +0.000 A 
ATOM     11  C   UNL     1       4.027   5.785  17.490  0.00  0.00    +0.000 A 
ATOM     12  C   UNL     1       4.746   6.789  16.890  0.00  0.00    +0.000 A 
ATOM     13  N   UNL     1       5.553   6.553  15.828  0.00  0.00    +0.000 NA
ATOM     14  C   UNL     1       5.631   5.271  15.366  0.00  0.00    +0.000 A 
ATOM     15  C   UNL     1       4.945   4.189  15.904  0.00  0.00    +0.000 A 
ATOM     16  C   UNL     1       4.134   4.466  16.983  0.00  0.00    +0.000 A 
ENDROOT
TORSDOF 0
ENDMDL
MODEL 2
REMARK VINA RESULT:      -7.6      0.500      2.955
REMARK  Name = 
REMARK  0 active torsions:
REMARK  status: ('A' for Active; 'I' for Inactive)
REMARK                            x       y       z     vdW  Elec       q    Type
REMARK                         _______ _______ _______ _____ _____    ______ ____
ROOT
ATOM      1  C   UNL     1       1.694   6.367  20.500  0.00  0.00    +0.000 A 
ATOM      2  C   UNL     1       2.611   6.716  19.490  0.00  0.00    +0.000 A 
ATOM      3  C   UNL     1       3.065   5.724  18.641  0.00  0.00    +0.000 A 
ATOM      4  C   UNL     1       2.603   4.425  18.811  0.00  0.00    +0.000 A 
ATOM      5  C   UNL     1       3.172   3.582  17.867  0.00  0.00    +0.000 A 
ATOM      6  C   UNL     1       2.836   2.240  17.873  0.00  0.00    +0.000 A 
ATOM      7  C   UNL     1       1.924   1.783  18.843  0.00  0.00    +0.000 A 
ATOM      8  C   UNL     1       1.357   2.660  19.793  0.00  0.00    +0.000 A 
ATOM      9  C   UNL     1       1.697   4.026  19.791  0.00  0.00    +0.000 A 
ATOM     10  C   UNL     1       1.237   5.039  20.654  0.00  0.00    +0.000 A 
ATOM     11  C   UNL     1       4.054   4.388  17.038  0.00  0.00    +0.000 A 
ATOM     12  C   UNL     1       4.864   4.103  15.967  0.00  0.00    +0.000 A 
ATOM     13  N   UNL     1       5.603   5.060  15.356  0.00  0.00    +0.000 NA
ATOM     14  C   UNL     1       5.516   6.332  15.843  0.00  0.00    +0.000 A 
ATOM     15  C   UNL     1       4.727   6.719  16.919  0.00  0.00    +0.000 A 
ATOM     16  C   UNL     1       3.990   5.721  17.516  0.00  0.00    +0.000 A 
ENDROOT
TORSDOF 0
ENDMDL
MODEL 3
REMARK VINA RESULT:      -7.3      1.145      1.268
REMARK  Name = 
REMARK  0 active torsions:
REMARK  status: ('A' for Active; 'I' for Inactive)
REMARK                            x       y       z     vdW  Elec       q    Type
REMARK                         _______ _______ _______ _____ _____    ______ ____
ROOT
ATOM      1  C   UNL     1       3.190   2.700  20.100  0.00  0.00    +0.000 A 
ATOM      2  C   UNL     1       3.998   2.791  18.951  0.00  0.00    +0.000 A 
ATOM      3  C   UNL     1       4.089   4.010  18.304  0.00  0.00    +0.000 A 
ATOM      4  C   UNL     1       3.385   5.096  18.807  0.00  0.00    +0.000 A 
ATOM      5  C   UNL     1       3.605   6.220  18.023  0.00  0.00    +0.000 A 
ATOM      6  C   UNL     1       2.986   7.409  18.364  0.00  0.00    +0.000 A 
ATOM      7  C   UNL     1       2.154   7.430  19.499  0.00  0.00    +0.000 A 
ATOM      8  C   UNL     1       1.946   6.274  20.282  0.00  0.00    +0.000 A 
ATOM      9  C   UNL     1       2.573   5.062  19.938  0.00  0.00    +0.000 A 
ATOM     10  C   UNL     1       2.483   3.819  20.594  0.00  0.00    +0.000 A 
ATOM     11  C   UNL     1       4.507   5.833  16.950  0.00  0.00    +0.000 A 
ATOM     12  C   UNL     1       5.064   6.512  15.896  0.00  0.00    +0.000 A 
ATOM     13  N   UNL     1       5.895   5.904  15.015  0.00  0.00    +0.000 NA
ATOM     14  C   UNL     1       6.165   4.582  15.210  0.00  0.00    +0.000 A 
ATOM     15  C   UNL     1       5.652   3.810  16.245  0.00  0.00    +0.000 A 
ATOM     16  C   UNL     1       4.810   4.460  17.121  0.00  0.00    +0.000 A 
ENDROOT
TORSDOF 0
ENDMDL
MODEL 4
REMARK VINA RESULT:      -7.3      1.966      5.086
REMARK  Name = 
REMARK  0 active torsions:
REMARK  status: ('A' for Active; 'I' for Inactive)
REMARK                            x       y       z     vdW  Elec       q    Type
REMARK                         _______ _______ _______ _____ _____    ______ ____
ROOT
ATOM      1  C   UNL     1       2.962   8.031  17.914  0.00  0.00    +0.000 A 
ATOM      2  C   UNL     1       2.266   6.986  18.550  0.00  0.00    +0.000 A 
ATOM      3  C   UNL     1       2.661   5.684  18.300  0.00  0.00    +0.000 A 
ATOM      4  C   UNL     1       3.723   5.455  17.435  0.00  0.00    +0.000 A 
ATOM      5  C   UNL     1       3.963   4.093  17.315  0.00  0.00    +0.000 A 
ATOM      6  C   UNL     1       4.988   3.660  16.493  0.00  0.00    +0.000 A 
ATOM      7  C   UNL     1       5.750   4.625  15.808  0.00  0.00    +0.000 A 
ATOM      8  C   UNL     1       5.488   6.006  15.946  0.00  0.00    +0.000 A 
ATOM      9  C   UNL     1       4.445   6.450  16.781  0.00  0.00    +0.000 A 
ATOM     10  C   UNL     1       4.041   7.774  17.039  0.00  0.00    +0.000 A 
ATOM     11  C   UNL     1       2.996   3.404  18.154  0.00  0.00    +0.000 A 
ATOM     12  C   UNL     1       2.758   2.081  18.429  0.00  0.00    +0.000 A 
ATOM     13  N   UNL     1       1.769   1.692  19.269  0.00  0.00    +0.000 NA
ATOM     14  C   UNL     1       1.007   2.669  19.842  0.00  0.00    +0.000 A 
ATOM     15  C   UNL     1       1.169   4.031  19.629  0.00  0.00    +0.000 A 
ATOM     16  C   UNL     1       2.184   4.390  18.768  0.00  0.00    +0.000 A 
ENDROOT
TORSDOF 0
ENDMDL
MODEL 5
REMARK VINA RESULT:      -7.2      2.005      4.297
REMARK  Name = 
REMARK  0 active torsions:
REMARK  status: ('A' for Active; 'I' for Inactive)
REMARK                            x       y       z     vdW  Elec       q    Type
REMARK                         _______ _______ _______ _____ _____    ______ ____
ROOT
ATOM      1  C   UNL     1       5.747   4.685  15.771  0.00  0.00    +0.000 A 
ATOM      2  C   UNL     1       4.986   3.704  16.433  0.00  0.00    +0.000 A 
ATOM      3  C   UNL     1       3.964   4.116  17.268  0.00  0.00    +0.000 A 
ATOM      4  C   UNL     1       3.725   5.475  17.424  0.00  0.00    +0.000 A 
ATOM      5  C   UNL     1       2.666   5.683  18.297  0.00  0.00    +0.000 A 
ATOM      6  C   UNL     1       2.275   6.979  18.583  0.00  0.00    +0.000 A 
ATOM      7  C   UNL     1       2.971   8.039  17.972  0.00  0.00    +0.000 A 
ATOM      8  C   UNL     1       4.044   7.803  17.086  0.00  0.00    +0.000 A 
ATOM      9  C   UNL     1       4.447   6.486  16.793  0.00  0.00    +0.000 A 
ATOM     10  C   UNL     1       5.486   6.062  15.943  0.00  0.00    +0.000 A 
ATOM     11  C   UNL     1       2.195   4.378  18.729  0.00  0.00    +0.000 A 
ATOM     12  C   UNL     1       1.193   3.969  19.573  0.00  0.00    +0.000 A 
ATOM     13  N   UNL     1       0.952   2.657  19.812  0.00  0.00    +0.000 NA
ATOM     14  C   UNL     1       1.745   1.744  19.181  0.00  0.00    +0.000 A 
ATOM     15  C   UNL     1       2.782   2.058  18.312  0.00  0.00    +0.000 A 
ATOM     16  C   UNL     1       2.998   3.400  18.092  0.00  0.00    +0.000 A 
ENDROOT
TORSDOF 0
ENDMDL
MODEL 6
REMARK VINA RESULT:      -7.1      2.387      4.378
REMARK  Name = 
REMARK  0 active torsions:
REMARK  status: ('A' for Active; 'I' for Inactive)
REMARK                            x       y       z     vdW  Elec       q    Type
REMARK                         _______ _______ _______ _____ _____    ______ ____
ROOT
ATOM      1  C   UNL     1       5.439   5.029  16.449  0.00  0.00    +0.000 A 
ATOM      2  C   UNL     1       5.107   4.110  17.463  0.00  0.00    +0.000 A 
ATOM      3  C   UNL     1       4.198   4.495  18.430  0.00  0.00    +0.000 A 
ATOM      4  C   UNL     1       3.646   5.769  18.370  0.00  0.00    +0.000 A 
ATOM      5  C   UNL     1       2.763   5.963  19.423  0.00  0.00    +0.000 A 
ATOM      6  C   UNL     1       2.109   7.177  19.537  0.00  0.00    +0.000 A 
ATOM      7  C   UNL     1       2.368   8.170  18.574  0.00  0.00    +0.000 A 
ATOM      8  C   UNL     1       3.270   7.949  17.510  0.00  0.00    +0.000 A 
ATOM      9  C   UNL     1       3.938   6.716  17.391  0.00  0.00    +0.000 A 
ATOM     10  C   UNL     1       4.864   6.319  16.407  0.00  0.00    +0.000 A 
ATOM     11  C   UNL     1       2.745   4.740  20.208  0.00  0.00    +0.000 A 
ATOM     12  C   UNL     1       2.072   4.356  21.341  0.00  0.00    +0.000 A 
ATOM     13  N   UNL     1       2.236   3.127  21.887  0.00  0.00    +0.000 NA
ATOM     14  C   UNL     1       3.101   2.272  21.269  0.00  0.00    +0.000 A 
ATOM     15  C   UNL     1       3.827   2.566  20.122  0.00  0.00    +0.000 A 
ATOM     16  C   UNL     1       3.636   3.825  19.595  0.00  0.00    +0.000 A 
ENDROOT
TORSDOF 0
ENDMDL
MODEL 7
REMARK VINA RESULT:      -7.1      2.266      5.076
REMARK  Name = 
REMARK  0 active torsions:
REMARK  status: ('A' for Active; 'I' for Inactive)
REMARK                            x       y       z     vdW  Elec       q    Type
REMARK                         _______ _______ _______ _____ _____    ______ ____
ROOT
ATOM      1  C   UNL     1       2.272   8.291  18.597  0.00  0.00    +0.000 A 
ATOM      2  C   UNL     1       2.045   7.249  19.515  0.00  0.00    +0.000 A 
ATOM      3  C   UNL     1       2.746   6.068  19.357  0.00  0.00    +0.000 A 
ATOM      4  C   UNL     1       3.644   5.951  18.304  0.00  0.00    +0.000 A 
ATOM      5  C   UNL     1       4.243   4.699  18.316  0.00  0.00    +0.000 A 
ATOM      6  C   UNL     1       5.173   4.388  17.340  0.00  0.00    +0.000 A 
ATOM      7  C   UNL     1       5.475   5.362  16.369  0.00  0.00    +0.000 A 
ATOM      8  C   UNL     1       4.855   6.629  16.378  0.00  0.00    +0.000 A 
ATOM      9  C   UNL     1       3.907   6.949  17.368  0.00  0.00    +0.000 A 
ATOM     10  C   UNL     1       3.191   8.151  17.534  0.00  0.00    +0.000 A 
ATOM     11  C   UNL     1       3.696   3.965  19.446  0.00  0.00    +0.000 A 
ATOM     12  C   UNL     1       3.910   2.705  19.945  0.00  0.00    +0.000 A 
ATOM     13  N   UNL     1       3.256   2.250  21.041  0.00  0.00    +0.000 NA
ATOM     14  C   UNL     1       2.367   3.093  21.641  0.00  0.00    +0.000 A 
ATOM     15  C   UNL     1       2.082   4.383  21.213  0.00  0.00    +0.000 A 
ATOM     16  C   UNL     1       2.765   4.812  20.096  0.00  0.00    +0.000 A 
ENDROOT
TORSDOF 0
ENDMDL
MODEL 8
REMARK VINA RESULT:      -7.0      1.313      3.060
REMARK  Name = 
REMARK  0 active torsions:
REMARK  status: ('A' for Active; 'I' for Inactive)
REMARK                            x       y       z     vdW  Elec       q    Type
REMARK                         _______ _______ _______ _____ _____    ______ ____
ROOT
ATOM      1  C   UNL     1       2.218   7.699  19.244  0.00  0.00    +0.000 A 
ATOM      2  C   UNL     1       3.056   7.496  18.131  0.00  0.00    +0.000 A 
ATOM      3  C   UNL     1       3.606   6.242  17.942  0.00  0.00    +0.000 A 
ATOM      4  C   UNL     1       3.315   5.232  18.850  0.00  0.00    +0.000 A 
ATOM      5  C   UNL     1       3.959   4.056  18.489  0.00  0.00    +0.000 A 
ATOM      6  C   UNL     1       3.793   2.930  19.273  0.00  0.00    +0.000 A 
ATOM      7  C   UNL     1       2.972   3.023  20.414  0.00  0.00    +0.000 A 
ATOM      8  C   UNL     1       2.326   4.229  20.761  0.00  0.00    +0.000 A 
ATOM      9  C   UNL     1       2.493   5.378  19.965  0.00  0.00    +0.000 A 
ATOM     10  C   UNL     1       1.934   6.657  20.154  0.00  0.00    +0.000 A 
ATOM     11  C   UNL     1       4.710   4.326  17.273  0.00  0.00    +0.000 A 
ATOM     12  C   UNL     1       5.519   3.559  16.474  0.00  0.00    +0.000 A 
ATOM     13  N   UNL     1       6.116   4.063  15.367  0.00  0.00    +0.000 NA
ATOM     14  C   UNL     1       5.885   5.374  15.067  0.00  0.00    +0.000 A 
ATOM     15  C   UNL     1       5.084   6.231  15.812  0.00  0.00    +0.000 A 
ATOM     16  C   UNL     1       4.494   5.684  16.930  0.00  0.00    +0.000 A 
ENDROOT
TORSDOF 0
ENDMDL
MODEL 9
REMARK VINA RESULT:      -7.0      2.423      4.858
REMARK  Name = 
REMARK  0 active torsions:
REMARK  status: ('A' for Active; 'I' for Inactive)
REMARK                            x       y       z     vdW  Elec       q    Type
REMARK                         _______ _______ _______ _____ _____    ______ ____
ROOT
ATOM      1  C   UNL     1       6.092   4.460  14.554  0.00  0.00    +0.000 A 
ATOM      2  C   UNL     1       4.972   3.851  15.150  0.00  0.00    +0.000 A 
ATOM      3  C   UNL     1       4.814   3.958  16.520  0.00  0.00    +0.000 A 
ATOM      4  C   UNL     1       5.760   4.659  17.256  0.00  0.00    +0.000 A 
ATOM      5  C   UNL     1       5.426   4.653  18.603  0.00  0.00    +0.000 A 
ATOM      6  C   UNL     1       6.251   5.302  19.504  0.00  0.00    +0.000 A 
ATOM      7  C   UNL     1       7.403   5.947  19.013  0.00  0.00    +0.000 A 
ATOM      8  C   UNL     1       7.722   5.941  17.638  0.00  0.00    +0.000 A 
ATOM      9  C   UNL     1       6.885   5.280  16.718  0.00  0.00    +0.000 A 
ATOM     10  C   UNL     1       7.041   5.169  15.323  0.00  0.00    +0.000 A 
ATOM     11  C   UNL     1       4.189   3.902  18.742  0.00  0.00    +0.000 A 
ATOM     12  C   UNL     1       3.401   3.573  19.816  0.00  0.00    +0.000 A 
ATOM     13  N   UNL     1       2.267   2.845  19.674  0.00  0.00    +0.000 NA
ATOM     14  C   UNL     1       1.928   2.444  18.414  0.00  0.00    +0.000 A 
ATOM     15  C   UNL     1       2.658   2.727  17.267  0.00  0.00    +0.000 A 
ATOM     16  C   UNL     1       3.805   3.468  17.449  0.00  0.00    +0.000 A 
ENDROOT
TORSDOF 0
ENDMDL
